MODEL        1
REMARK 921   NORMALIZED FREE ENERGY PREDICTED BY IDOCK:   -8.67 KCAL/MOL
REMARK 922        TOTAL FREE ENERGY PREDICTED BY IDOCK:  -16.45 KCAL/MOL
REMARK 923 INTER-LIGAND FREE ENERGY PREDICTED BY IDOCK:  -14.25 KCAL/MOL
REMARK 924 INTRA-LIGAND FREE ENERGY PREDICTED BY IDOCK:   -2.20 KCAL/MOL
REMARK 927      BINDING AFFINITY PREDICTED BY RF-SCORE:    0.00 PKD
ROOT
HETATM    1  N   UNL     1      -6.308  20.338  66.420  1.00  0.00    -0.190 N  
HETATM    2  H1  UNL     1      -6.601  20.829  67.265  1.00  0.00     0.000 HD 
HETATM    3  H2  UNL     1      -5.410  20.563  65.992  1.00  0.00     0.000 HD 
HETATM    4  C   UNL     1      -7.096  19.393  65.862  1.00  0.00    -0.286 C  
HETATM    5  O   UNL     1      -6.742  18.801  64.842  1.00  0.00    -0.508 OA 
ENDROOT
BRANCH   4   6
HETATM    6  C   UNL     1      -8.391  19.127  66.528  1.00  0.00    -0.324 C  
HETATM    7  C   UNL     1      -8.466  18.003  67.264  1.00  0.00    -0.234 C  
HETATM    8  N   UNL     1      -9.588  17.639  68.004  1.00  0.00    -0.279 NA 
HETATM    9  C   UNL     1      -9.547  20.088  66.462  1.00  0.00    -0.539 C  
HETATM   10  C   UNL     1     -10.743  18.414  67.846  1.00  0.00    -0.305 C  
HETATM   11  C   UNL     1     -10.783  19.555  67.143  1.00  0.00    -0.599 C  
BRANCH   8  12
HETATM   12  C   UNL     1      -9.589  16.595  69.053  1.00  0.00    -0.246 C  
HETATM   13  O   UNL     1      -8.922  15.420  68.540  1.00  0.00    -0.178 OA 
HETATM   14  C   UNL     1      -9.922  14.590  67.909  1.00  0.00    -0.226 C  
HETATM   15  H   UNL     1     -11.641  15.094  71.161  1.00  0.00     0.000 HD 
HETATM   16  C   UNL     1     -11.268  14.950  68.532  1.00  0.00    -0.279 C  
HETATM   17  H   UNL     1     -12.690  14.029  69.554  1.00  0.00     0.000 HD 
HETATM   18  C   UNL     1     -10.936  16.041  69.545  1.00  0.00    -0.326 C  
HETATM   19  O   UNL     1     -11.852  13.805  69.166  1.00  0.00    -0.310 OA 
HETATM   20  O   UNL     1     -10.808  15.437  70.857  1.00  0.00    -0.323 OA 
BRANCH  14  21
HETATM   21  C   UNL     1      -9.912  14.803  66.387  1.00  0.00    -0.277 C  
BRANCH  21  22
HETATM   22  O   UNL     1     -11.122  15.406  65.945  1.00  0.00    -0.321 OA 
BRANCH  22  23
HETATM   23  P   UNL     1     -11.971  14.660  64.817  1.00  0.00    -0.363 P  
HETATM   24  O   UNL     1     -13.270  14.054  65.232  1.00  0.00    -0.782 OA 
HETATM   25  O   UNL     1     -12.266  15.860  63.788  1.00  0.00    -0.817 OA 
BRANCH  23  26
HETATM   26  O   UNL     1     -10.976  13.747  63.996  1.00  0.00    -0.228 OA 
BRANCH  26  27
HETATM   27  P   UNL     1     -11.148  12.192  63.768  1.00  0.00    -0.499 P  
HETATM   28  O   UNL     1      -9.891  11.829  62.836  1.00  0.00    -0.350 OA 
HETATM   29  O   UNL     1     -12.403  11.714  63.121  1.00  0.00    -0.399 OA 
BRANCH  27  30
HETATM   30  O   UNL     1     -10.790  11.464  65.152  1.00  0.00    -0.286 OA 
BRANCH  30  31
HETATM   31  C   UNL     1      -9.436  11.219  65.518  1.00  0.00    -0.229 C  
BRANCH  31  32
HETATM   32  C   UNL     1      -9.290  10.274  66.707  1.00  0.00    -0.160 C  
HETATM   33  O   UNL     1     -10.067  10.723  67.833  1.00  0.00    -0.166 OA 
HETATM   34  C   UNL     1     -10.129   9.570  68.693  1.00  0.00    -0.181 C  
HETATM   35  H   UNL     1      -9.084   7.169  65.685  1.00  0.00     0.000 HD 
HETATM   36  C   UNL     1     -10.331   8.373  67.750  1.00  0.00    -0.235 C  
HETATM   37  C   UNL     1      -9.799   8.869  66.403  1.00  0.00    -0.283 C  
HETATM   38  H   UNL     1      -9.766   6.451  67.582  1.00  0.00     0.000 HD 
HETATM   39  O   UNL     1      -9.641   7.190  68.165  1.00  0.00    -0.132 OA 
HETATM   40  O   UNL     1      -8.767   8.044  65.874  1.00  0.00    -0.148 OA 
BRANCH  34  41
HETATM   41  N   UNL     1     -11.190   9.716  69.669  1.00  0.00    -0.189 NA 
HETATM   42  C   UNL     1     -12.198  10.638  69.686  1.00  0.00    -0.206 A  
HETATM   43  N   UNL     1     -13.018  10.451  70.701  1.00  0.00    -0.343 NA 
HETATM   44  C   UNL     1     -12.495   9.373  71.386  1.00  0.00    -0.352 A  
HETATM   45  C   UNL     1     -12.908   8.683  72.538  1.00  0.00    -0.292 A  
HETATM   46  N   UNL     1     -14.072   8.985  73.229  1.00  0.00    -1.211 NA 
HETATM   47  N   UNL     1     -12.132   7.673  72.998  1.00  0.00     0.097 NA 
HETATM   48  H1  UNL     1     -14.372   8.483  74.065  1.00  0.00     0.000 HD 
HETATM   49  C   UNL     1     -11.022   7.346  72.302  1.00  0.00    -0.254 A  
HETATM   50  H2  UNL     1     -14.842   8.947  72.560  1.00  0.00     0.000 HD 
HETATM   51  N   UNL     1     -10.551   7.897  71.159  1.00  0.00    -0.212 NA 
HETATM   52  C   UNL     1     -11.339   8.918  70.773  1.00  0.00    -0.278 A  
ENDBRANCH  34  41
ENDBRANCH  31  32
ENDBRANCH  30  31
ENDBRANCH  27  30
ENDBRANCH  26  27
ENDBRANCH  23  26
ENDBRANCH  22  23
ENDBRANCH  21  22
ENDBRANCH  14  21
ENDBRANCH   8  12
ENDBRANCH   4   6
TORSDOF 11
ENDMDL
MODEL        2
REMARK 921   NORMALIZED FREE ENERGY PREDICTED BY IDOCK:   -8.52 KCAL/MOL
REMARK 922        TOTAL FREE ENERGY PREDICTED BY IDOCK:  -16.20 KCAL/MOL
REMARK 923 INTER-LIGAND FREE ENERGY PREDICTED BY IDOCK:  -13.71 KCAL/MOL
REMARK 924 INTRA-LIGAND FREE ENERGY PREDICTED BY IDOCK:   -2.49 KCAL/MOL
REMARK 927      BINDING AFFINITY PREDICTED BY RF-SCORE:    0.00 PKD
ROOT
HETATM    1  N   UNL     1      -8.323  13.209  68.892  1.00  0.00    -0.352 N  
HETATM    2  H1  UNL     1      -9.035  13.781  68.436  1.00  0.00     0.000 HD 
HETATM    3  H2  UNL     1      -8.502  12.219  69.059  1.00  0.00     0.000 HD 
HETATM    4  C   UNL     1      -7.146  13.749  69.278  1.00  0.00    -0.004 C  
HETATM    5  O   UNL     1      -6.287  13.060  69.828  1.00  0.00    -0.119 OA 
ENDROOT
BRANCH   4   6
HETATM    6  C   UNL     1      -6.960  15.195  69.017  1.00  0.00    -0.131 C  
HETATM    7  C   UNL     1      -8.076  15.909  68.781  1.00  0.00    -0.190 C  
HETATM    8  N   UNL     1      -8.083  17.287  68.580  1.00  0.00    -0.262 NA 
HETATM    9  C   UNL     1      -5.614  15.863  69.084  1.00  0.00    -0.111 C  
HETATM   10  C   UNL     1      -6.844  17.928  68.472  1.00  0.00    -0.236 C  
HETATM   11  C   UNL     1      -5.669  17.319  68.692  1.00  0.00    -0.152 C  
BRANCH   8  12
HETATM   12  C   UNL     1      -9.299  18.129  68.635  1.00  0.00    -0.297 C  
HETATM   13  O   UNL     1     -10.426  17.346  68.181  1.00  0.00    -0.355 OA 
HETATM   14  C   UNL     1     -10.536  17.524  66.751  1.00  0.00    -0.270 C  
HETATM   15  H   UNL     1     -10.387  21.107  67.711  1.00  0.00     0.000 HD 
HETATM   16  C   UNL     1      -9.863  18.850  66.407  1.00  0.00    -0.375 C  
HETATM   17  H   UNL     1     -10.380  20.572  65.582  1.00  0.00     0.000 HD 
HETATM   18  C   UNL     1      -9.371  19.383  67.749  1.00  0.00    -0.318 C  
HETATM   19  O   UNL     1     -10.799  19.746  65.797  1.00  0.00    -0.458 OA 
HETATM   20  O   UNL     1     -10.343  20.331  68.258  1.00  0.00    -0.365 OA 
BRANCH  14  21
HETATM   21  C   UNL     1      -9.893  16.338  66.014  1.00  0.00    -0.343 C  
BRANCH  21  22
HETATM   22  O   UNL     1     -10.650  15.975  64.866  1.00  0.00    -0.587 OA 
BRANCH  22  23
HETATM   23  P   UNL     1     -11.493  14.620  64.913  1.00  0.00    -0.398 P  
HETATM   24  O   UNL     1     -12.154  14.272  66.204  1.00  0.00    -0.407 OA 
HETATM   25  O   UNL     1     -12.630  14.909  63.813  1.00  0.00    -0.791 OA 
BRANCH  23  26
HETATM   26  O   UNL     1     -10.628  13.496  64.216  1.00  0.00    -0.412 OA 
BRANCH  26  27
HETATM   27  P   UNL     1     -11.081  11.994  64.016  1.00  0.00    -0.464 P  
HETATM   28  O   UNL     1      -9.844  11.354  63.214  1.00  0.00    -0.337 OA 
HETATM   29  O   UNL     1     -12.346  11.738  63.269  1.00  0.00    -0.518 OA 
BRANCH  27  30
HETATM   30  O   UNL     1     -10.991  11.274  65.446  1.00  0.00    -0.230 OA 
BRANCH  30  31
HETATM   31  C   UNL     1     -10.056  10.225  65.678  1.00  0.00    -0.271 C  
BRANCH  31  32
HETATM   32  C   UNL     1      -9.747  10.002  67.155  1.00  0.00    -0.174 C  
HETATM   33  O   UNL     1     -10.513  10.890  67.992  1.00  0.00    -0.176 OA 
HETATM   34  C   UNL     1     -10.403  10.308  69.305  1.00  0.00    -0.231 C  
HETATM   35  H   UNL     1      -9.249   6.821  67.753  1.00  0.00     0.000 HD 
HETATM   36  C   UNL     1     -10.518   8.791  69.085  1.00  0.00    -0.217 C  
HETATM   37  C   UNL     1     -10.112   8.597  67.622  1.00  0.00    -0.213 C  
HETATM   38  H   UNL     1      -9.752   7.082  69.816  1.00  0.00     0.000 HD 
HETATM   39  O   UNL     1      -9.681   8.019  69.952  1.00  0.00    -0.178 OA 
HETATM   40  O   UNL     1      -9.022   7.696  67.462  1.00  0.00    -0.126 OA 
BRANCH  34  41
HETATM   41  N   UNL     1     -11.424  10.838  70.185  1.00  0.00    -0.312 NA 
HETATM   42  C   UNL     1     -12.150  10.171  71.131  1.00  0.00    -0.388 A  
HETATM   43  N   UNL     1     -12.965  10.978  71.784  1.00  0.00    -0.468 NA 
HETATM   44  C   UNL     1     -12.772  12.218  71.210  1.00  0.00    -0.251 A  
HETATM   45  C   UNL     1     -13.327  13.483  71.464  1.00  0.00    -0.285 A  
HETATM   46  N   UNL     1     -14.235  13.724  72.484  1.00  0.00    -0.718 NA 
HETATM   47  N   UNL     1     -12.960  14.519  70.673  1.00  0.00    -0.344 NA 
HETATM   48  H1  UNL     1     -14.638  14.643  72.669  1.00  0.00     0.000 HD 
HETATM   49  C   UNL     1     -12.043  14.297  69.707  1.00  0.00    -0.347 A  
HETATM   50  H2  UNL     1     -13.809  13.400  73.353  1.00  0.00     0.000 HD 
HETATM   51  N   UNL     1     -11.402  13.145  69.402  1.00  0.00    -0.243 NA 
HETATM   52  C   UNL     1     -11.836  12.145  70.192  1.00  0.00    -0.287 A  
ENDBRANCH  34  41
ENDBRANCH  31  32
ENDBRANCH  30  31
ENDBRANCH  27  30
ENDBRANCH  26  27
ENDBRANCH  23  26
ENDBRANCH  22  23
ENDBRANCH  21  22
ENDBRANCH  14  21
ENDBRANCH   8  12
ENDBRANCH   4   6
TORSDOF 11
ENDMDL
MODEL        3
REMARK 921   NORMALIZED FREE ENERGY PREDICTED BY IDOCK:   -8.29 KCAL/MOL
REMARK 922        TOTAL FREE ENERGY PREDICTED BY IDOCK:  -15.82 KCAL/MOL
REMARK 923 INTER-LIGAND FREE ENERGY PREDICTED BY IDOCK:  -13.05 KCAL/MOL
REMARK 924 INTRA-LIGAND FREE ENERGY PREDICTED BY IDOCK:   -2.76 KCAL/MOL
REMARK 927      BINDING AFFINITY PREDICTED BY RF-SCORE:    0.00 PKD
ROOT
HETATM    1  N   UNL     1     -10.793  15.442  70.894  1.00  0.00    -0.466 N  
HETATM    2  H1  UNL     1      -9.830  15.339  70.575  1.00  0.00     0.000 HD 
HETATM    3  H2  UNL     1     -11.005  15.366  71.889  1.00  0.00     0.000 HD 
HETATM    4  C   UNL     1     -11.791  15.680  70.015  1.00  0.00    -0.367 C  
HETATM    5  O   UNL     1     -12.954  15.804  70.401  1.00  0.00    -0.409 OA 
ENDROOT
BRANCH   4   6
HETATM    6  C   UNL     1     -11.413  15.765  68.586  1.00  0.00    -0.389 C  
HETATM    7  C   UNL     1     -11.765  14.722  67.811  1.00  0.00    -0.343 C  
HETATM    8  N   UNL     1     -11.540  14.672  66.437  1.00  0.00    -0.359 NA 
HETATM    9  C   UNL     1     -10.741  16.975  67.997  1.00  0.00    -0.365 C  
HETATM   10  C   UNL     1     -10.776  15.699  65.872  1.00  0.00    -0.329 C  
HETATM   11  C   UNL     1     -10.376  16.787  66.546  1.00  0.00    -0.301 C  
BRANCH   8  12
HETATM   12  C   UNL     1     -12.185  13.702  65.525  1.00  0.00    -0.443 C  
HETATM   13  O   UNL     1     -12.085  12.382  66.105  1.00  0.00    -0.611 OA 
HETATM   14  C   UNL     1     -10.852  11.791  65.637  1.00  0.00    -0.292 C  
HETATM   15  H   UNL     1     -12.219  12.821  62.342  1.00  0.00     0.000 HD 
HETATM   16  C   UNL     1     -10.484  12.487  64.329  1.00  0.00    -0.378 C  
HETATM   17  H   UNL     1     -10.195  11.976  62.441  1.00  0.00     0.000 HD 
HETATM   18  C   UNL     1     -11.599  13.507  64.117  1.00  0.00    -0.376 C  
HETATM   19  O   UNL     1     -10.425  11.542  63.255  1.00  0.00    -0.372 OA 
HETATM   20  O   UNL     1     -12.581  12.942  63.213  1.00  0.00    -0.685 OA 
BRANCH  14  21
HETATM   21  C   UNL     1      -9.753  11.935  66.701  1.00  0.00    -0.205 C  
BRANCH  21  22
HETATM   22  O   UNL     1      -9.574  10.722  67.422  1.00  0.00    -0.158 OA 
BRANCH  22  23
HETATM   23  P   UNL     1      -8.089  10.170  67.620  1.00  0.00    -0.109 P  
HETATM   24  O   UNL     1      -6.970  11.052  67.179  1.00  0.00    -0.089 OA 
HETATM   25  O   UNL     1      -8.016  10.003  69.217  1.00  0.00    -0.105 OA 
BRANCH  23  26
HETATM   26  O   UNL     1      -8.068   8.670  67.122  1.00  0.00    -0.100 OA 
BRANCH  26  27
HETATM   27  P   UNL     1      -8.918   8.101  65.916  1.00  0.00    -0.061 P  
HETATM   28  O   UNL     1      -8.225   6.679  65.633  1.00  0.00    -0.125 OA 
HETATM   29  O   UNL     1      -8.961   8.894  64.654  1.00  0.00    -0.134 OA 
BRANCH  27  30
HETATM   30  O   UNL     1     -10.355   7.690  66.497  1.00  0.00    -0.222 OA 
BRANCH  30  31
HETATM   31  C   UNL     1     -10.516   6.512  67.281  1.00  0.00    -0.272 C  
BRANCH  31  32
HETATM   32  C   UNL     1     -10.271   6.735  68.770  1.00  0.00    -0.175 C  
HETATM   33  O   UNL     1     -10.923   7.932  69.236  1.00  0.00    -0.126 OA 
HETATM   34  C   UNL     1     -10.923   7.791  70.669  1.00  0.00    -0.249 C  
HETATM   35  H   UNL     1     -10.231   3.875  70.366  1.00  0.00     0.000 HD 
HETATM   36  C   UNL     1     -11.242   6.310  70.929  1.00  0.00    -0.324 C  
HETATM   37  C   UNL     1     -10.836   5.610  69.630  1.00  0.00    -0.295 C  
HETATM   38  H   UNL     1     -10.735   4.842  72.207  1.00  0.00     0.000 HD 
HETATM   39  O   UNL     1     -10.538   5.758  72.046  1.00  0.00    -0.211 OA 
HETATM   40  O   UNL     1      -9.879   4.576  69.830  1.00  0.00    -0.203 OA 
BRANCH  34  41
HETATM   41  N   UNL     1     -11.878   8.698  71.272  1.00  0.00    -0.288 NA 
HETATM   42  C   UNL     1     -12.862   8.407  72.175  1.00  0.00    -0.346 A  
HETATM   43  N   UNL     1     -13.521   9.486  72.548  1.00  0.00    -0.381 NA 
HETATM   44  C   UNL     1     -12.951  10.517  71.828  1.00  0.00    -0.476 A  
HETATM   45  C   UNL     1     -13.195  11.899  71.786  1.00  0.00    -0.321 A  
HETATM   46  N   UNL     1     -14.133  12.531  72.589  1.00  0.00    -0.448 NA 
HETATM   47  N   UNL     1     -12.482  12.654  70.916  1.00  0.00    -0.343 NA 
HETATM   48  H1  UNL     1     -14.310  13.536  72.558  1.00  0.00     0.000 HD 
HETATM   49  C   UNL     1     -11.537  12.049  70.164  1.00  0.00    -0.143 A  
HETATM   50  H2  UNL     1     -13.915  12.292  73.557  1.00  0.00     0.000 HD 
HETATM   51  N   UNL     1     -11.176  10.745  70.155  1.00  0.00    -0.286 NA 
HETATM   52  C   UNL     1     -11.943  10.040  71.006  1.00  0.00    -0.376 A  
ENDBRANCH  34  41
ENDBRANCH  31  32
ENDBRANCH  30  31
ENDBRANCH  27  30
ENDBRANCH  26  27
ENDBRANCH  23  26
ENDBRANCH  22  23
ENDBRANCH  21  22
ENDBRANCH  14  21
ENDBRANCH   8  12
ENDBRANCH   4   6
TORSDOF 11
ENDMDL
MODEL        4
REMARK 921   NORMALIZED FREE ENERGY PREDICTED BY IDOCK:   -8.28 KCAL/MOL
REMARK 922        TOTAL FREE ENERGY PREDICTED BY IDOCK:  -15.81 KCAL/MOL
REMARK 923 INTER-LIGAND FREE ENERGY PREDICTED BY IDOCK:  -13.24 KCAL/MOL
REMARK 924 INTRA-LIGAND FREE ENERGY PREDICTED BY IDOCK:   -2.57 KCAL/MOL
REMARK 927      BINDING AFFINITY PREDICTED BY RF-SCORE:    0.00 PKD
ROOT
HETATM    1  N   UNL     1     -13.254  15.006  70.285  1.00  0.00    -0.638 N  
HETATM    2  H1  UNL     1     -13.348  14.508  69.399  1.00  0.00     0.000 HD 
HETATM    3  H2  UNL     1     -14.072  15.136  70.880  1.00  0.00     0.000 HD 
HETATM    4  C   UNL     1     -12.057  15.494  70.678  1.00  0.00    -0.389 C  
HETATM    5  O   UNL     1     -11.943  16.095  71.747  1.00  0.00    -0.474 OA 
ENDROOT
BRANCH   4   6
HETATM    6  C   UNL     1     -10.916  15.280  69.760  1.00  0.00    -0.295 C  
HETATM    7  C   UNL     1     -10.269  16.383  69.341  1.00  0.00    -0.273 C  
HETATM    8  N   UNL     1      -9.139  16.354  68.527  1.00  0.00    -0.214 NA 
HETATM    9  C   UNL     1     -10.441  13.908  69.364  1.00  0.00     0.092 C  
HETATM   10  C   UNL     1      -8.757  15.114  68.002  1.00  0.00    -0.165 C  
HETATM   11  C   UNL     1      -9.324  13.950  68.351  1.00  0.00    -0.201 C  
BRANCH   8  12
HETATM   12  C   UNL     1      -8.237  17.507  68.315  1.00  0.00    -0.263 C  
HETATM   13  O   UNL     1      -9.013  18.617  67.808  1.00  0.00    -0.276 OA 
HETATM   14  C   UNL     1      -9.012  18.528  66.366  1.00  0.00    -0.266 C  
HETATM   15  H   UNL     1      -5.348  18.266  66.906  1.00  0.00     0.000 HD 
HETATM   16  C   UNL     1      -7.776  17.730  65.962  1.00  0.00    -0.188 C  
HETATM   17  H   UNL     1      -6.148  18.020  64.876  1.00  0.00     0.000 HD 
HETATM   18  C   UNL     1      -7.102  17.380  67.286  1.00  0.00    -0.167 C  
HETATM   19  O   UNL     1      -6.917  18.518  65.128  1.00  0.00    -0.516 OA 
HETATM   20  O   UNL     1      -6.050  18.344  67.542  1.00  0.00    -0.171 OA 
BRANCH  14  21
HETATM   21  C   UNL     1     -10.312  17.877  65.869  1.00  0.00    -0.259 C  
BRANCH  21  22
HETATM   22  O   UNL     1     -10.050  16.640  65.216  1.00  0.00    -0.575 OA 
BRANCH  22  23
HETATM   23  P   UNL     1     -11.217  15.553  65.157  1.00  0.00    -0.216 P  
HETATM   24  O   UNL     1     -12.103  15.438  66.352  1.00  0.00     0.286 OA 
HETATM   25  O   UNL     1     -12.091  16.084  63.915  1.00  0.00    -0.880 OA 
BRANCH  23  26
HETATM   26  O   UNL     1     -10.596  14.217  64.586  1.00  0.00    -0.420 OA 
BRANCH  26  27
HETATM   27  P   UNL     1     -11.267  12.789  64.683  1.00  0.00    -0.366 P  
HETATM   28  O   UNL     1     -12.011  12.649  63.265  1.00  0.00    -0.516 OA 
HETATM   29  O   UNL     1     -12.243  12.547  65.784  1.00  0.00    -0.578 OA 
BRANCH  27  30
HETATM   30  O   UNL     1     -10.093  11.701  64.579  1.00  0.00    -0.255 OA 
BRANCH  30  31
HETATM   31  C   UNL     1     -10.209  10.437  65.225  1.00  0.00    -0.262 C  
BRANCH  31  32
HETATM   32  C   UNL     1      -9.618  10.416  66.631  1.00  0.00    -0.177 C  
HETATM   33  O   UNL     1     -10.647  10.286  67.631  1.00  0.00    -0.223 OA 
HETATM   34  C   UNL     1      -9.929   9.903  68.819  1.00  0.00    -0.173 C  
HETATM   35  H   UNL     1      -6.765   8.810  66.652  1.00  0.00     0.000 HD 
HETATM   36  C   UNL     1      -8.863   8.903  68.342  1.00  0.00    -0.134 C  
HETATM   37  C   UNL     1      -8.688   9.230  66.857  1.00  0.00    -0.127 C  
HETATM   38  H   UNL     1      -6.959   8.397  68.743  1.00  0.00     0.000 HD 
HETATM   39  O   UNL     1      -7.618   9.014  69.037  1.00  0.00    -0.076 OA 
HETATM   40  O   UNL     1      -7.344   9.549  66.511  1.00  0.00    -0.089 OA 
BRANCH  34  41
HETATM   41  N   UNL     1     -10.832   9.349  69.807  1.00  0.00    -0.233 NA 
HETATM   42  C   UNL     1     -10.974   8.043  70.181  1.00  0.00    -0.226 A  
HETATM   43  N   UNL     1     -11.862   7.901  71.145  1.00  0.00    -0.289 NA 
HETATM   44  C   UNL     1     -12.335   9.176  71.382  1.00  0.00    -0.333 A  
HETATM   45  C   UNL     1     -13.278   9.690  72.287  1.00  0.00    -0.404 A  
HETATM   46  N   UNL     1     -13.931   8.911  73.231  1.00  0.00    -1.217 NA 
HETATM   47  N   UNL     1     -13.565  11.013  72.237  1.00  0.00    -0.077 NA 
HETATM   48  H1  UNL     1     -14.615   9.285  73.888  1.00  0.00     0.000 HD 
HETATM   49  C   UNL     1     -12.899  11.783  71.350  1.00  0.00    -0.335 A  
HETATM   50  H2  UNL     1     -13.214   8.432  73.778  1.00  0.00     0.000 HD 
HETATM   51  N   UNL     1     -11.939  11.416  70.470  1.00  0.00    -0.365 NA 
HETATM   52  C   UNL     1     -11.725  10.089  70.537  1.00  0.00    -0.318 A  
ENDBRANCH  34  41
ENDBRANCH  31  32
ENDBRANCH  30  31
ENDBRANCH  27  30
ENDBRANCH  26  27
ENDBRANCH  23  26
ENDBRANCH  22  23
ENDBRANCH  21  22
ENDBRANCH  14  21
ENDBRANCH   8  12
ENDBRANCH   4   6
TORSDOF 11
ENDMDL
MODEL        5
REMARK 921   NORMALIZED FREE ENERGY PREDICTED BY IDOCK:   -8.16 KCAL/MOL
REMARK 922        TOTAL FREE ENERGY PREDICTED BY IDOCK:  -15.61 KCAL/MOL
REMARK 923 INTER-LIGAND FREE ENERGY PREDICTED BY IDOCK:  -13.92 KCAL/MOL
REMARK 924 INTRA-LIGAND FREE ENERGY PREDICTED BY IDOCK:   -1.69 KCAL/MOL
REMARK 927      BINDING AFFINITY PREDICTED BY RF-SCORE:    0.00 PKD
ROOT
HETATM    1  N   UNL     1      -9.679  20.494  66.322  1.00  0.00    -0.648 N  
HETATM    2  H1  UNL     1      -9.265  20.042  65.506  1.00  0.00     0.000 HD 
HETATM    3  H2  UNL     1     -10.034  21.447  66.246  1.00  0.00     0.000 HD 
HETATM    4  C   UNL     1      -9.761  19.843  67.504  1.00  0.00    -0.392 C  
HETATM    5  O   UNL     1     -10.259  20.387  68.489  1.00  0.00    -0.273 OA 
ENDROOT
BRANCH   4   6
HETATM    6  C   UNL     1      -9.213  18.468  67.545  1.00  0.00    -0.288 C  
HETATM    7  C   UNL     1      -9.559  17.718  68.608  1.00  0.00    -0.322 C  
HETATM    8  N   UNL     1      -9.182  16.387  68.769  1.00  0.00    -0.230 NA 
HETATM    9  C   UNL     1      -8.378  17.895  66.433  1.00  0.00    -0.273 C  
HETATM   10  C   UNL     1      -8.273  15.859  67.844  1.00  0.00    -0.145 C  
HETATM   11  C   UNL     1      -7.864  16.512  66.747  1.00  0.00    -0.296 C  
BRANCH   8  12
HETATM   12  C   UNL     1      -9.796  15.461  69.746  1.00  0.00    -0.227 C  
HETATM   13  O   UNL     1     -10.309  14.311  69.037  1.00  0.00    -0.231 OA 
HETATM   14  C   UNL     1     -11.675  14.601  68.663  1.00  0.00    -0.329 C  
HETATM   15  H   UNL     1     -11.930  15.454  72.267  1.00  0.00     0.000 HD 
HETATM   16  C   UNL     1     -12.193  15.662  69.629  1.00  0.00    -0.240 C  
HETATM   17  H   UNL     1     -13.649  15.833  70.957  1.00  0.00     0.000 HD 
HETATM   18  C   UNL     1     -11.012  15.939  70.555  1.00  0.00    -0.330 C  
HETATM   19  O   UNL     1     -13.327  15.172  70.355  1.00  0.00    -0.206 OA 
HETATM   20  O   UNL     1     -11.178  15.159  71.766  1.00  0.00    -0.389 OA 
BRANCH  14  21
HETATM   21  C   UNL     1     -11.741  15.066  67.200  1.00  0.00    -0.215 C  
BRANCH  21  22
HETATM   22  O   UNL     1     -12.426  14.118  66.390  1.00  0.00    -0.461 OA 
BRANCH  22  23
HETATM   23  P   UNL     1     -11.845  13.802  64.937  1.00  0.00    -0.425 P  
HETATM   24  O   UNL     1     -12.651  14.257  63.766  1.00  0.00    -0.821 OA 
HETATM   25  O   UNL     1     -10.460  14.620  64.958  1.00  0.00    -0.393 OA 
BRANCH  23  26
HETATM   26  O   UNL     1     -11.351  12.301  64.937  1.00  0.00    -0.309 OA 
BRANCH  26  27
HETATM   27  P   UNL     1     -10.653  11.575  66.156  1.00  0.00    -0.265 P  
HETATM   28  O   UNL     1     -11.815  11.548  67.266  1.00  0.00    -0.609 OA 
HETATM   29  O   UNL     1      -9.427  12.198  66.733  1.00  0.00    -0.200 OA 
BRANCH  27  30
HETATM   30  O   UNL     1     -10.497  10.028  65.765  1.00  0.00    -0.169 OA 
BRANCH  30  31
HETATM   31  C   UNL     1      -9.237   9.373  65.864  1.00  0.00    -0.213 C  
BRANCH  31  32
HETATM   32  C   UNL     1      -8.851   9.011  67.295  1.00  0.00    -0.117 C  
HETATM   33  O   UNL     1      -9.962   9.180  68.197  1.00  0.00    -0.163 OA 
HETATM   34  C   UNL     1      -9.563   8.455  69.376  1.00  0.00    -0.170 C  
HETATM   35  H   UNL     1      -6.784   6.470  67.316  1.00  0.00     0.000 HD 
HETATM   36  C   UNL     1      -8.881   7.179  68.854  1.00  0.00    -0.130 C  
HETATM   37  C   UNL     1      -8.439   7.549  67.437  1.00  0.00    -0.115 C  
HETATM   38  H   UNL     1      -7.342   5.973  69.322  1.00  0.00     0.000 HD 
HETATM   39  O   UNL     1      -7.764   6.761  69.644  1.00  0.00    -0.105 OA 
HETATM   40  O   UNL     1      -7.041   7.380  67.228  1.00  0.00    -0.079 OA 
BRANCH  34  41
HETATM   41  N   UNL     1     -10.708   8.188  70.222  1.00  0.00    -0.233 NA 
HETATM   42  C   UNL     1     -11.171   6.977  70.656  1.00  0.00    -0.288 A  
HETATM   43  N   UNL     1     -12.214   7.107  71.453  1.00  0.00    -0.342 NA 
HETATM   44  C   UNL     1     -12.449   8.466  71.512  1.00  0.00    -0.312 A  
HETATM   45  C   UNL     1     -13.400   9.240  72.196  1.00  0.00    -0.468 A  
HETATM   46  N   UNL     1     -14.342   8.701  73.059  1.00  0.00    -1.094 NA 
HETATM   47  N   UNL     1     -13.400  10.581  72.003  1.00  0.00    -0.401 NA 
HETATM   48  H1  UNL     1     -15.033   9.263  73.556  1.00  0.00     0.000 HD 
HETATM   49  C   UNL     1     -12.457  11.115  71.197  1.00  0.00    -0.393 A  
HETATM   50  H2  UNL     1     -13.836   8.155  73.758  1.00  0.00     0.000 HD 
HETATM   51  N   UNL     1     -11.462  10.484  70.531  1.00  0.00    -0.332 NA 
HETATM   52  C   UNL     1     -11.537   9.154  70.728  1.00  0.00    -0.276 A  
ENDBRANCH  34  41
ENDBRANCH  31  32
ENDBRANCH  30  31
ENDBRANCH  27  30
ENDBRANCH  26  27
ENDBRANCH  23  26
ENDBRANCH  22  23
ENDBRANCH  21  22
ENDBRANCH  14  21
ENDBRANCH   8  12
ENDBRANCH   4   6
TORSDOF 11
ENDMDL
MODEL        6
REMARK 921   NORMALIZED FREE ENERGY PREDICTED BY IDOCK:   -8.12 KCAL/MOL
REMARK 922        TOTAL FREE ENERGY PREDICTED BY IDOCK:  -15.54 KCAL/MOL
REMARK 923 INTER-LIGAND FREE ENERGY PREDICTED BY IDOCK:  -12.46 KCAL/MOL
REMARK 924 INTRA-LIGAND FREE ENERGY PREDICTED BY IDOCK:   -3.09 KCAL/MOL
REMARK 927      BINDING AFFINITY PREDICTED BY RF-SCORE:    0.00 PKD
ROOT
HETATM    1  N   UNL     1     -10.170  11.619  68.948  1.00  0.00    -0.361 N  
HETATM    2  H1  UNL     1      -9.615  10.770  69.057  1.00  0.00     0.000 HD 
HETATM    3  H2  UNL     1      -9.862  12.344  68.300  1.00  0.00     0.000 HD 
HETATM    4  C   UNL     1     -11.310  11.794  69.653  1.00  0.00    -0.215 C  
HETATM    5  O   UNL     1     -11.980  12.818  69.522  1.00  0.00    -0.309 OA 
ENDROOT
BRANCH   4   6
HETATM    6  C   UNL     1     -11.689  10.708  70.585  1.00  0.00    -0.454 C  
HETATM    7  C   UNL     1     -10.835   9.671  70.676  1.00  0.00    -0.320 C  
HETATM    8  N   UNL     1     -11.011   8.601  71.549  1.00  0.00    -0.267 NA 
HETATM    9  C   UNL     1     -12.919  10.775  71.449  1.00  0.00    -0.535 C  
HETATM   10  C   UNL     1     -12.218   8.537  72.254  1.00  0.00    -0.389 C  
HETATM   11  C   UNL     1     -13.139   9.512  72.244  1.00  0.00    -0.492 C  
BRANCH   8  12
HETATM   12  C   UNL     1      -9.952   7.627  71.893  1.00  0.00    -0.176 C  
HETATM   13  O   UNL     1      -9.133   7.398  70.724  1.00  0.00    -0.150 OA 
HETATM   14  C   UNL     1      -9.715   6.296  69.992  1.00  0.00    -0.168 C  
HETATM   15  H   UNL     1      -9.561   4.679  73.330  1.00  0.00     0.000 HD 
HETATM   16  C   UNL     1     -10.531   5.473  70.985  1.00  0.00    -0.244 C  
HETATM   17  H   UNL     1     -10.540   3.619  71.676  1.00  0.00     0.000 HD 
HETATM   18  C   UNL     1     -10.360   6.206  72.313  1.00  0.00    -0.192 C  
HETATM   19  O   UNL     1     -10.031   4.131  71.058  1.00  0.00    -0.189 OA 
HETATM   20  O   UNL     1      -9.308   5.558  73.071  1.00  0.00    -0.137 OA 
BRANCH  14  21
HETATM   21  C   UNL     1     -10.573   6.819  68.830  1.00  0.00    -0.226 C  
BRANCH  21  22
HETATM   22  O   UNL     1      -9.796   6.976  67.648  1.00  0.00    -0.138 OA 
BRANCH  22  23
HETATM   23  P   UNL     1      -9.713   8.425  66.982  1.00  0.00    -0.255 P  
HETATM   24  O   UNL     1     -10.960   9.245  66.978  1.00  0.00    -0.106 OA 
HETATM   25  O   UNL     1      -8.623   9.148  67.917  1.00  0.00    -0.121 OA 
BRANCH  23  26
HETATM   26  O   UNL     1      -8.939   8.277  65.613  1.00  0.00    -0.171 OA 
BRANCH  26  27
HETATM   27  P   UNL     1      -8.557   9.473  64.652  1.00  0.00    -0.208 P  
HETATM   28  O   UNL     1      -7.801   8.730  63.444  1.00  0.00    -0.132 OA 
HETATM   29  O   UNL     1      -7.687  10.556  65.193  1.00  0.00    -0.137 OA 
BRANCH  27  30
HETATM   30  O   UNL     1      -9.913   9.985  63.964  1.00  0.00    -0.152 OA 
BRANCH  30  31
HETATM   31  C   UNL     1     -10.062  11.343  63.567  1.00  0.00    -0.395 C  
BRANCH  31  32
HETATM   32  C   UNL     1     -10.898  12.172  64.538  1.00  0.00    -0.312 C  
HETATM   33  O   UNL     1     -10.095  13.160  65.211  1.00  0.00    -0.287 OA 
HETATM   34  C   UNL     1     -11.062  14.071  65.768  1.00  0.00    -0.305 C  
HETATM   35  H   UNL     1     -13.890  12.699  63.314  1.00  0.00     0.000 HD 
HETATM   36  C   UNL     1     -12.142  14.226  64.685  1.00  0.00    -0.463 C  
HETATM   37  C   UNL     1     -11.999  12.960  63.836  1.00  0.00    -0.480 C  
HETATM   38  H   UNL     1     -14.136  14.436  64.539  1.00  0.00     0.000 HD 
HETATM   39  O   UNL     1     -13.468  14.341  65.209  1.00  0.00    -0.564 OA 
HETATM   40  O   UNL     1     -13.204  12.208  63.751  1.00  0.00    -0.763 OA 
BRANCH  34  41
HETATM   41  N   UNL     1     -10.433  15.324  66.134  1.00  0.00    -0.296 NA 
HETATM   42  C   UNL     1     -10.573  16.543  65.534  1.00  0.00    -0.295 A  
HETATM   43  N   UNL     1      -9.886  17.480  66.158  1.00  0.00    -0.464 NA 
HETATM   44  C   UNL     1      -9.251  16.824  67.193  1.00  0.00    -0.224 A  
HETATM   45  C   UNL     1      -8.393  17.261  68.215  1.00  0.00    -0.242 A  
HETATM   46  N   UNL     1      -8.038  18.590  68.394  1.00  0.00    -0.315 NA 
HETATM   47  N   UNL     1      -7.884  16.341  69.068  1.00  0.00    -0.228 NA 
HETATM   48  H1  UNL     1      -7.415  18.908  69.137  1.00  0.00     0.000 HD 
HETATM   49  C   UNL     1      -8.262  15.052  68.925  1.00  0.00    -0.178 A  
HETATM   50  H2  UNL     1      -8.902  19.127  68.473  1.00  0.00     0.000 HD 
HETATM   51  N   UNL     1      -9.117  14.521  68.020  1.00  0.00    -0.179 NA 
HETATM   52  C   UNL     1      -9.557  15.473  67.177  1.00  0.00    -0.222 A  
ENDBRANCH  34  41
ENDBRANCH  31  32
ENDBRANCH  30  31
ENDBRANCH  27  30
ENDBRANCH  26  27
ENDBRANCH  23  26
ENDBRANCH  22  23
ENDBRANCH  21  22
ENDBRANCH  14  21
ENDBRANCH   8  12
ENDBRANCH   4   6
TORSDOF 11
ENDMDL
MODEL        7
REMARK 921   NORMALIZED FREE ENERGY PREDICTED BY IDOCK:   -8.10 KCAL/MOL
REMARK 922        TOTAL FREE ENERGY PREDICTED BY IDOCK:  -15.50 KCAL/MOL
REMARK 923 INTER-LIGAND FREE ENERGY PREDICTED BY IDOCK:  -12.49 KCAL/MOL
REMARK 924 INTRA-LIGAND FREE ENERGY PREDICTED BY IDOCK:   -3.01 KCAL/MOL
REMARK 927      BINDING AFFINITY PREDICTED BY RF-SCORE:    0.00 PKD
ROOT
HETATM    1  N   UNL     1     -13.041   8.742  72.591  1.00  0.00    -0.608 N  
HETATM    2  H1  UNL     1     -12.396   9.433  72.975  1.00  0.00     0.000 HD 
HETATM    3  H2  UNL     1     -14.012   8.729  72.904  1.00  0.00     0.000 HD 
HETATM    4  C   UNL     1     -12.623   7.843  71.673  1.00  0.00    -0.321 C  
HETATM    5  O   UNL     1     -13.401   7.009  71.210  1.00  0.00    -0.346 OA 
ENDROOT
BRANCH   4   6
HETATM    6  C   UNL     1     -11.199   7.911  71.275  1.00  0.00    -0.283 C  
HETATM    7  C   UNL     1     -10.751   6.918  70.484  1.00  0.00    -0.235 C  
HETATM    8  N   UNL     1      -9.457   6.865  69.970  1.00  0.00    -0.158 NA 
HETATM    9  C   UNL     1     -10.305   9.058  71.659  1.00  0.00    -0.420 C  
HETATM   10  C   UNL     1      -8.543   7.821  70.429  1.00  0.00    -0.137 C  
HETATM   11  C   UNL     1      -8.878   8.855  71.213  1.00  0.00    -0.298 C  
BRANCH   8  12
HETATM   12  C   UNL     1      -9.038   5.976  68.865  1.00  0.00    -0.121 C  
HETATM   13  O   UNL     1      -8.557   6.789  67.771  1.00  0.00    -0.121 OA 
HETATM   14  C   UNL     1      -9.685   7.087  66.918  1.00  0.00    -0.175 C  
HETATM   15  H   UNL     1     -10.127   3.406  67.100  1.00  0.00     0.000 HD 
HETATM   16  C   UNL     1     -10.727   5.995  67.148  1.00  0.00    -0.330 C  
HETATM   17  H   UNL     1     -11.645   4.613  66.072  1.00  0.00     0.000 HD 
HETATM   18  C   UNL     1     -10.092   5.082  68.193  1.00  0.00    -0.103 C  
HETATM   19  O   UNL     1     -10.996   5.292  65.929  1.00  0.00    -0.113 OA 
HETATM   20  O   UNL     1      -9.475   3.958  67.516  1.00  0.00    -0.177 OA 
BRANCH  14  21
HETATM   21  C   UNL     1     -10.234   8.488  67.228  1.00  0.00    -0.276 C  
BRANCH  21  22
HETATM   22  O   UNL     1      -9.180   9.412  67.470  1.00  0.00    -0.124 OA 
BRANCH  22  23
HETATM   23  P   UNL     1      -9.194  10.801  66.684  1.00  0.00    -0.174 P  
HETATM   24  O   UNL     1      -8.507  11.957  67.330  1.00  0.00    -0.156 OA 
HETATM   25  O   UNL     1      -8.403  10.417  65.337  1.00  0.00    -0.157 OA 
BRANCH  23  26
HETATM   26  O   UNL     1     -10.665  11.035  66.156  1.00  0.00    -0.253 OA 
BRANCH  26  27
HETATM   27  P   UNL     1     -11.048  11.906  64.893  1.00  0.00    -0.263 P  
HETATM   28  O   UNL     1     -12.543  12.388  65.235  1.00  0.00    -0.636 OA 
HETATM   29  O   UNL     1     -11.030  11.247  63.556  1.00  0.00    -0.381 OA 
BRANCH  27  30
HETATM   30  O   UNL     1     -10.206  13.269  64.979  1.00  0.00    -0.321 OA 
BRANCH  30  31
HETATM   31  C   UNL     1     -10.854  14.534  64.899  1.00  0.00    -0.421 C  
BRANCH  31  32
HETATM   32  C   UNL     1     -10.653  15.398  66.140  1.00  0.00    -0.316 C  
HETATM   33  O   UNL     1     -11.593  15.055  67.177  1.00  0.00    -0.342 OA 
HETATM   34  C   UNL     1     -11.039  15.661  68.360  1.00  0.00    -0.326 C  
HETATM   35  H   UNL     1      -7.470  16.003  66.615  1.00  0.00     0.000 HD 
HETATM   36  C   UNL     1      -9.523  15.425  68.263  1.00  0.00    -0.200 C  
HETATM   37  C   UNL     1      -9.277  15.210  66.768  1.00  0.00    -0.254 C  
HETATM   38  H   UNL     1      -7.802  16.370  68.697  1.00  0.00     0.000 HD 
HETATM   39  O   UNL     1      -8.739  16.515  68.757  1.00  0.00    -0.238 OA 
HETATM   40  O   UNL     1      -8.327  16.120  66.224  1.00  0.00    -0.310 OA 
BRANCH  34  41
HETATM   41  N   UNL     1     -11.633  15.090  69.552  1.00  0.00    -0.292 NA 
HETATM   42  C   UNL     1     -12.041  15.739  70.684  1.00  0.00    -0.388 A  
HETATM   43  N   UNL     1     -12.580  14.911  71.557  1.00  0.00    -0.307 NA 
HETATM   44  C   UNL     1     -12.488  13.665  70.969  1.00  0.00    -0.377 A  
HETATM   45  C   UNL     1     -12.891  12.384  71.381  1.00  0.00    -0.260 A  
HETATM   46  N   UNL     1     -13.565  12.144  72.570  1.00  0.00    -0.513 NA 
HETATM   47  N   UNL     1     -12.606  11.330  70.581  1.00  0.00    -0.309 NA 
HETATM   48  H1  UNL     1     -13.858  11.214  72.869  1.00  0.00     0.000 HD 
HETATM   49  C   UNL     1     -11.989  11.565  69.402  1.00  0.00    -0.325 A  
HETATM   50  H2  UNL     1     -14.394  12.739  72.574  1.00  0.00     0.000 HD 
HETATM   51  N   UNL     1     -11.603  12.750  68.875  1.00  0.00    -0.295 NA 
HETATM   52  C   UNL     1     -11.875  13.753  69.730  1.00  0.00    -0.331 A  
ENDBRANCH  34  41
ENDBRANCH  31  32
ENDBRANCH  30  31
ENDBRANCH  27  30
ENDBRANCH  26  27
ENDBRANCH  23  26
ENDBRANCH  22  23
ENDBRANCH  21  22
ENDBRANCH  14  21
ENDBRANCH   8  12
ENDBRANCH   4   6
TORSDOF 11
ENDMDL
MODEL        8
REMARK 921   NORMALIZED FREE ENERGY PREDICTED BY IDOCK:   -8.05 KCAL/MOL
REMARK 922        TOTAL FREE ENERGY PREDICTED BY IDOCK:  -15.43 KCAL/MOL
REMARK 923 INTER-LIGAND FREE ENERGY PREDICTED BY IDOCK:  -13.67 KCAL/MOL
REMARK 924 INTRA-LIGAND FREE ENERGY PREDICTED BY IDOCK:   -1.76 KCAL/MOL
REMARK 927      BINDING AFFINITY PREDICTED BY RF-SCORE:    0.00 PKD
ROOT
HETATM    1  N   UNL     1      -7.022  20.616  65.405  1.00  0.00    -0.514 N  
HETATM    2  H1  UNL     1      -7.596  21.372  65.779  1.00  0.00     0.000 HD 
HETATM    3  H2  UNL     1      -6.179  20.838  64.876  1.00  0.00     0.000 HD 
HETATM    4  C   UNL     1      -7.365  19.324  65.603  1.00  0.00    -0.160 C  
HETATM    5  O   UNL     1      -6.672  18.413  65.151  1.00  0.00    -0.504 OA 
ENDROOT
BRANCH   4   6
HETATM    6  C   UNL     1      -8.608  19.075  66.368  1.00  0.00    -0.320 C  
HETATM    7  C   UNL     1      -8.677  17.908  67.034  1.00  0.00    -0.245 C  
HETATM    8  N   UNL     1      -9.746  17.547  67.850  1.00  0.00    -0.270 NA 
HETATM    9  C   UNL     1      -9.712  20.091  66.471  1.00  0.00    -0.564 C  
HETATM   10  C   UNL     1     -10.867  18.385  67.849  1.00  0.00    -0.202 C  
HETATM   11  C   UNL     1     -10.909  19.572  67.227  1.00  0.00    -0.557 C  
BRANCH   8  12
HETATM   12  C   UNL     1      -9.709  16.436  68.826  1.00  0.00    -0.250 C  
HETATM   13  O   UNL     1      -9.449  15.204  68.117  1.00  0.00    -0.196 OA 
HETATM   14  C   UNL     1     -10.724  14.641  67.735  1.00  0.00    -0.265 C  
HETATM   15  H   UNL     1     -11.451  15.180  71.335  1.00  0.00     0.000 HD 
HETATM   16  C   UNL     1     -11.771  15.198  68.695  1.00  0.00    -0.341 C  
HETATM   17  H   UNL     1     -13.060  14.483  70.014  1.00  0.00     0.000 HD 
HETATM   18  C   UNL     1     -10.980  16.111  69.627  1.00  0.00    -0.346 C  
HETATM   19  O   UNL     1     -12.408  14.136  69.416  1.00  0.00    -0.326 OA 
HETATM   20  O   UNL     1     -10.665  15.381  70.839  1.00  0.00    -0.301 OA 
BRANCH  14  21
HETATM   21  C   UNL     1     -11.041  14.981  66.270  1.00  0.00    -0.334 C  
BRANCH  21  22
HETATM   22  O   UNL     1     -12.264  14.384  65.857  1.00  0.00    -0.392 OA 
BRANCH  22  23
HETATM   23  P   UNL     1     -12.218  13.283  64.702  1.00  0.00    -0.400 P  
HETATM   24  O   UNL     1     -13.365  12.332  64.620  1.00  0.00    -0.717 OA 
HETATM   25  O   UNL     1     -12.212  14.200  63.381  1.00  0.00    -0.586 OA 
BRANCH  23  26
HETATM   26  O   UNL     1     -10.763  12.665  64.690  1.00  0.00    -0.294 OA 
BRANCH  26  27
HETATM   27  P   UNL     1     -10.313  11.388  65.507  1.00  0.00    -0.277 P  
HETATM   28  O   UNL     1     -10.255  10.247  64.378  1.00  0.00    -0.298 OA 
HETATM   29  O   UNL     1     -11.180  10.934  66.631  1.00  0.00    -0.207 OA 
BRANCH  27  30
HETATM   30  O   UNL     1      -8.768  11.589  65.892  1.00  0.00    -0.162 OA 
BRANCH  30  31
HETATM   31  C   UNL     1      -8.393  12.057  67.183  1.00  0.00    -0.181 C  
BRANCH  31  32
HETATM   32  C   UNL     1      -7.935  10.946  68.123  1.00  0.00    -0.117 C  
HETATM   33  O   UNL     1      -8.787  10.854  69.281  1.00  0.00    -0.095 OA 
HETATM   34  C   UNL     1      -8.471   9.565  69.842  1.00  0.00    -0.187 C  
HETATM   35  H   UNL     1      -6.807   8.390  66.414  1.00  0.00     0.000 HD 
HETATM   36  C   UNL     1      -8.317   8.626  68.635  1.00  0.00    -0.122 C  
HETATM   37  C   UNL     1      -7.994   9.568  67.472  1.00  0.00    -0.106 C  
HETATM   38  H   UNL     1      -7.191   7.066  68.051  1.00  0.00     0.000 HD 
HETATM   39  O   UNL     1      -7.287   7.646  68.797  1.00  0.00    -0.086 OA 
HETATM   40  O   UNL     1      -6.771   9.248  66.819  1.00  0.00    -0.074 OA 
BRANCH  34  41
HETATM   41  N   UNL     1      -9.503   9.144  70.767  1.00  0.00    -0.251 NA 
HETATM   42  C   UNL     1      -9.417   8.200  71.752  1.00  0.00    -0.188 A  
HETATM   43  N   UNL     1     -10.539   8.103  72.438  1.00  0.00    -0.298 NA 
HETATM   44  C   UNL     1     -11.396   9.009  71.847  1.00  0.00    -0.368 A  
HETATM   45  C   UNL     1     -12.722   9.385  72.120  1.00  0.00    -0.382 A  
HETATM   46  N   UNL     1     -13.455   8.875  73.182  1.00  0.00    -0.955 NA 
HETATM   47  N   UNL     1     -13.316  10.289  71.306  1.00  0.00    -0.332 NA 
HETATM   48  H1  UNL     1     -14.417   9.149  73.379  1.00  0.00     0.000 HD 
HETATM   49  C   UNL     1     -12.592  10.822  70.297  1.00  0.00    -0.276 A  
HETATM   50  H2  UNL     1     -12.912   9.038  74.031  1.00  0.00     0.000 HD 
HETATM   51  N   UNL     1     -11.301  10.581  69.969  1.00  0.00    -0.295 NA 
HETATM   52  C   UNL     1     -10.777   9.648  70.785  1.00  0.00    -0.331 A  
ENDBRANCH  34  41
ENDBRANCH  31  32
ENDBRANCH  30  31
ENDBRANCH  27  30
ENDBRANCH  26  27
ENDBRANCH  23  26
ENDBRANCH  22  23
ENDBRANCH  21  22
ENDBRANCH  14  21
ENDBRANCH   8  12
ENDBRANCH   4   6
TORSDOF 11
ENDMDL
MODEL        9
REMARK 921   NORMALIZED FREE ENERGY PREDICTED BY IDOCK:   -7.84 KCAL/MOL
REMARK 922        TOTAL FREE ENERGY PREDICTED BY IDOCK:  -15.09 KCAL/MOL
REMARK 923 INTER-LIGAND FREE ENERGY PREDICTED BY IDOCK:  -13.41 KCAL/MOL
REMARK 924 INTRA-LIGAND FREE ENERGY PREDICTED BY IDOCK:   -1.68 KCAL/MOL
REMARK 927      BINDING AFFINITY PREDICTED BY RF-SCORE:    0.00 PKD
ROOT
HETATM    1  N   UNL     1     -13.652  11.857  72.371  1.00  0.00    -0.470 N  
HETATM    2  H1  UNL     1     -14.212  11.350  73.057  1.00  0.00     0.000 HD 
HETATM    3  H2  UNL     1     -13.689  12.876  72.342  1.00  0.00     0.000 HD 
HETATM    4  C   UNL     1     -12.861  11.193  71.500  1.00  0.00    -0.437 C  
HETATM    5  O   UNL     1     -12.185  11.804  70.671  1.00  0.00    -0.371 OA 
ENDROOT
BRANCH   4   6
HETATM    6  C   UNL     1     -12.866   9.715  71.589  1.00  0.00    -0.499 C  
HETATM    7  C   UNL     1     -11.666   9.119  71.718  1.00  0.00    -0.386 C  
HETATM    8  N   UNL     1     -11.499   7.746  71.878  1.00  0.00    -0.263 NA 
HETATM    9  C   UNL     1     -14.136   8.910  71.614  1.00  0.00    -0.395 C  
HETATM   10  C   UNL     1     -12.636   6.940  71.745  1.00  0.00    -0.344 C  
HETATM   11  C   UNL     1     -13.880   7.423  71.619  1.00  0.00    -0.490 C  
BRANCH   8  12
HETATM   12  C   UNL     1     -10.244   7.108  72.331  1.00  0.00    -0.189 C  
HETATM   13  O   UNL     1      -9.127   7.805  71.736  1.00  0.00    -0.130 OA 
HETATM   14  C   UNL     1      -8.833   7.164  70.474  1.00  0.00    -0.154 C  
HETATM   15  H   UNL     1      -8.847   4.128  72.609  1.00  0.00     0.000 HD 
HETATM   16  C   UNL     1      -9.366   5.737  70.557  1.00  0.00    -0.162 C  
HETATM   17  H   UNL     1      -8.634   3.903  70.436  1.00  0.00     0.000 HD 
HETATM   18  C   UNL     1      -9.978   5.642  71.951  1.00  0.00    -0.180 C  
HETATM   19  O   UNL     1      -8.302   4.792  70.385  1.00  0.00    -0.084 OA 
HETATM   20  O   UNL     1      -9.012   5.034  72.844  1.00  0.00    -0.117 OA 
BRANCH  14  21
HETATM   21  C   UNL     1      -9.463   7.952  69.315  1.00  0.00    -0.152 C  
BRANCH  21  22
HETATM   22  O   UNL     1      -8.465   8.582  68.520  1.00  0.00    -0.129 OA 
BRANCH  22  23
HETATM   23  P   UNL     1      -8.101  10.106  68.829  1.00  0.00    -0.128 P  
HETATM   24  O   UNL     1      -7.548  10.413  70.181  1.00  0.00    -0.144 OA 
HETATM   25  O   UNL     1      -6.965  10.396  67.729  1.00  0.00    -0.080 OA 
BRANCH  23  26
HETATM   26  O   UNL     1      -9.302  10.997  68.319  1.00  0.00    -0.159 OA 
BRANCH  26  27
HETATM   27  P   UNL     1     -10.210  10.665  67.067  1.00  0.00    -0.241 P  
HETATM   28  O   UNL     1     -11.609  10.257  67.743  1.00  0.00    -0.331 OA 
HETATM   29  O   UNL     1      -9.765   9.580  66.147  1.00  0.00    -0.216 OA 
BRANCH  27  30
HETATM   30  O   UNL     1     -10.554  12.056  66.346  1.00  0.00    -0.230 OA 
BRANCH  30  31
HETATM   31  C   UNL     1     -11.872  12.593  66.387  1.00  0.00    -0.402 C  
BRANCH  31  32
HETATM   32  C   UNL     1     -11.920  14.102  66.169  1.00  0.00    -0.422 C  
HETATM   33  O   UNL     1     -11.079  14.796  67.112  1.00  0.00    -0.314 OA 
HETATM   34  C   UNL     1     -10.938  16.112  66.544  1.00  0.00    -0.047 C  
HETATM   35  H   UNL     1     -12.130  14.793  62.975  1.00  0.00     0.000 HD 
HETATM   36  C   UNL     1     -10.774  15.886  65.033  1.00  0.00    -0.404 C  
HETATM   37  C   UNL     1     -11.403  14.511  64.794  1.00  0.00    -0.396 C  
HETATM   38  H   UNL     1     -11.310  16.744  63.295  1.00  0.00     0.000 HD 
HETATM   39  O   UNL     1     -11.411  16.884  64.229  1.00  0.00    -1.202 OA 
HETATM   40  O   UNL     1     -12.451  14.539  63.831  1.00  0.00    -0.814 OA 
BRANCH  34  41
HETATM   41  N   UNL     1      -9.818  16.809  67.144  1.00  0.00    -0.252 NA 
HETATM   42  C   UNL     1      -8.767  16.276  67.836  1.00  0.00    -0.175 A  
HETATM   43  N   UNL     1      -7.901  17.201  68.203  1.00  0.00    -0.199 NA 
HETATM   44  C   UNL     1      -8.437  18.389  67.749  1.00  0.00    -0.259 A  
HETATM   45  C   UNL     1      -7.994  19.721  67.812  1.00  0.00    -0.299 A  
HETATM   46  N   UNL     1      -6.779  20.093  68.370  1.00  0.00    -0.301 NA 
HETATM   47  N   UNL     1      -8.791  20.690  67.304  1.00  0.00    -0.298 NA 
HETATM   48  H1  UNL     1      -6.458  21.060  68.415  1.00  0.00     0.000 HD 
HETATM   49  C   UNL     1      -9.953  20.327  66.720  1.00  0.00    -0.450 A  
HETATM   50  H2  UNL     1      -6.051  19.552  67.901  1.00  0.00     0.000 HD 
HETATM   51  N   UNL     1     -10.460  19.084  66.552  1.00  0.00    -0.422 NA 
HETATM   52  C   UNL     1      -9.646  18.168  67.110  1.00  0.00    -0.277 A  
ENDBRANCH  34  41
ENDBRANCH  31  32
ENDBRANCH  30  31
ENDBRANCH  27  30
ENDBRANCH  26  27
ENDBRANCH  23  26
ENDBRANCH  22  23
ENDBRANCH  21  22
ENDBRANCH  14  21
ENDBRANCH   8  12
ENDBRANCH   4   6
TORSDOF 11
ENDMDL
MODEL       10
REMARK 921   NORMALIZED FREE ENERGY PREDICTED BY IDOCK:   -7.80 KCAL/MOL
REMARK 922        TOTAL FREE ENERGY PREDICTED BY IDOCK:  -15.02 KCAL/MOL
REMARK 923 INTER-LIGAND FREE ENERGY PREDICTED BY IDOCK:  -12.46 KCAL/MOL
REMARK 924 INTRA-LIGAND FREE ENERGY PREDICTED BY IDOCK:   -2.56 KCAL/MOL
REMARK 927      BINDING AFFINITY PREDICTED BY RF-SCORE:    0.00 PKD
ROOT
HETATM    1  N   UNL     1     -10.470  20.653  66.069  1.00  0.00    -0.115 N  
HETATM    2  H1  UNL     1      -9.964  21.219  66.751  1.00  0.00     0.000 HD 
HETATM    3  H2  UNL     1     -11.147  21.097  65.450  1.00  0.00     0.000 HD 
HETATM    4  C   UNL     1     -10.252  19.323  65.978  1.00  0.00    -0.435 C  
HETATM    5  O   UNL     1     -10.862  18.640  65.155  1.00  0.00    -0.551 OA 
ENDROOT
BRANCH   4   6
HETATM    6  C   UNL     1      -9.265  18.744  66.917  1.00  0.00    -0.316 C  
HETATM    7  C   UNL     1      -8.915  17.462  66.703  1.00  0.00    -0.252 C  
HETATM    8  N   UNL     1      -7.955  16.788  67.454  1.00  0.00    -0.165 NA 
HETATM    9  C   UNL     1      -8.618  19.550  68.010  1.00  0.00    -0.365 C  
HETATM   10  C   UNL     1      -7.444  17.442  68.581  1.00  0.00    -0.263 C  
HETATM   11  C   UNL     1      -7.718  18.718  68.889  1.00  0.00    -0.298 C  
BRANCH   8  12
HETATM   12  C   UNL     1      -7.332  15.508  67.051  1.00  0.00    -0.137 C  
HETATM   13  O   UNL     1      -8.363  14.628  66.548  1.00  0.00    -0.043 OA 
HETATM   14  C   UNL     1      -8.873  13.867  67.667  1.00  0.00    -0.191 C  
HETATM   15  H   UNL     1      -5.258  13.205  68.192  1.00  0.00     0.000 HD 
HETATM   16  C   UNL     1      -7.782  13.844  68.733  1.00  0.00    -0.096 C  
HETATM   17  H   UNL     1      -6.702  12.483  69.679  1.00  0.00     0.000 HD 
HETATM   18  C   UNL     1      -6.640  14.651  68.123  1.00  0.00    -0.134 C  
HETATM   19  O   UNL     1      -7.382  12.497  69.015  1.00  0.00    -0.065 OA 
HETATM   20  O   UNL     1      -5.687  13.734  67.529  1.00  0.00    -0.334 OA 
BRANCH  14  21
HETATM   21  C   UNL     1     -10.179  14.490  68.186  1.00  0.00    -0.230 C  
BRANCH  21  22
HETATM   22  O   UNL     1     -11.070  14.780  67.116  1.00  0.00    -0.314 OA 
BRANCH  22  23
HETATM   23  P   UNL     1     -11.770  13.560  66.360  1.00  0.00    -0.413 P  
HETATM   24  O   UNL     1     -12.265  12.432  67.202  1.00  0.00    -0.492 OA 
HETATM   25  O   UNL     1     -13.031  14.285  65.674  1.00  0.00    -0.535 OA 
BRANCH  23  26
HETATM   26  O   UNL     1     -10.871  13.193  65.113  1.00  0.00    -0.288 OA 
BRANCH  26  27
HETATM   27  P   UNL     1     -11.209  12.074  64.048  1.00  0.00    -0.461 P  
HETATM   28  O   UNL     1      -9.905  12.074  63.108  1.00  0.00    -0.381 OA 
HETATM   29  O   UNL     1     -12.428  12.252  63.209  1.00  0.00    -0.579 OA 
BRANCH  27  30
HETATM   30  O   UNL     1     -11.111  10.658  64.795  1.00  0.00     0.109 OA 
BRANCH  30  31
HETATM   31  C   UNL     1      -9.848  10.058  65.061  1.00  0.00    -0.304 C  
BRANCH  31  32
HETATM   32  C   UNL     1      -9.371  10.255  66.496  1.00  0.00    -0.166 C  
HETATM   33  O   UNL     1     -10.456  10.111  67.434  1.00  0.00    -0.221 OA 
HETATM   34  C   UNL     1      -9.796   9.942  68.703  1.00  0.00    -0.158 C  
HETATM   35  H   UNL     1      -6.370   9.003  66.889  1.00  0.00     0.000 HD 
HETATM   36  C   UNL     1      -8.593   9.028  68.414  1.00  0.00    -0.130 C  
HETATM   37  C   UNL     1      -8.338   9.215  66.916  1.00  0.00    -0.119 C  
HETATM   38  H   UNL     1      -6.683   8.793  68.996  1.00  0.00     0.000 HD 
HETATM   39  O   UNL     1      -7.426   9.357  69.174  1.00  0.00    -0.070 OA 
HETATM   40  O   UNL     1      -7.014   9.650  66.628  1.00  0.00    -0.083 OA 
BRANCH  34  41
HETATM   41  N   UNL     1     -10.709   9.393  69.685  1.00  0.00    -0.230 NA 
HETATM   42  C   UNL     1     -10.835   8.093  70.084  1.00  0.00    -0.241 A  
HETATM   43  N   UNL     1     -11.740   7.956  71.034  1.00  0.00    -0.284 NA 
HETATM   44  C   UNL     1     -12.240   9.227  71.234  1.00  0.00    -0.334 A  
HETATM   45  C   UNL     1     -13.209   9.744  72.109  1.00  0.00    -0.436 A  
HETATM   46  N   UNL     1     -13.867   8.973  73.056  1.00  0.00    -1.108 NA 
HETATM   47  N   UNL     1     -13.519  11.059  72.024  1.00  0.00    -0.304 NA 
HETATM   48  H1  UNL     1     -14.570   9.349  73.692  1.00  0.00     0.000 HD 
HETATM   49  C   UNL     1     -12.848  11.822  71.134  1.00  0.00    -0.267 A  
HETATM   50  H2  UNL     1     -13.153   8.519  73.628  1.00  0.00     0.000 HD 
HETATM   51  N   UNL     1     -11.865  11.453  70.281  1.00  0.00    -0.346 NA 
HETATM   52  C   UNL     1     -11.629  10.132  70.381  1.00  0.00    -0.316 A  
ENDBRANCH  34  41
ENDBRANCH  31  32
ENDBRANCH  30  31
ENDBRANCH  27  30
ENDBRANCH  26  27
ENDBRANCH  23  26
ENDBRANCH  22  23
ENDBRANCH  21  22
ENDBRANCH  14  21
ENDBRANCH   8  12
ENDBRANCH   4   6
TORSDOF 11
ENDMDL
MODEL       11
REMARK 921   NORMALIZED FREE ENERGY PREDICTED BY IDOCK:   -7.80 KCAL/MOL
REMARK 922        TOTAL FREE ENERGY PREDICTED BY IDOCK:  -15.01 KCAL/MOL
REMARK 923 INTER-LIGAND FREE ENERGY PREDICTED BY IDOCK:  -13.15 KCAL/MOL
REMARK 924 INTRA-LIGAND FREE ENERGY PREDICTED BY IDOCK:   -1.86 KCAL/MOL
REMARK 927      BINDING AFFINITY PREDICTED BY RF-SCORE:    0.00 PKD
ROOT
HETATM    1  N   UNL     1     -12.582   9.183  72.388  1.00  0.00    -0.349 N  
HETATM    2  H1  UNL     1     -11.606   9.314  72.655  1.00  0.00     0.000 HD 
HETATM    3  H2  UNL     1     -13.253   9.934  72.548  1.00  0.00     0.000 HD 
HETATM    4  C   UNL     1     -12.996   8.027  71.824  1.00  0.00    -0.331 C  
HETATM    5  O   UNL     1     -14.173   7.870  71.502  1.00  0.00    -0.412 OA 
ENDROOT
BRANCH   4   6
HETATM    6  C   UNL     1     -11.970   6.976  71.633  1.00  0.00    -0.365 C  
HETATM    7  C   UNL     1     -11.748   6.579  70.367  1.00  0.00    -0.375 C  
HETATM    8  N   UNL     1     -10.777   5.647  70.009  1.00  0.00    -0.323 NA 
HETATM    9  C   UNL     1     -11.156   6.424  72.771  1.00  0.00    -0.281 C  
HETATM   10  C   UNL     1     -10.106   4.987  71.044  1.00  0.00    -0.227 C  
HETATM   11  C   UNL     1     -10.244   5.302  72.341  1.00  0.00    -0.243 C  
BRANCH   8  12
HETATM   12  C   UNL     1     -10.303   5.431  68.624  1.00  0.00    -0.158 C  
HETATM   13  O   UNL     1      -8.936   5.889  68.525  1.00  0.00    -0.114 OA 
HETATM   14  C   UNL     1      -8.968   7.284  68.148  1.00  0.00    -0.132 C  
HETATM   15  H   UNL     1     -11.213   5.977  65.497  1.00  0.00     0.000 HD 
HETATM   16  C   UNL     1     -10.302   7.534  67.450  1.00  0.00    -0.276 C  
HETATM   17  H   UNL     1     -10.921   8.145  65.674  1.00  0.00     0.000 HD 
HETATM   18  C   UNL     1     -11.002   6.178  67.477  1.00  0.00    -0.307 C  
HETATM   19  O   UNL     1     -10.090   7.990  66.108  1.00  0.00    -0.083 OA 
HETATM   20  O   UNL     1     -10.782   5.515  66.206  1.00  0.00    -0.245 OA 
BRANCH  14  21
HETATM   21  C   UNL     1      -8.784   8.177  69.385  1.00  0.00    -0.143 C  
BRANCH  21  22
HETATM   22  O   UNL     1      -9.555   9.367  69.279  1.00  0.00    -0.161 OA 
BRANCH  22  23
HETATM   23  P   UNL     1      -8.801  10.729  68.921  1.00  0.00    -0.077 P  
HETATM   24  O   UNL     1      -7.564  11.045  69.693  1.00  0.00    -0.064 OA 
HETATM   25  O   UNL     1      -8.402  10.483  67.383  1.00  0.00    -0.121 OA 
BRANCH  23  26
HETATM   26  O   UNL     1      -9.895  11.864  68.809  1.00  0.00    -0.169 OA 
BRANCH  26  27
HETATM   27  P   UNL     1     -11.450  11.648  68.994  1.00  0.00    -0.351 P  
HETATM   28  O   UNL     1     -11.917  13.016  69.697  1.00  0.00    -0.315 OA 
HETATM   29  O   UNL     1     -11.903  10.487  69.813  1.00  0.00    -0.265 OA 
BRANCH  27  30
HETATM   30  O   UNL     1     -12.122  11.745  67.541  1.00  0.00    -0.599 OA 
BRANCH  30  31
HETATM   31  C   UNL     1     -11.381  12.228  66.425  1.00  0.00    -0.354 C  
BRANCH  31  32
HETATM   32  C   UNL     1     -11.615  13.707  66.134  1.00  0.00    -0.347 C  
HETATM   33  O   UNL     1     -10.641  14.534  66.799  1.00  0.00    -0.271 OA 
HETATM   34  C   UNL     1     -10.757  15.806  66.135  1.00  0.00    -0.290 C  
HETATM   35  H   UNL     1     -12.638  14.119  63.050  1.00  0.00     0.000 HD 
HETATM   36  C   UNL     1     -10.937  15.470  64.645  1.00  0.00    -0.322 C  
HETATM   37  C   UNL     1     -11.479  14.039  64.652  1.00  0.00    -0.383 C  
HETATM   38  H   UNL     1     -11.944  16.144  63.041  1.00  0.00     0.000 HD 
HETATM   39  O   UNL     1     -11.833  16.351  63.962  1.00  0.00    -1.003 OA 
HETATM   40  O   UNL     1     -12.723  13.912  63.973  1.00  0.00    -0.665 OA 
BRANCH  34  41
HETATM   41  N   UNL     1      -9.594  16.629  66.400  1.00  0.00    -0.269 NA 
HETATM   42  C   UNL     1      -8.278  16.264  66.362  1.00  0.00    -0.319 A  
HETATM   43  N   UNL     1      -7.478  17.282  66.615  1.00  0.00    -0.224 NA 
HETATM   44  C   UNL     1      -8.324  18.346  66.855  1.00  0.00    -0.253 A  
HETATM   45  C   UNL     1      -8.093  19.697  67.166  1.00  0.00    -0.282 A  
HETATM   46  N   UNL     1      -6.825  20.252  67.248  1.00  0.00    -0.230 NA 
HETATM   47  N   UNL     1      -9.160  20.497  67.398  1.00  0.00    -0.364 NA 
HETATM   48  H1  UNL     1      -6.657  21.233  67.473  1.00  0.00     0.000 HD 
HETATM   49  C   UNL     1     -10.398  19.970  67.275  1.00  0.00    -0.410 A  
HETATM   50  H2  UNL     1      -6.350  20.058  66.365  1.00  0.00     0.000 HD 
HETATM   51  N   UNL     1     -10.747  18.708  66.932  1.00  0.00    -0.370 NA 
HETATM   52  C   UNL     1      -9.648  17.952  66.753  1.00  0.00    -0.305 A  
ENDBRANCH  34  41
ENDBRANCH  31  32
ENDBRANCH  30  31
ENDBRANCH  27  30
ENDBRANCH  26  27
ENDBRANCH  23  26
ENDBRANCH  22  23
ENDBRANCH  21  22
ENDBRANCH  14  21
ENDBRANCH   8  12
ENDBRANCH   4   6
TORSDOF 11
ENDMDL
MODEL       12
REMARK 921   NORMALIZED FREE ENERGY PREDICTED BY IDOCK:   -7.66 KCAL/MOL
REMARK 922        TOTAL FREE ENERGY PREDICTED BY IDOCK:  -14.79 KCAL/MOL
REMARK 923 INTER-LIGAND FREE ENERGY PREDICTED BY IDOCK:  -12.95 KCAL/MOL
REMARK 924 INTRA-LIGAND FREE ENERGY PREDICTED BY IDOCK:   -1.84 KCAL/MOL
REMARK 927      BINDING AFFINITY PREDICTED BY RF-SCORE:    0.00 PKD
ROOT
HETATM    1  N   UNL     1     -14.089   7.293  71.810  1.00  0.00    -0.537 N  
HETATM    2  H1  UNL     1     -13.499   6.678  71.249  1.00  0.00     0.000 HD 
HETATM    3  H2  UNL     1     -15.009   6.973  72.111  1.00  0.00     0.000 HD 
HETATM    4  C   UNL     1     -13.664   8.528  72.157  1.00  0.00    -0.374 C  
HETATM    5  O   UNL     1     -14.376   9.271  72.834  1.00  0.00    -0.461 OA 
ENDROOT
BRANCH   4   6
HETATM    6  C   UNL     1     -12.324   8.932  71.674  1.00  0.00    -0.405 C  
HETATM    7  C   UNL     1     -11.276   8.264  72.189  1.00  0.00    -0.345 C  
HETATM    8  N   UNL     1      -9.957   8.476  71.797  1.00  0.00    -0.246 NA 
HETATM    9  C   UNL     1     -12.129   9.975  70.608  1.00  0.00    -0.381 C  
HETATM   10  C   UNL     1      -9.708   9.545  70.929  1.00  0.00    -0.172 C  
HETATM   11  C   UNL     1     -10.673  10.275  70.350  1.00  0.00    -0.270 C  
BRANCH   8  12
HETATM   12  C   UNL     1      -8.839   7.557  72.106  1.00  0.00    -0.125 C  
HETATM   13  O   UNL     1      -8.027   7.399  70.921  1.00  0.00    -0.095 OA 
HETATM   14  C   UNL     1      -8.556   6.281  70.174  1.00  0.00    -0.134 C  
HETATM   15  H   UNL     1      -8.261   4.608  73.475  1.00  0.00     0.000 HD 
HETATM   16  C   UNL     1      -9.309   5.392  71.161  1.00  0.00    -0.150 C  
HETATM   17  H   UNL     1      -9.202   3.528  71.812  1.00  0.00     0.000 HD 
HETATM   18  C   UNL     1      -9.161   6.107  72.501  1.00  0.00    -0.138 C  
HETATM   19  O   UNL     1      -8.733   4.081  71.198  1.00  0.00    -0.082 OA 
HETATM   20  O   UNL     1      -8.062   5.505  73.231  1.00  0.00    -0.113 OA 
BRANCH  14  21
HETATM   21  C   UNL     1      -9.459   6.778  69.035  1.00  0.00    -0.133 C  
BRANCH  21  22
HETATM   22  O   UNL     1      -8.826   7.812  68.291  1.00  0.00    -0.130 OA 
BRANCH  22  23
HETATM   23  P   UNL     1      -9.438   8.208  66.870  1.00  0.00    -0.226 P  
HETATM   24  O   UNL     1      -8.514   8.185  65.699  1.00  0.00    -0.141 OA 
HETATM   25  O   UNL     1     -10.554   7.067  66.670  1.00  0.00    -0.239 OA 
BRANCH  23  26
HETATM   26  O   UNL     1     -10.316   9.506  67.075  1.00  0.00    -0.238 OA 
BRANCH  26  27
HETATM   27  P   UNL     1     -10.017  10.916  66.424  1.00  0.00    -0.236 P  
HETATM   28  O   UNL     1     -10.411  10.685  64.883  1.00  0.00    -0.312 OA 
HETATM   29  O   UNL     1      -8.627  11.446  66.509  1.00  0.00    -0.169 OA 
BRANCH  27  30
HETATM   30  O   UNL     1     -11.152  11.928  66.935  1.00  0.00    -0.272 OA 
BRANCH  30  31
HETATM   31  C   UNL     1     -12.122  12.452  66.034  1.00  0.00    -0.254 C  
BRANCH  31  32
HETATM   32  C   UNL     1     -12.112  13.975  65.951  1.00  0.00    -0.428 C  
HETATM   33  O   UNL     1     -11.322  14.554  67.007  1.00  0.00    -0.325 OA 
HETATM   34  C   UNL     1     -11.103  15.910  66.572  1.00  0.00    -0.028 C  
HETATM   35  H   UNL     1     -12.074  14.952  62.825  1.00  0.00     0.000 HD 
HETATM   36  C   UNL     1     -10.838  15.812  65.061  1.00  0.00    -0.443 C  
HETATM   37  C   UNL     1     -11.488  14.486  64.657  1.00  0.00    -0.387 C  
HETATM   38  H   UNL     1     -11.225  16.838  63.376  1.00  0.00     0.000 HD 
HETATM   39  O   UNL     1     -11.388  16.898  64.309  1.00  0.00    -1.202 OA 
HETATM   40  O   UNL     1     -12.463  14.634  63.631  1.00  0.00    -0.754 OA 
BRANCH  34  41
HETATM   41  N   UNL     1     -10.010  16.512  67.308  1.00  0.00    -0.258 NA 
HETATM   42  C   UNL     1      -8.980  15.885  67.950  1.00  0.00    -0.181 A  
HETATM   43  N   UNL     1      -8.134  16.747  68.480  1.00  0.00    -0.229 NA 
HETATM   44  C   UNL     1      -8.663  17.988  68.189  1.00  0.00    -0.272 A  
HETATM   45  C   UNL     1      -8.232  19.297  68.464  1.00  0.00    -0.366 A  
HETATM   46  N   UNL     1      -7.041  19.585  69.113  1.00  0.00    -0.356 NA 
HETATM   47  N   UNL     1      -9.019  20.329  68.078  1.00  0.00    -0.178 NA 
HETATM   48  H1  UNL     1      -6.728  20.535  69.313  1.00  0.00     0.000 HD 
HETATM   49  C   UNL     1     -10.157  20.054  67.405  1.00  0.00    -0.428 A  
HETATM   50  H2  UNL     1      -6.293  19.121  68.596  1.00  0.00     0.000 HD 
HETATM   51  N   UNL     1     -10.648  18.848  67.038  1.00  0.00    -0.429 NA 
HETATM   52  C   UNL     1      -9.848  17.862  67.482  1.00  0.00    -0.309 A  
ENDBRANCH  34  41
ENDBRANCH  31  32
ENDBRANCH  30  31
ENDBRANCH  27  30
ENDBRANCH  26  27
ENDBRANCH  23  26
ENDBRANCH  22  23
ENDBRANCH  21  22
ENDBRANCH  14  21
ENDBRANCH   8  12
ENDBRANCH   4   6
TORSDOF 11
ENDMDL
MODEL       13
REMARK 921   NORMALIZED FREE ENERGY PREDICTED BY IDOCK:   -7.66 KCAL/MOL
REMARK 922        TOTAL FREE ENERGY PREDICTED BY IDOCK:  -14.78 KCAL/MOL
REMARK 923 INTER-LIGAND FREE ENERGY PREDICTED BY IDOCK:  -13.25 KCAL/MOL
REMARK 924 INTRA-LIGAND FREE ENERGY PREDICTED BY IDOCK:   -1.54 KCAL/MOL
REMARK 927      BINDING AFFINITY PREDICTED BY RF-SCORE:    0.00 PKD
ROOT
HETATM    1  N   UNL     1     -14.110   6.706  71.712  1.00  0.00    -0.267 N  
HETATM    2  H1  UNL     1     -13.521   6.035  71.220  1.00  0.00     0.000 HD 
HETATM    3  H2  UNL     1     -15.039   6.427  72.026  1.00  0.00     0.000 HD 
HETATM    4  C   UNL     1     -13.672   7.962  71.954  1.00  0.00    -0.300 C  
HETATM    5  O   UNL     1     -14.383   8.772  72.549  1.00  0.00    -0.562 OA 
ENDROOT
BRANCH   4   6
HETATM    6  C   UNL     1     -12.319   8.302  71.459  1.00  0.00    -0.336 C  
HETATM    7  C   UNL     1     -11.561   7.274  71.035  1.00  0.00    -0.299 C  
HETATM    8  N   UNL     1     -10.292   7.427  70.482  1.00  0.00    -0.212 NA 
HETATM    9  C   UNL     1     -11.828   9.720  71.355  1.00  0.00    -0.488 C  
HETATM   10  C   UNL     1      -9.727   8.707  70.514  1.00  0.00    -0.180 C  
HETATM   11  C   UNL     1     -10.389   9.804  70.909  1.00  0.00    -0.245 C  
BRANCH   8  12
HETATM   12  C   UNL     1      -9.580   6.370  69.730  1.00  0.00    -0.151 C  
HETATM   13  O   UNL     1      -8.793   6.992  68.690  1.00  0.00    -0.129 OA 
HETATM   14  C   UNL     1      -9.621   7.080  67.508  1.00  0.00    -0.130 C  
HETATM   15  H   UNL     1     -10.139   3.477  68.238  1.00  0.00     0.000 HD 
HETATM   16  C   UNL     1     -10.697   6.004  67.628  1.00  0.00    -0.296 C  
HETATM   17  H   UNL     1     -11.279   4.411  66.612  1.00  0.00     0.000 HD 
HETATM   18  C   UNL     1     -10.404   5.324  68.963  1.00  0.00    -0.176 C  
HETATM   19  O   UNL     1     -10.609   5.080  66.537  1.00  0.00    -0.291 OA 
HETATM   20  O   UNL     1      -9.630   4.124  68.713  1.00  0.00    -0.162 OA 
BRANCH  14  21
HETATM   21  C   UNL     1     -10.220   8.489  67.380  1.00  0.00    -0.261 C  
BRANCH  21  22
HETATM   22  O   UNL     1     -10.133   8.965  66.043  1.00  0.00    -0.260 OA 
BRANCH  22  23
HETATM   23  P   UNL     1      -9.934  10.532  65.807  1.00  0.00    -0.260 P  
HETATM   24  O   UNL     1      -9.867  11.400  67.019  1.00  0.00    -0.188 OA 
HETATM   25  O   UNL     1      -8.507  10.568  65.066  1.00  0.00    -0.173 OA 
BRANCH  23  26
HETATM   26  O   UNL     1     -10.923  10.970  64.656  1.00  0.00    -0.243 OA 
BRANCH  26  27
HETATM   27  P   UNL     1     -11.463  12.440  64.434  1.00  0.00    -0.403 P  
HETATM   28  O   UNL     1     -12.510  12.255  63.228  1.00  0.00    -0.579 OA 
HETATM   29  O   UNL     1     -10.478  13.502  64.080  1.00  0.00    -0.358 OA 
BRANCH  27  30
HETATM   30  O   UNL     1     -12.411  12.794  65.679  1.00  0.00    -0.525 OA 
BRANCH  30  31
HETATM   31  C   UNL     1     -12.495  14.124  66.177  1.00  0.00    -0.395 C  
BRANCH  31  32
HETATM   32  C   UNL     1     -11.396  14.470  67.177  1.00  0.00    -0.350 C  
HETATM   33  O   UNL     1     -10.718  15.688  66.812  1.00  0.00    -0.308 OA 
HETATM   34  C   UNL     1     -10.013  16.063  68.010  1.00  0.00    -0.229 C  
HETATM   35  H   UNL     1     -12.319  13.671  70.216  1.00  0.00     0.000 HD 
HETATM   36  C   UNL     1     -10.986  15.764  69.163  1.00  0.00    -0.265 C  
HETATM   37  C   UNL     1     -11.939  14.718  68.580  1.00  0.00    -0.248 C  
HETATM   38  H   UNL     1     -10.946  15.083  71.054  1.00  0.00     0.000 HD 
HETATM   39  O   UNL     1     -10.345  15.268  70.342  1.00  0.00    -0.228 OA 
HETATM   40  O   UNL     1     -11.980  13.517  69.342  1.00  0.00    -0.311 OA 
BRANCH  34  41
HETATM   41  N   UNL     1      -9.606  17.452  67.950  1.00  0.00    -0.261 NA 
HETATM   42  C   UNL     1     -10.134  18.515  68.626  1.00  0.00    -0.369 A  
HETATM   43  N   UNL     1      -9.487  19.634  68.365  1.00  0.00    -0.366 NA 
HETATM   44  C   UNL     1      -8.514  19.277  67.454  1.00  0.00    -0.288 A  
HETATM   45  C   UNL     1      -7.503  20.005  66.805  1.00  0.00    -0.256 A  
HETATM   46  N   UNL     1      -7.267  21.352  67.035  1.00  0.00    -0.844 NA 
HETATM   47  N   UNL     1      -6.720  19.361  65.907  1.00  0.00    -0.231 NA 
HETATM   48  H1  UNL     1      -6.533  21.880  66.563  1.00  0.00     0.000 HD 
HETATM   49  C   UNL     1      -6.917  18.039  65.713  1.00  0.00    -0.231 A  
HETATM   50  H2  UNL     1      -7.127  21.468  68.039  1.00  0.00     0.000 HD 
HETATM   51  N   UNL     1      -7.815  17.224  66.313  1.00  0.00    -0.354 NA 
HETATM   52  C   UNL     1      -8.589  17.925  67.162  1.00  0.00    -0.235 A  
ENDBRANCH  34  41
ENDBRANCH  31  32
ENDBRANCH  30  31
ENDBRANCH  27  30
ENDBRANCH  26  27
ENDBRANCH  23  26
ENDBRANCH  22  23
ENDBRANCH  21  22
ENDBRANCH  14  21
ENDBRANCH   8  12
ENDBRANCH   4   6
TORSDOF 11
ENDMDL
MODEL       14
REMARK 921   NORMALIZED FREE ENERGY PREDICTED BY IDOCK:   -7.64 KCAL/MOL
REMARK 922        TOTAL FREE ENERGY PREDICTED BY IDOCK:  -14.76 KCAL/MOL
REMARK 923 INTER-LIGAND FREE ENERGY PREDICTED BY IDOCK:  -11.47 KCAL/MOL
REMARK 924 INTRA-LIGAND FREE ENERGY PREDICTED BY IDOCK:   -3.29 KCAL/MOL
REMARK 927      BINDING AFFINITY PREDICTED BY RF-SCORE:    0.00 PKD
ROOT
HETATM    1  N   UNL     1     -12.424  15.078  63.843  1.00  0.00    -1.043 N  
HETATM    2  H1  UNL     1     -11.637  15.129  63.195  1.00  0.00     0.000 HD 
HETATM    3  H2  UNL     1     -13.137  15.807  63.829  1.00  0.00     0.000 HD 
HETATM    4  C   UNL     1     -12.531  14.055  64.720  1.00  0.00    -0.365 C  
HETATM    5  O   UNL     1     -13.480  13.993  65.501  1.00  0.00    -0.677 OA 
ENDROOT
BRANCH   4   6
HETATM    6  C   UNL     1     -11.453  13.041  64.694  1.00  0.00    -0.374 C  
HETATM    7  C   UNL     1     -10.680  12.962  65.793  1.00  0.00    -0.273 C  
HETATM    8  N   UNL     1      -9.664  12.023  65.956  1.00  0.00    -0.237 NA 
HETATM    9  C   UNL     1     -11.264  12.089  63.545  1.00  0.00    -0.526 C  
HETATM   10  C   UNL     1      -9.343  11.223  64.853  1.00  0.00    -0.159 C  
HETATM   11  C   UNL     1     -10.046  11.214  63.711  1.00  0.00    -0.416 C  
BRANCH   8  12
HETATM   12  C   UNL     1      -9.021  11.710  67.252  1.00  0.00    -0.169 C  
HETATM   13  O   UNL     1      -9.218  12.827  68.149  1.00  0.00    -0.204 OA 
HETATM   14  C   UNL     1      -8.104  13.731  67.972  1.00  0.00    -0.163 C  
HETATM   15  H   UNL     1      -6.163  10.608  68.485  1.00  0.00     0.000 HD 
HETATM   16  C   UNL     1      -6.942  12.914  67.414  1.00  0.00    -0.124 C  
HETATM   17  H   UNL     1      -5.097  12.452  67.957  1.00  0.00     0.000 HD 
HETATM   18  C   UNL     1      -7.499  11.499  67.291  1.00  0.00    -0.139 C  
HETATM   19  O   UNL     1      -5.820  12.961  68.305  1.00  0.00    -0.066 OA 
HETATM   20  O   UNL     1      -7.104  10.739  68.461  1.00  0.00    -0.065 OA 
BRANCH  14  21
HETATM   21  C   UNL     1      -8.498  14.889  67.043  1.00  0.00    -0.231 C  
BRANCH  21  22
HETATM   22  O   UNL     1      -8.898  16.033  67.788  1.00  0.00    -0.175 OA 
BRANCH  22  23
HETATM   23  P   UNL     1     -10.345  16.648  67.512  1.00  0.00    -0.289 P  
HETATM   24  O   UNL     1     -10.558  18.079  67.878  1.00  0.00    -0.394 OA 
HETATM   25  O   UNL     1     -10.460  16.501  65.915  1.00  0.00    -0.337 OA 
BRANCH  23  26
HETATM   26  O   UNL     1     -11.414  15.603  68.026  1.00  0.00    -0.345 OA 
BRANCH  26  27
HETATM   27  P   UNL     1     -11.582  15.141  69.529  1.00  0.00    -0.367 P  
HETATM   28  O   UNL     1     -12.908  15.921  69.993  1.00  0.00    -0.217 OA 
HETATM   29  O   UNL     1     -10.473  15.433  70.480  1.00  0.00    -0.280 OA 
BRANCH  27  30
HETATM   30  O   UNL     1     -12.059  13.609  69.506  1.00  0.00    -0.318 OA 
BRANCH  30  31
HETATM   31  C   UNL     1     -12.324  12.910  70.717  1.00  0.00    -0.299 C  
BRANCH  31  32
HETATM   32  C   UNL     1     -12.452  11.401  70.532  1.00  0.00    -0.293 C  
HETATM   33  O   UNL     1     -11.298  10.854  69.864  1.00  0.00    -0.268 OA 
HETATM   34  C   UNL     1     -11.395   9.438  70.110  1.00  0.00    -0.185 C  
HETATM   35  H   UNL     1     -13.942  10.051  73.117  1.00  0.00     0.000 HD 
HETATM   36  C   UNL     1     -11.862   9.312  71.569  1.00  0.00    -0.374 C  
HETATM   37  C   UNL     1     -12.538  10.654  71.859  1.00  0.00    -0.207 C  
HETATM   38  H   UNL     1     -13.056   8.149  72.693  1.00  0.00     0.000 HD 
HETATM   39  O   UNL     1     -12.767   8.227  71.792  1.00  0.00    -0.314 OA 
HETATM   40  O   UNL     1     -13.887  10.515  72.291  1.00  0.00    -0.070 OA 
BRANCH  34  41
HETATM   41  N   UNL     1     -10.126   8.787  69.856  1.00  0.00    -0.186 NA 
HETATM   42  C   UNL     1      -9.130   8.505  70.748  1.00  0.00    -0.165 A  
HETATM   43  N   UNL     1      -8.129   7.863  70.179  1.00  0.00    -0.114 NA 
HETATM   44  C   UNL     1      -8.486   7.752  68.851  1.00  0.00    -0.129 A  
HETATM   45  C   UNL     1      -7.858   7.167  67.740  1.00  0.00    -0.114 A  
HETATM   46  N   UNL     1      -6.651   6.487  67.819  1.00  0.00    -0.059 NA 
HETATM   47  N   UNL     1      -8.457   7.272  66.530  1.00  0.00    -0.119 NA 
HETATM   48  H1  UNL     1      -6.195   6.061  67.012  1.00  0.00     0.000 HD 
HETATM   49  C   UNL     1      -9.653   7.894  66.456  1.00  0.00    -0.212 A  
HETATM   50  H2  UNL     1      -6.759   5.758  68.525  1.00  0.00     0.000 HD 
HETATM   51  N   UNL     1     -10.378   8.447  67.457  1.00  0.00    -0.248 NA 
HETATM   52  C   UNL     1      -9.716   8.348  68.624  1.00  0.00    -0.164 A  
ENDBRANCH  34  41
ENDBRANCH  31  32
ENDBRANCH  30  31
ENDBRANCH  27  30
ENDBRANCH  26  27
ENDBRANCH  23  26
ENDBRANCH  22  23
ENDBRANCH  21  22
ENDBRANCH  14  21
ENDBRANCH   8  12
ENDBRANCH   4   6
TORSDOF 11
ENDMDL
MODEL       15
REMARK 921   NORMALIZED FREE ENERGY PREDICTED BY IDOCK:   -7.63 KCAL/MOL
REMARK 922        TOTAL FREE ENERGY PREDICTED BY IDOCK:  -14.74 KCAL/MOL
REMARK 923 INTER-LIGAND FREE ENERGY PREDICTED BY IDOCK:  -11.94 KCAL/MOL
REMARK 924 INTRA-LIGAND FREE ENERGY PREDICTED BY IDOCK:   -2.80 KCAL/MOL
REMARK 927      BINDING AFFINITY PREDICTED BY RF-SCORE:    0.00 PKD
ROOT
HETATM    1  N   UNL     1     -13.428   9.806  70.696  1.00  0.00    -0.592 N  
HETATM    2  H1  UNL     1     -12.718   9.713  69.969  1.00  0.00     0.000 HD 
HETATM    3  H2  UNL     1     -14.138  10.535  70.617  1.00  0.00     0.000 HD 
HETATM    4  C   UNL     1     -13.440   8.976  71.762  1.00  0.00    -0.411 C  
HETATM    5  O   UNL     1     -14.296   9.089  72.639  1.00  0.00    -0.603 OA 
ENDROOT
BRANCH   4   6
HETATM    6  C   UNL     1     -12.373   7.951  71.818  1.00  0.00    -0.352 C  
HETATM    7  C   UNL     1     -11.119   8.402  72.006  1.00  0.00    -0.327 C  
HETATM    8  N   UNL     1     -10.011   7.570  72.145  1.00  0.00    -0.173 NA 
HETATM    9  C   UNL     1     -12.662   6.476  71.748  1.00  0.00    -0.186 C  
HETATM   10  C   UNL     1     -10.204   6.201  71.926  1.00  0.00    -0.200 C  
HETATM   11  C   UNL     1     -11.407   5.639  71.735  1.00  0.00    -0.181 C  
BRANCH   8  12
HETATM   12  C   UNL     1      -8.697   8.013  72.659  1.00  0.00    -0.191 C  
HETATM   13  O   UNL     1      -8.369   9.286  72.059  1.00  0.00    -0.238 OA 
HETATM   14  C   UNL     1      -7.645   9.020  70.837  1.00  0.00    -0.124 C  
HETATM   15  H   UNL     1      -5.622   6.897  73.113  1.00  0.00     0.000 HD 
HETATM   16  C   UNL     1      -7.018   7.635  70.974  1.00  0.00    -0.049 C  
HETATM   17  H   UNL     1      -5.202   6.853  70.960  1.00  0.00     0.000 HD 
HETATM   18  C   UNL     1      -7.456   7.158  72.356  1.00  0.00    -0.088 C  
HETATM   19  O   UNL     1      -5.591   7.716  70.874  1.00  0.00    -0.030 OA 
HETATM   20  O   UNL     1      -6.390   7.425  73.301  1.00  0.00    -0.062 OA 
BRANCH  14  21
HETATM   21  C   UNL     1      -8.586   9.114  69.626  1.00  0.00    -0.143 C  
BRANCH  21  22
HETATM   22  O   UNL     1      -8.800   7.835  69.041  1.00  0.00    -0.138 OA 
BRANCH  22  23
HETATM   23  P   UNL     1     -10.042   7.651  68.055  1.00  0.00    -0.203 P  
HETATM   24  O   UNL     1     -11.091   6.669  68.456  1.00  0.00    -0.256 OA 
HETATM   25  O   UNL     1     -10.683   9.126  68.064  1.00  0.00    -0.218 OA 
BRANCH  23  26
HETATM   26  O   UNL     1      -9.470   7.541  66.585  1.00  0.00    -0.174 OA 
BRANCH  26  27
HETATM   27  P   UNL     1      -8.699   8.691  65.822  1.00  0.00    -0.184 P  
HETATM   28  O   UNL     1      -8.120   7.933  64.529  1.00  0.00    -0.140 OA 
HETATM   29  O   UNL     1      -7.587   9.382  66.535  1.00  0.00    -0.093 OA 
BRANCH  27  30
HETATM   30  O   UNL     1      -9.804   9.672  65.196  1.00  0.00    -0.295 OA 
BRANCH  30  31
HETATM   31  C   UNL     1      -9.700  11.083  65.354  1.00  0.00    -0.232 C  
BRANCH  31  32
HETATM   32  C   UNL     1     -11.007  11.746  65.777  1.00  0.00    -0.301 C  
HETATM   33  O   UNL     1     -10.877  12.394  67.057  1.00  0.00    -0.235 OA 
HETATM   34  C   UNL     1     -12.024  13.262  67.124  1.00  0.00    -0.348 C  
HETATM   35  H   UNL     1     -12.545  13.013  63.178  1.00  0.00     0.000 HD 
HETATM   36  C   UNL     1     -12.167  13.852  65.712  1.00  0.00    -0.460 C  
HETATM   37  C   UNL     1     -11.444  12.844  64.814  1.00  0.00    -0.321 C  
HETATM   38  H   UNL     1     -13.613  14.389  64.422  1.00  0.00     0.000 HD 
HETATM   39  O   UNL     1     -13.524  14.024  65.294  1.00  0.00    -0.622 OA 
HETATM   40  O   UNL     1     -12.272  12.329  63.778  1.00  0.00    -0.466 OA 
BRANCH  34  41
HETATM   41  N   UNL     1     -11.845  14.268  68.150  1.00  0.00    -0.342 NA 
HETATM   42  C   UNL     1     -11.356  15.536  68.011  1.00  0.00    -0.330 A  
HETATM   43  N   UNL     1     -11.373  16.198  69.151  1.00  0.00    -0.331 NA 
HETATM   44  C   UNL     1     -11.871  15.301  70.075  1.00  0.00    -0.334 A  
HETATM   45  C   UNL     1     -12.142  15.398  71.449  1.00  0.00    -0.373 A  
HETATM   46  N   UNL     1     -11.972  16.567  72.177  1.00  0.00    -0.636 NA 
HETATM   47  N   UNL     1     -12.590  14.298  72.099  1.00  0.00    -0.300 NA 
HETATM   48  H1  UNL     1     -12.169  16.638  73.176  1.00  0.00     0.000 HD 
HETATM   49  C   UNL     1     -12.800  13.171  71.385  1.00  0.00    -0.311 A  
HETATM   50  H2  UNL     1     -12.510  17.298  71.709  1.00  0.00     0.000 HD 
HETATM   51  N   UNL     1     -12.628  12.970  70.058  1.00  0.00    -0.006 NA 
HETATM   52  C   UNL     1     -12.145  14.082  69.475  1.00  0.00    -0.347 A  
ENDBRANCH  34  41
ENDBRANCH  31  32
ENDBRANCH  30  31
ENDBRANCH  27  30
ENDBRANCH  26  27
ENDBRANCH  23  26
ENDBRANCH  22  23
ENDBRANCH  21  22
ENDBRANCH  14  21
ENDBRANCH   8  12
ENDBRANCH   4   6
TORSDOF 11
ENDMDL
MODEL       16
REMARK 921   NORMALIZED FREE ENERGY PREDICTED BY IDOCK:   -7.62 KCAL/MOL
REMARK 922        TOTAL FREE ENERGY PREDICTED BY IDOCK:  -14.72 KCAL/MOL
REMARK 923 INTER-LIGAND FREE ENERGY PREDICTED BY IDOCK:  -12.33 KCAL/MOL
REMARK 924 INTRA-LIGAND FREE ENERGY PREDICTED BY IDOCK:   -2.39 KCAL/MOL
REMARK 927      BINDING AFFINITY PREDICTED BY RF-SCORE:    0.00 PKD
ROOT
HETATM    1  N   UNL     1     -11.335   4.636  65.047  1.00  0.00    -0.911 N  
HETATM    2  H1  UNL     1     -11.965   5.025  65.750  1.00  0.00     0.000 HD 
HETATM    3  H2  UNL     1     -11.639   4.578  64.075  1.00  0.00     0.000 HD 
HETATM    4  C   UNL     1     -10.104   4.197  65.390  1.00  0.00    -0.197 C  
HETATM    5  O   UNL     1      -9.345   3.727  64.543  1.00  0.00    -0.133 OA 
ENDROOT
BRANCH   4   6
HETATM    6  C   UNL     1      -9.736   4.299  66.821  1.00  0.00    -0.241 C  
HETATM    7  C   UNL     1     -10.406   5.213  67.547  1.00  0.00    -0.128 C  
HETATM    8  N   UNL     1     -10.226   5.393  68.916  1.00  0.00    -0.197 NA 
HETATM    9  C   UNL     1      -8.727   3.388  67.464  1.00  0.00    -0.134 C  
HETATM   10  C   UNL     1      -9.186   4.684  69.527  1.00  0.00    -0.122 C  
HETATM   11  C   UNL     1      -8.457   3.746  68.904  1.00  0.00    -0.101 C  
BRANCH   8  12
HETATM   12  C   UNL     1     -11.154   6.152  69.784  1.00  0.00    -0.416 C  
HETATM   13  O   UNL     1     -11.407   7.440  69.178  1.00  0.00     0.082 OA 
HETATM   14  C   UNL     1     -10.410   8.361  69.674  1.00  0.00    -0.218 C  
HETATM   15  H   UNL     1     -11.559   7.027  72.942  1.00  0.00     0.000 HD 
HETATM   16  C   UNL     1      -9.912   7.813  71.009  1.00  0.00    -0.177 C  
HETATM   17  H   UNL     1      -9.854   8.408  72.894  1.00  0.00     0.000 HD 
HETATM   18  C   UNL     1     -10.702   6.522  71.206  1.00  0.00    -0.237 C  
HETATM   19  O   UNL     1     -10.164   8.750  72.063  1.00  0.00    -0.315 OA 
HETATM   20  O   UNL     1     -11.838   6.798  72.063  1.00  0.00    -0.292 OA 
BRANCH  14  21
HETATM   21  C   UNL     1      -9.274   8.521  68.652  1.00  0.00    -0.142 C  
BRANCH  21  22
HETATM   22  O   UNL     1      -9.209   9.854  68.160  1.00  0.00    -0.128 OA 
BRANCH  22  23
HETATM   23  P   UNL     1      -9.415  10.095  66.595  1.00  0.00    -0.185 P  
HETATM   24  O   UNL     1      -8.197  10.389  65.785  1.00  0.00    -0.145 OA 
HETATM   25  O   UNL     1     -10.017   8.679  66.127  1.00  0.00    -0.260 OA 
BRANCH  23  26
HETATM   26  O   UNL     1     -10.652  11.063  66.421  1.00  0.00    -0.257 OA 
BRANCH  26  27
HETATM   27  P   UNL     1     -11.002  11.860  65.100  1.00  0.00    -0.284 P  
HETATM   28  O   UNL     1     -12.508  12.351  65.371  1.00  0.00    -0.637 OA 
HETATM   29  O   UNL     1     -10.942  11.127  63.803  1.00  0.00    -0.363 OA 
BRANCH  27  30
HETATM   30  O   UNL     1     -10.167  13.230  65.134  1.00  0.00    -0.307 OA 
BRANCH  30  31
HETATM   31  C   UNL     1     -10.821  14.486  64.991  1.00  0.00    -0.412 C  
BRANCH  31  32
HETATM   32  C   UNL     1     -10.660  15.397  66.204  1.00  0.00    -0.316 C  
HETATM   33  O   UNL     1     -11.635  15.093  67.221  1.00  0.00    -0.323 OA 
HETATM   34  C   UNL     1     -11.120  15.743  68.399  1.00  0.00    -0.341 C  
HETATM   35  H   UNL     1      -7.493  16.014  66.763  1.00  0.00     0.000 HD 
HETATM   36  C   UNL     1      -9.602  15.502  68.362  1.00  0.00    -0.199 C  
HETATM   37  C   UNL     1      -9.306  15.230  66.885  1.00  0.00    -0.237 C  
HETATM   38  H   UNL     1      -7.894  16.460  68.818  1.00  0.00     0.000 HD 
HETATM   39  O   UNL     1      -8.832  16.609  68.840  1.00  0.00    -0.250 OA 
HETATM   40  O   UNL     1      -8.336  16.118  66.340  1.00  0.00    -0.286 OA 
BRANCH  34  41
HETATM   41  N   UNL     1     -11.755  15.219  69.591  1.00  0.00    -0.312 NA 
HETATM   42  C   UNL     1     -12.279  15.916  70.643  1.00  0.00    -0.309 A  
HETATM   43  N   UNL     1     -12.822  15.116  71.540  1.00  0.00    -0.337 NA 
HETATM   44  C   UNL     1     -12.611  13.842  71.054  1.00  0.00    -0.371 A  
HETATM   45  C   UNL     1     -12.958  12.569  71.535  1.00  0.00    -0.280 A  
HETATM   46  N   UNL     1     -13.694  12.367  72.693  1.00  0.00    -0.564 NA 
HETATM   47  N   UNL     1     -12.553  11.482  70.835  1.00  0.00    -0.366 NA 
HETATM   48  H1  UNL     1     -13.946  11.442  73.042  1.00  0.00     0.000 HD 
HETATM   49  C   UNL     1     -11.875  11.675  69.683  1.00  0.00    -0.352 A  
HETATM   50  H2  UNL     1     -14.558  12.903  72.601  1.00  0.00     0.000 HD 
HETATM   51  N   UNL     1     -11.530  12.844  69.094  1.00  0.00    -0.291 NA 
HETATM   52  C   UNL     1     -11.922  13.884  69.853  1.00  0.00    -0.341 A  
ENDBRANCH  34  41
ENDBRANCH  31  32
ENDBRANCH  30  31
ENDBRANCH  27  30
ENDBRANCH  26  27
ENDBRANCH  23  26
ENDBRANCH  22  23
ENDBRANCH  21  22
ENDBRANCH  14  21
ENDBRANCH   8  12
ENDBRANCH   4   6
TORSDOF 11
ENDMDL
MODEL       17
REMARK 921   NORMALIZED FREE ENERGY PREDICTED BY IDOCK:   -7.58 KCAL/MOL
REMARK 922        TOTAL FREE ENERGY PREDICTED BY IDOCK:  -14.66 KCAL/MOL
REMARK 923 INTER-LIGAND FREE ENERGY PREDICTED BY IDOCK:  -12.61 KCAL/MOL
REMARK 924 INTRA-LIGAND FREE ENERGY PREDICTED BY IDOCK:   -2.05 KCAL/MOL
REMARK 927      BINDING AFFINITY PREDICTED BY RF-SCORE:    0.00 PKD
ROOT
HETATM    1  N   UNL     1     -14.395   6.560  72.128  1.00  0.00    -0.472 N  
HETATM    2  H1  UNL     1     -13.995   5.651  72.364  1.00  0.00     0.000 HD 
HETATM    3  H2  UNL     1     -15.392   6.724  72.267  1.00  0.00     0.000 HD 
HETATM    4  C   UNL     1     -13.618   7.549  71.633  1.00  0.00    -0.368 C  
HETATM    5  O   UNL     1     -14.100   8.645  71.348  1.00  0.00    -0.370 OA 
ENDROOT
BRANCH   4   6
HETATM    6  C   UNL     1     -12.183   7.236  71.445  1.00  0.00    -0.384 C  
HETATM    7  C   UNL     1     -11.385   8.268  71.112  1.00  0.00    -0.263 C  
HETATM    8  N   UNL     1     -10.005   8.158  70.960  1.00  0.00    -0.185 NA 
HETATM    9  C   UNL     1     -11.615   5.864  71.682  1.00  0.00    -0.186 C  
HETATM   10  C   UNL     1      -9.452   6.873  71.011  1.00  0.00    -0.163 C  
HETATM   11  C   UNL     1     -10.149   5.775  71.337  1.00  0.00    -0.249 C  
BRANCH   8  12
HETATM   12  C   UNL     1      -9.080   9.311  70.909  1.00  0.00    -0.222 C  
HETATM   13  O   UNL     1      -9.585  10.270  69.954  1.00  0.00    -0.176 OA 
HETATM   14  C   UNL     1      -9.023   9.941  68.664  1.00  0.00    -0.128 C  
HETATM   15  H   UNL     1      -5.862   9.994  70.610  1.00  0.00     0.000 HD 
HETATM   16  C   UNL     1      -7.735   9.161  68.917  1.00  0.00    -0.083 C  
HETATM   17  H   UNL     1      -5.810   9.362  68.509  1.00  0.00     0.000 HD 
HETATM   18  C   UNL     1      -7.635   9.081  70.437  1.00  0.00    -0.100 C  
HETATM   19  O   UNL     1      -6.612   9.848  68.351  1.00  0.00    -0.055 OA 
HETATM   20  O   UNL     1      -6.756  10.136  70.902  1.00  0.00    -0.328 OA 
BRANCH  14  21
HETATM   21  C   UNL     1     -10.033   9.137  67.830  1.00  0.00    -0.189 C  
BRANCH  21  22
HETATM   22  O   UNL     1     -10.750   9.982  66.938  1.00  0.00    -0.212 OA 
BRANCH  22  23
HETATM   23  P   UNL     1      -9.972  10.599  65.688  1.00  0.00    -0.282 P  
HETATM   24  O   UNL     1      -8.995  11.692  65.966  1.00  0.00    -0.205 OA 
HETATM   25  O   UNL     1      -9.170   9.317  65.141  1.00  0.00    -0.234 OA 
BRANCH  23  26
HETATM   26  O   UNL     1     -11.032  10.849  64.542  1.00  0.00    -0.211 OA 
BRANCH  26  27
HETATM   27  P   UNL     1     -11.768  12.222  64.270  1.00  0.00    -0.407 P  
HETATM   28  O   UNL     1     -13.050  11.773  63.411  1.00  0.00    -0.622 OA 
HETATM   29  O   UNL     1     -11.022  13.283  63.536  1.00  0.00    -0.095 OA 
BRANCH  27  30
HETATM   30  O   UNL     1     -12.417  12.698  65.658  1.00  0.00    -0.622 OA 
BRANCH  30  31
HETATM   31  C   UNL     1     -12.450  14.076  66.013  1.00  0.00    -0.455 C  
BRANCH  31  32
HETATM   32  C   UNL     1     -11.349  14.479  66.989  1.00  0.00    -0.349 C  
HETATM   33  O   UNL     1     -10.685  15.684  66.563  1.00  0.00    -0.307 OA 
HETATM   34  C   UNL     1      -9.977  16.122  67.739  1.00  0.00    -0.237 C  
HETATM   35  H   UNL     1     -12.248  13.817  70.068  1.00  0.00     0.000 HD 
HETATM   36  C   UNL     1     -10.941  15.869  68.909  1.00  0.00    -0.290 C  
HETATM   37  C   UNL     1     -11.887  14.788  68.382  1.00  0.00    -0.286 C  
HETATM   38  H   UNL     1     -10.885  15.279  70.830  1.00  0.00     0.000 HD 
HETATM   39  O   UNL     1     -10.289  15.436  70.107  1.00  0.00    -0.295 OA 
HETATM   40  O   UNL     1     -11.913  13.624  69.201  1.00  0.00    -0.329 OA 
BRANCH  34  41
HETATM   41  N   UNL     1      -9.584  17.511  67.610  1.00  0.00    -0.262 NA 
HETATM   42  C   UNL     1     -10.205  18.614  68.124  1.00  0.00    -0.382 A  
HETATM   43  N   UNL     1      -9.546  19.722  67.849  1.00  0.00    -0.358 NA 
HETATM   44  C   UNL     1      -8.462  19.314  67.098  1.00  0.00    -0.285 A  
HETATM   45  C   UNL     1      -7.388  20.008  66.517  1.00  0.00    -0.267 A  
HETATM   46  N   UNL     1      -7.200  21.375  66.659  1.00  0.00    -0.722 NA 
HETATM   47  N   UNL     1      -6.492  19.310  65.780  1.00  0.00    -0.219 NA 
HETATM   48  H1  UNL     1      -6.420  21.879  66.237  1.00  0.00     0.000 HD 
HETATM   49  C   UNL     1      -6.647  17.972  65.676  1.00  0.00    -0.207 A  
HETATM   50  H2  UNL     1      -7.187  21.578  67.659  1.00  0.00     0.000 HD 
HETATM   51  N   UNL     1      -7.602  17.189  66.230  1.00  0.00    -0.308 NA 
HETATM   52  C   UNL     1      -8.484  17.941  66.915  1.00  0.00    -0.244 A  
ENDBRANCH  34  41
ENDBRANCH  31  32
ENDBRANCH  30  31
ENDBRANCH  27  30
ENDBRANCH  26  27
ENDBRANCH  23  26
ENDBRANCH  22  23
ENDBRANCH  21  22
ENDBRANCH  14  21
ENDBRANCH   8  12
ENDBRANCH   4   6
TORSDOF 11
ENDMDL
MODEL       18
REMARK 921   NORMALIZED FREE ENERGY PREDICTED BY IDOCK:   -7.56 KCAL/MOL
REMARK 922        TOTAL FREE ENERGY PREDICTED BY IDOCK:  -14.62 KCAL/MOL
REMARK 923 INTER-LIGAND FREE ENERGY PREDICTED BY IDOCK:  -12.54 KCAL/MOL
REMARK 924 INTRA-LIGAND FREE ENERGY PREDICTED BY IDOCK:   -2.08 KCAL/MOL
REMARK 927      BINDING AFFINITY PREDICTED BY RF-SCORE:    0.00 PKD
ROOT
HETATM    1  N   UNL     1      -6.636  14.330  70.536  1.00  0.00    -0.404 N  
HETATM    2  H1  UNL     1      -6.070  15.093  70.909  1.00  0.00     0.000 HD 
HETATM    3  H2  UNL     1      -6.840  13.521  71.121  1.00  0.00     0.000 HD 
HETATM    4  C   UNL     1      -7.119  14.381  69.275  1.00  0.00    -0.124 C  
HETATM    5  O   UNL     1      -7.802  13.461  68.825  1.00  0.00    -0.107 OA 
ENDROOT
BRANCH   4   6
HETATM    6  C   UNL     1      -6.772  15.579  68.477  1.00  0.00    -0.113 C  
HETATM    7  C   UNL     1      -7.664  16.587  68.493  1.00  0.00    -0.204 C  
HETATM    8  N   UNL     1      -7.463  17.806  67.849  1.00  0.00    -0.206 NA 
HETATM    9  C   UNL     1      -5.465  15.714  67.745  1.00  0.00    -0.141 C  
HETATM   10  C   UNL     1      -6.339  17.919  67.023  1.00  0.00    -0.163 C  
HETATM   11  C   UNL     1      -5.383  16.983  66.933  1.00  0.00    -0.195 C  
BRANCH   8  12
HETATM   12  C   UNL     1      -8.264  19.023  68.105  1.00  0.00    -0.314 C  
HETATM   13  O   UNL     1      -9.429  18.658  68.878  1.00  0.00    -0.320 OA 
HETATM   14  C   UNL     1     -10.485  18.328  67.948  1.00  0.00    -0.388 C  
HETATM   15  H   UNL     1      -9.543  21.621  66.517  1.00  0.00     0.000 HD 
HETATM   16  C   UNL     1     -10.171  19.040  66.635  1.00  0.00    -0.407 C  
HETATM   17  H   UNL     1     -11.030  20.391  65.473  1.00  0.00     0.000 HD 
HETATM   18  C   UNL     1      -8.865  19.779  66.909  1.00  0.00    -0.335 C  
HETATM   19  O   UNL     1     -11.226  19.947  66.290  1.00  0.00    -0.094 OA 
HETATM   20  O   UNL     1      -9.171  21.153  67.256  1.00  0.00    -0.200 OA 
BRANCH  14  21
HETATM   21  C   UNL     1     -10.586  16.805  67.773  1.00  0.00    -0.341 C  
BRANCH  21  22
HETATM   22  O   UNL     1     -10.580  16.445  66.396  1.00  0.00    -0.301 OA 
BRANCH  22  23
HETATM   23  P   UNL     1     -10.493  14.896  66.019  1.00  0.00    -0.358 P  
HETATM   24  O   UNL     1      -9.135  14.280  65.977  1.00  0.00    -0.092 OA 
HETATM   25  O   UNL     1     -11.329  14.224  67.218  1.00  0.00    -0.305 OA 
BRANCH  23  26
HETATM   26  O   UNL     1     -11.437  14.655  64.774  1.00  0.00    -0.384 OA 
BRANCH  26  27
HETATM   27  P   UNL     1     -12.004  13.250  64.323  1.00  0.00    -0.445 P  
HETATM   28  O   UNL     1     -12.582  13.555  62.855  1.00  0.00    -0.607 OA 
HETATM   29  O   UNL     1     -13.069  12.624  65.158  1.00  0.00    -0.726 OA 
BRANCH  27  30
HETATM   30  O   UNL     1     -10.746  12.301  64.022  1.00  0.00    -0.328 OA 
BRANCH  30  31
HETATM   31  C   UNL     1     -10.637  11.019  64.630  1.00  0.00    -0.299 C  
BRANCH  31  32
HETATM   32  C   UNL     1      -9.896  11.039  65.963  1.00  0.00    -0.229 C  
HETATM   33  O   UNL     1     -10.788  10.773  67.063  1.00  0.00    -0.265 OA 
HETATM   34  C   UNL     1      -9.904  10.453  68.154  1.00  0.00    -0.151 C  
HETATM   35  H   UNL     1      -6.895   9.772  65.627  1.00  0.00     0.000 HD 
HETATM   36  C   UNL     1      -8.792   9.591  67.534  1.00  0.00    -0.125 C  
HETATM   37  C   UNL     1      -8.819   9.964  66.050  1.00  0.00    -0.146 C  
HETATM   38  H   UNL     1      -6.811   9.300  67.713  1.00  0.00     0.000 HD 
HETATM   39  O   UNL     1      -7.498   9.832  68.096  1.00  0.00    -0.080 OA 
HETATM   40  O   UNL     1      -7.566  10.441  65.573  1.00  0.00    -0.146 OA 
BRANCH  34  41
HETATM   41  N   UNL     1     -10.625   9.780  69.216  1.00  0.00    -0.212 NA 
HETATM   42  C   UNL     1     -10.555   8.465  69.581  1.00  0.00    -0.219 A  
HETATM   43  N   UNL     1     -11.319   8.204  70.623  1.00  0.00    -0.267 NA 
HETATM   44  C   UNL     1     -11.931   9.403  70.925  1.00  0.00    -0.280 A  
HETATM   45  C   UNL     1     -12.840   9.784  71.926  1.00  0.00    -0.427 A  
HETATM   46  N   UNL     1     -13.289   8.921  72.915  1.00  0.00    -0.858 NA 
HETATM   47  N   UNL     1     -13.304  11.056  71.925  1.00  0.00    -0.390 NA 
HETATM   48  H1  UNL     1     -13.949   9.199  73.642  1.00  0.00     0.000 HD 
HETATM   49  C   UNL     1     -12.835  11.912  70.991  1.00  0.00    -0.198 A  
HETATM   50  H2  UNL     1     -12.465   8.541  73.383  1.00  0.00     0.000 HD 
HETATM   51  N   UNL     1     -11.926  11.679  70.016  1.00  0.00    -0.340 NA 
HETATM   52  C   UNL     1     -11.532  10.392  70.041  1.00  0.00    -0.308 A  
ENDBRANCH  34  41
ENDBRANCH  31  32
ENDBRANCH  30  31
ENDBRANCH  27  30
ENDBRANCH  26  27
ENDBRANCH  23  26
ENDBRANCH  22  23
ENDBRANCH  21  22
ENDBRANCH  14  21
ENDBRANCH   8  12
ENDBRANCH   4   6
TORSDOF 11
ENDMDL
MODEL       19
REMARK 921   NORMALIZED FREE ENERGY PREDICTED BY IDOCK:   -7.52 KCAL/MOL
REMARK 922        TOTAL FREE ENERGY PREDICTED BY IDOCK:  -14.56 KCAL/MOL
REMARK 923 INTER-LIGAND FREE ENERGY PREDICTED BY IDOCK:  -12.73 KCAL/MOL
REMARK 924 INTRA-LIGAND FREE ENERGY PREDICTED BY IDOCK:   -1.83 KCAL/MOL
REMARK 927      BINDING AFFINITY PREDICTED BY RF-SCORE:    0.00 PKD
ROOT
HETATM    1  N   UNL     1     -10.300   5.188  65.780  1.00  0.00    -0.448 N  
HETATM    2  H1  UNL     1      -9.829   4.290  65.888  1.00  0.00     0.000 HD 
HETATM    3  H2  UNL     1     -10.547   5.520  64.847  1.00  0.00     0.000 HD 
HETATM    4  C   UNL     1     -10.603   5.943  66.859  1.00  0.00    -0.315 C  
HETATM    5  O   UNL     1     -11.171   7.027  66.729  1.00  0.00    -0.229 OA 
ENDROOT
BRANCH   4   6
HETATM    6  C   UNL     1     -10.203   5.407  68.180  1.00  0.00    -0.226 C  
HETATM    7  C   UNL     1     -10.360   6.230  69.233  1.00  0.00    -0.218 C  
HETATM    8  N   UNL     1     -10.092   5.861  70.548  1.00  0.00    -0.188 NA 
HETATM    9  C   UNL     1      -9.720   3.995  68.367  1.00  0.00    -0.135 C  
HETATM   10  C   UNL     1      -9.488   4.615  70.757  1.00  0.00    -0.167 C  
HETATM   11  C   UNL     1      -9.289   3.713  69.785  1.00  0.00    -0.243 C  
BRANCH   8  12
HETATM   12  C   UNL     1     -10.546   6.620  71.734  1.00  0.00    -0.215 C  
HETATM   13  O   UNL     1     -10.594   8.024  71.396  1.00  0.00    -0.211 OA 
HETATM   14  C   UNL     1      -9.300   8.592  71.701  1.00  0.00    -0.241 C  
HETATM   15  H   UNL     1      -9.922   6.931  74.962  1.00  0.00     0.000 HD 
HETATM   16  C   UNL     1      -8.652   7.700  72.756  1.00  0.00    -0.131 C  
HETATM   17  H   UNL     1      -7.980   7.890  74.606  1.00  0.00     0.000 HD 
HETATM   18  C   UNL     1      -9.680   6.599  73.003  1.00  0.00    -0.159 C  
HETATM   19  O   UNL     1      -8.383   8.446  73.950  1.00  0.00    -0.307 OA 
HETATM   20  O   UNL     1     -10.457   6.944  74.177  1.00  0.00    -0.357 OA 
BRANCH  14  21
HETATM   21  C   UNL     1      -8.448   8.696  70.426  1.00  0.00    -0.140 C  
BRANCH  21  22
HETATM   22  O   UNL     1      -8.448  10.023  69.915  1.00  0.00    -0.189 OA 
BRANCH  22  23
HETATM   23  P   UNL     1      -8.535  10.226  68.333  1.00  0.00    -0.135 P  
HETATM   24  O   UNL     1      -7.686  11.298  67.736  1.00  0.00    -0.106 OA 
HETATM   25  O   UNL     1      -8.021   8.800  67.796  1.00  0.00    -0.105 OA 
BRANCH  23  26
HETATM   26  O   UNL     1     -10.064  10.206  67.934  1.00  0.00    -0.163 OA 
BRANCH  26  27
HETATM   27  P   UNL     1     -11.182  11.122  68.575  1.00  0.00    -0.316 P  
HETATM   28  O   UNL     1     -10.354  12.419  69.041  1.00  0.00    -0.102 OA 
HETATM   29  O   UNL     1     -11.952  10.581  69.731  1.00  0.00    -0.272 OA 
BRANCH  27  30
HETATM   30  O   UNL     1     -12.084  11.686  67.375  1.00  0.00    -0.605 OA 
BRANCH  30  31
HETATM   31  C   UNL     1     -11.484  12.193  66.187  1.00  0.00    -0.371 C  
BRANCH  31  32
HETATM   32  C   UNL     1     -11.668  13.696  66.008  1.00  0.00    -0.358 C  
HETATM   33  O   UNL     1     -10.714  14.439  66.792  1.00  0.00    -0.286 OA 
HETATM   34  C   UNL     1     -10.763  15.765  66.231  1.00  0.00    -0.282 C  
HETATM   35  H   UNL     1     -12.504  14.389  62.918  1.00  0.00     0.000 HD 
HETATM   36  C   UNL     1     -10.866  15.557  64.711  1.00  0.00    -0.363 C  
HETATM   37  C   UNL     1     -11.440  14.146  64.569  1.00  0.00    -0.372 C  
HETATM   38  H   UNL     1     -11.765  16.387  63.116  1.00  0.00     0.000 HD 
HETATM   39  O   UNL     1     -11.701  16.516  64.056  1.00  0.00    -1.111 OA 
HETATM   40  O   UNL     1     -12.646  14.109  63.814  1.00  0.00    -0.804 OA 
BRANCH  34  41
HETATM   41  N   UNL     1      -9.599  16.531  66.628  1.00  0.00    -0.245 NA 
HETATM   42  C   UNL     1      -8.309  16.098  66.755  1.00  0.00    -0.264 A  
HETATM   43  N   UNL     1      -7.493  17.077  67.092  1.00  0.00    -0.161 NA 
HETATM   44  C   UNL     1      -8.303  18.188  67.215  1.00  0.00    -0.241 A  
HETATM   45  C   UNL     1      -8.040  19.530  67.536  1.00  0.00    -0.290 A  
HETATM   46  N   UNL     1      -6.763  20.020  67.766  1.00  0.00    -0.241 NA 
HETATM   47  N   UNL     1      -9.083  20.388  67.626  1.00  0.00    -0.310 NA 
HETATM   48  H1  UNL     1      -6.572  20.995  67.999  1.00  0.00     0.000 HD 
HETATM   49  C   UNL     1     -10.323  19.924  67.359  1.00  0.00    -0.426 A  
HETATM   50  H2  UNL     1      -6.196  19.786  66.951  1.00  0.00     0.000 HD 
HETATM   51  N   UNL     1     -10.694  18.676  66.990  1.00  0.00    -0.393 NA 
HETATM   52  C   UNL     1      -9.624  17.861  66.956  1.00  0.00    -0.286 A  
ENDBRANCH  34  41
ENDBRANCH  31  32
ENDBRANCH  30  31
ENDBRANCH  27  30
ENDBRANCH  26  27
ENDBRANCH  23  26
ENDBRANCH  22  23
ENDBRANCH  21  22
ENDBRANCH  14  21
ENDBRANCH   8  12
ENDBRANCH   4   6
TORSDOF 11
ENDMDL
MODEL       20
REMARK 921   NORMALIZED FREE ENERGY PREDICTED BY IDOCK:   -7.51 KCAL/MOL
REMARK 922        TOTAL FREE ENERGY PREDICTED BY IDOCK:  -14.54 KCAL/MOL
REMARK 923 INTER-LIGAND FREE ENERGY PREDICTED BY IDOCK:  -12.35 KCAL/MOL
REMARK 924 INTRA-LIGAND FREE ENERGY PREDICTED BY IDOCK:   -2.19 KCAL/MOL
REMARK 927      BINDING AFFINITY PREDICTED BY RF-SCORE:    0.00 PKD
ROOT
HETATM    1  N   UNL     1     -12.410  13.813  63.210  1.00  0.00    -1.124 N  
HETATM    2  H1  UNL     1     -13.079  14.540  63.465  1.00  0.00     0.000 HD 
HETATM    3  H2  UNL     1     -12.482  13.359  62.299  1.00  0.00     0.000 HD 
HETATM    4  C   UNL     1     -11.430  13.445  64.064  1.00  0.00    -0.352 C  
HETATM    5  O   UNL     1     -10.623  12.567  63.756  1.00  0.00    -0.414 OA 
ENDROOT
BRANCH   4   6
HETATM    6  C   UNL     1     -11.394  14.136  65.373  1.00  0.00    -0.322 C  
HETATM    7  C   UNL     1     -10.757  15.321  65.406  1.00  0.00    -0.391 C  
HETATM    8  N   UNL     1     -10.685  16.128  66.539  1.00  0.00    -0.270 NA 
HETATM    9  C   UNL     1     -12.090  13.598  66.592  1.00  0.00    -0.459 C  
HETATM   10  C   UNL     1     -11.177  15.598  67.738  1.00  0.00    -0.297 C  
HETATM   11  C   UNL     1     -11.833  14.431  67.823  1.00  0.00    -0.402 C  
BRANCH   8  12
HETATM   12  C   UNL     1     -10.276  17.549  66.523  1.00  0.00    -0.342 C  
HETATM   13  O   UNL     1      -9.027  17.665  65.806  1.00  0.00    -0.509 OA 
HETATM   14  C   UNL     1      -7.956  17.512  66.766  1.00  0.00    -0.241 C  
HETATM   15  H   UNL     1      -9.894  20.121  68.560  1.00  0.00     0.000 HD 
HETATM   16  C   UNL     1      -8.518  17.886  68.134  1.00  0.00    -0.267 C  
HETATM   17  H   UNL     1      -8.148  19.225  69.542  1.00  0.00     0.000 HD 
HETATM   18  C   UNL     1      -9.975  18.248  67.859  1.00  0.00    -0.345 C  
HETATM   19  O   UNL     1      -7.797  18.992  68.690  1.00  0.00    -0.326 OA 
HETATM   20  O   UNL     1     -10.081  19.688  67.735  1.00  0.00    -0.362 OA 
BRANCH  14  21
HETATM   21  C   UNL     1      -7.412  16.075  66.734  1.00  0.00    -0.183 C  
BRANCH  21  22
HETATM   22  O   UNL     1      -7.648  15.409  67.968  1.00  0.00    -0.116 OA 
BRANCH  22  23
HETATM   23  P   UNL     1      -7.382  13.836  68.044  1.00  0.00    -0.177 P  
HETATM   24  O   UNL     1      -6.319  13.282  67.156  1.00  0.00    -0.250 OA 
HETATM   25  O   UNL     1      -6.922  13.659  69.574  1.00  0.00    -0.038 OA 
BRANCH  23  26
HETATM   26  O   UNL     1      -8.788  13.114  68.028  1.00  0.00    -0.176 OA 
BRANCH  26  27
HETATM   27  P   UNL     1      -9.041  11.631  67.542  1.00  0.00    -0.184 P  
HETATM   28  O   UNL     1      -7.950  10.794  68.374  1.00  0.00    -0.111 OA 
HETATM   29  O   UNL     1      -8.894  11.336  66.088  1.00  0.00    -0.186 OA 
BRANCH  27  30
HETATM   30  O   UNL     1     -10.429  11.148  68.186  1.00  0.00    -0.176 OA 
BRANCH  30  31
HETATM   31  C   UNL     1     -10.692  11.329  69.573  1.00  0.00    -0.095 C  
BRANCH  31  32
HETATM   32  C   UNL     1     -11.653  10.294  70.149  1.00  0.00    -0.299 C  
HETATM   33  O   UNL     1     -11.038   8.994  70.232  1.00  0.00    -0.244 OA 
HETATM   34  C   UNL     1     -11.902   8.258  71.119  1.00  0.00    -0.275 C  
HETATM   35  H   UNL     1     -13.524  11.639  72.477  1.00  0.00     0.000 HD 
HETATM   36  C   UNL     1     -12.291   9.255  72.223  1.00  0.00    -0.274 C  
HETATM   37  C   UNL     1     -12.084  10.625  71.574  1.00  0.00    -0.163 C  
HETATM   38  H   UNL     1     -13.880   9.723  73.363  1.00  0.00     0.000 HD 
HETATM   39  O   UNL     1     -13.639   9.108  72.681  1.00  0.00    -0.465 OA 
HETATM   40  O   UNL     1     -13.256  11.432  71.590  1.00  0.00    -0.419 OA 
BRANCH  34  41
HETATM   41  N   UNL     1     -11.231   7.078  71.623  1.00  0.00    -0.239 NA 
HETATM   42  C   UNL     1     -10.987   6.738  72.924  1.00  0.00    -0.263 A  
HETATM   43  N   UNL     1     -10.391   5.566  73.022  1.00  0.00    -0.191 NA 
HETATM   44  C   UNL     1     -10.218   5.145  71.719  1.00  0.00    -0.209 A  
HETATM   45  C   UNL     1      -9.662   3.984  71.158  1.00  0.00    -0.187 A  
HETATM   46  N   UNL     1      -9.179   2.928  71.917  1.00  0.00    -0.098 NA 
HETATM   47  N   UNL     1      -9.592   3.889  69.809  1.00  0.00    -0.204 NA 
HETATM   48  H1  UNL     1      -8.775   2.085  71.509  1.00  0.00     0.000 HD 
HETATM   49  C   UNL     1     -10.103   4.895  69.066  1.00  0.00    -0.140 A  
HETATM   50  H2  UNL     1      -9.931   2.634  72.542  1.00  0.00     0.000 HD 
HETATM   51  N   UNL     1     -10.706   6.030  69.487  1.00  0.00    -0.299 NA 
HETATM   52  C   UNL     1     -10.710   6.088  70.832  1.00  0.00    -0.267 A  
ENDBRANCH  34  41
ENDBRANCH  31  32
ENDBRANCH  30  31
ENDBRANCH  27  30
ENDBRANCH  26  27
ENDBRANCH  23  26
ENDBRANCH  22  23
ENDBRANCH  21  22
ENDBRANCH  14  21
ENDBRANCH   8  12
ENDBRANCH   4   6
TORSDOF 11
ENDMDL
MODEL       21
REMARK 921   NORMALIZED FREE ENERGY PREDICTED BY IDOCK:   -7.45 KCAL/MOL
REMARK 922        TOTAL FREE ENERGY PREDICTED BY IDOCK:  -14.44 KCAL/MOL
REMARK 923 INTER-LIGAND FREE ENERGY PREDICTED BY IDOCK:  -12.13 KCAL/MOL
REMARK 924 INTRA-LIGAND FREE ENERGY PREDICTED BY IDOCK:   -2.31 KCAL/MOL
REMARK 927      BINDING AFFINITY PREDICTED BY RF-SCORE:    0.00 PKD
ROOT
HETATM    1  N   UNL     1      -6.443  16.457  67.019  1.00  0.00    -0.189 N  
HETATM    2  H1  UNL     1      -5.931  15.793  67.601  1.00  0.00     0.000 HD 
HETATM    3  H2  UNL     1      -5.996  17.329  66.737  1.00  0.00     0.000 HD 
HETATM    4  C   UNL     1      -7.706  16.193  66.617  1.00  0.00    -0.230 C  
HETATM    5  O   UNL     1      -8.323  16.995  65.915  1.00  0.00    -0.515 OA 
ENDROOT
BRANCH   4   6
HETATM    6  C   UNL     1      -8.297  14.915  67.074  1.00  0.00    -0.246 C  
HETATM    7  C   UNL     1      -9.618  14.758  66.868  1.00  0.00    -0.241 C  
HETATM    8  N   UNL     1     -10.315  13.594  67.181  1.00  0.00    -0.249 NA 
HETATM    9  C   UNL     1      -7.470  13.808  67.669  1.00  0.00    -0.187 C  
HETATM   10  C   UNL     1      -9.624  12.599  67.883  1.00  0.00    -0.211 C  
HETATM   11  C   UNL     1      -8.309  12.646  68.139  1.00  0.00    -0.175 C  
BRANCH   8  12
HETATM   12  C   UNL     1     -11.673  13.280  66.685  1.00  0.00    -0.377 C  
HETATM   13  O   UNL     1     -11.706  11.896  66.268  1.00  0.00    -0.506 OA 
HETATM   14  C   UNL     1     -11.336  11.851  64.871  1.00  0.00    -0.277 C  
HETATM   15  H   UNL     1     -13.976  14.450  64.627  1.00  0.00     0.000 HD 
HETATM   16  C   UNL     1     -11.643  13.224  64.277  1.00  0.00    -0.400 C  
HETATM   17  H   UNL     1     -12.789  13.965  62.846  1.00  0.00     0.000 HD 
HETATM   18  C   UNL     1     -12.201  14.026  65.449  1.00  0.00    -0.439 C  
HETATM   19  O   UNL     1     -12.598  13.110  63.216  1.00  0.00    -0.700 OA 
HETATM   20  O   UNL     1     -13.649  13.989  65.392  1.00  0.00    -0.593 OA 
BRANCH  14  21
HETATM   21  C   UNL     1      -9.854  11.473  64.722  1.00  0.00    -0.249 C  
BRANCH  21  22
HETATM   22  O   UNL     1      -9.706  10.245  64.020  1.00  0.00    -0.306 OA 
BRANCH  22  23
HETATM   23  P   UNL     1      -8.315   9.469  64.136  1.00  0.00    -0.201 P  
HETATM   24  O   UNL     1      -7.557   9.237  62.872  1.00  0.00    -0.104 OA 
HETATM   25  O   UNL     1      -7.466  10.465  65.071  1.00  0.00    -0.139 OA 
BRANCH  23  26
HETATM   26  O   UNL     1      -8.541   8.225  65.085  1.00  0.00    -0.165 OA 
BRANCH  26  27
HETATM   27  P   UNL     1      -7.798   6.836  64.952  1.00  0.00    -0.112 P  
HETATM   28  O   UNL     1      -6.251   7.244  65.104  1.00  0.00    -0.037 OA 
HETATM   29  O   UNL     1      -7.987   6.058  63.694  1.00  0.00    -0.111 OA 
BRANCH  27  30
HETATM   30  O   UNL     1      -8.084   6.011  66.298  1.00  0.00    -0.107 OA 
BRANCH  30  31
HETATM   31  C   UNL     1      -7.325   6.253  67.477  1.00  0.00    -0.080 C  
BRANCH  31  32
HETATM   32  C   UNL     1      -7.770   7.496  68.242  1.00  0.00    -0.120 C  
HETATM   33  O   UNL     1      -9.139   7.384  68.676  1.00  0.00    -0.135 OA 
HETATM   34  C   UNL     1      -9.272   8.416  69.672  1.00  0.00    -0.160 C  
HETATM   35  H   UNL     1      -5.311   8.662  70.064  1.00  0.00     0.000 HD 
HETATM   36  C   UNL     1      -7.960   8.376  70.473  1.00  0.00    -0.098 C  
HETATM   37  C   UNL     1      -6.962   7.719  69.516  1.00  0.00    -0.058 C  
HETATM   38  H   UNL     1      -6.688   9.642  71.378  1.00  0.00     0.000 HD 
HETATM   39  O   UNL     1      -7.498   9.666  70.883  1.00  0.00    -0.302 OA 
HETATM   40  O   UNL     1      -5.814   8.523  69.271  1.00  0.00    -0.037 OA 
BRANCH  34  41
HETATM   41  N   UNL     1     -10.448   8.190  70.487  1.00  0.00    -0.210 NA 
HETATM   42  C   UNL     1     -10.867   7.021  71.058  1.00  0.00    -0.238 A  
HETATM   43  N   UNL     1     -11.961   7.189  71.775  1.00  0.00    -0.297 NA 
HETATM   44  C   UNL     1     -12.276   8.525  71.635  1.00  0.00    -0.322 A  
HETATM   45  C   UNL     1     -13.309   9.321  72.157  1.00  0.00    -0.468 A  
HETATM   46  N   UNL     1     -14.268   8.842  73.037  1.00  0.00    -1.158 NA 
HETATM   47  N   UNL     1     -13.374  10.621  71.782  1.00  0.00    -0.374 NA 
HETATM   48  H1  UNL     1     -15.018   9.420  73.416  1.00  0.00     0.000 HD 
HETATM   49  C   UNL     1     -12.416  11.103  70.961  1.00  0.00    -0.403 A  
HETATM   50  H2  UNL     1     -13.774   8.428  73.828  1.00  0.00     0.000 HD 
HETATM   51  N   UNL     1     -11.349  10.454  70.439  1.00  0.00    -0.319 NA 
HETATM   52  C   UNL     1     -11.360   9.161  70.812  1.00  0.00    -0.280 A  
ENDBRANCH  34  41
ENDBRANCH  31  32
ENDBRANCH  30  31
ENDBRANCH  27  30
ENDBRANCH  26  27
ENDBRANCH  23  26
ENDBRANCH  22  23
ENDBRANCH  21  22
ENDBRANCH  14  21
ENDBRANCH   8  12
ENDBRANCH   4   6
TORSDOF 11
ENDMDL
MODEL       22
REMARK 921   NORMALIZED FREE ENERGY PREDICTED BY IDOCK:   -7.44 KCAL/MOL
REMARK 922        TOTAL FREE ENERGY PREDICTED BY IDOCK:  -14.42 KCAL/MOL
REMARK 923 INTER-LIGAND FREE ENERGY PREDICTED BY IDOCK:  -11.90 KCAL/MOL
REMARK 924 INTRA-LIGAND FREE ENERGY PREDICTED BY IDOCK:   -2.52 KCAL/MOL
REMARK 927      BINDING AFFINITY PREDICTED BY RF-SCORE:    0.00 PKD
ROOT
HETATM    1  N   UNL     1     -13.048  10.520  69.942  1.00  0.00    -0.337 N  
HETATM    2  H1  UNL     1     -12.739   9.860  69.228  1.00  0.00     0.000 HD 
HETATM    3  H2  UNL     1     -13.471  11.405  69.661  1.00  0.00     0.000 HD 
HETATM    4  C   UNL     1     -12.902  10.236  71.255  1.00  0.00    -0.422 C  
HETATM    5  O   UNL     1     -13.275  11.033  72.116  1.00  0.00    -0.481 OA 
ENDROOT
BRANCH   4   6
HETATM    6  C   UNL     1     -12.268   8.941  71.590  1.00  0.00    -0.409 C  
HETATM    7  C   UNL     1     -10.971   8.985  71.947  1.00  0.00    -0.353 C  
HETATM    8  N   UNL     1     -10.244   7.868  72.352  1.00  0.00    -0.241 NA 
HETATM    9  C   UNL     1     -13.032   7.646  71.609  1.00  0.00    -0.385 C  
HETATM   10  C   UNL     1     -10.863   6.619  72.232  1.00  0.00    -0.229 C  
HETATM   11  C   UNL     1     -12.150   6.455  71.890  1.00  0.00    -0.362 C  
BRANCH   8  12
HETATM   12  C   UNL     1      -8.936   7.932  73.041  1.00  0.00    -0.225 C  
HETATM   13  O   UNL     1      -8.064   8.815  72.300  1.00  0.00    -0.356 OA 
HETATM   14  C   UNL     1      -7.355   8.015  71.327  1.00  0.00    -0.067 C  
HETATM   15  H   UNL     1      -6.626   5.953  74.328  1.00  0.00     0.000 HD 
HETATM   16  C   UNL     1      -7.343   6.579  71.845  1.00  0.00    -0.091 C  
HETATM   17  H   UNL     1      -5.991   5.229  72.356  1.00  0.00     0.000 HD 
HETATM   18  C   UNL     1      -8.102   6.648  73.167  1.00  0.00    -0.105 C  
HETATM   19  O   UNL     1      -5.998   6.123  72.034  1.00  0.00    -0.035 OA 
HETATM   20  O   UNL     1      -7.142   6.748  74.249  1.00  0.00    -0.090 OA 
BRANCH  14  21
HETATM   21  C   UNL     1      -8.026   8.129  69.949  1.00  0.00    -0.109 C  
BRANCH  21  22
HETATM   22  O   UNL     1      -8.572   9.428  69.751  1.00  0.00    -0.143 OA 
BRANCH  22  23
HETATM   23  P   UNL     1      -9.260   9.753  68.347  1.00  0.00    -0.132 P  
HETATM   24  O   UNL     1     -10.751   9.755  68.303  1.00  0.00    -0.229 OA 
HETATM   25  O   UNL     1      -8.733  11.247  68.068  1.00  0.00    -0.133 OA 
BRANCH  23  26
HETATM   26  O   UNL     1      -8.504   8.916  67.240  1.00  0.00    -0.114 OA 
BRANCH  26  27
HETATM   27  P   UNL     1      -8.392   9.319  65.715  1.00  0.00    -0.136 P  
HETATM   28  O   UNL     1      -8.127   7.908  64.994  1.00  0.00    -0.133 OA 
HETATM   29  O   UNL     1      -7.328  10.287  65.323  1.00  0.00    -0.141 OA 
BRANCH  27  30
HETATM   30  O   UNL     1      -9.866   9.705  65.214  1.00  0.00    -0.310 OA 
BRANCH  30  31
HETATM   31  C   UNL     1     -10.101  10.913  64.499  1.00  0.00    -0.341 C  
BRANCH  31  32
HETATM   32  C   UNL     1     -11.042  11.874  65.220  1.00  0.00    -0.299 C  
HETATM   33  O   UNL     1     -10.317  12.956  65.836  1.00  0.00    -0.275 OA 
HETATM   34  C   UNL     1     -11.334  13.935  66.122  1.00  0.00    -0.320 C  
HETATM   35  H   UNL     1     -13.846  12.195  63.560  1.00  0.00     0.000 HD 
HETATM   36  C   UNL     1     -12.265  13.919  64.899  1.00  0.00    -0.422 C  
HETATM   37  C   UNL     1     -12.033  12.542  64.274  1.00  0.00    -0.408 C  
HETATM   38  H   UNL     1     -14.222  14.095  64.470  1.00  0.00     0.000 HD 
HETATM   39  O   UNL     1     -13.646  14.104  65.225  1.00  0.00    -0.446 OA 
HETATM   40  O   UNL     1     -13.228  11.779  64.149  1.00  0.00    -0.527 OA 
BRANCH  34  41
HETATM   41  N   UNL     1     -10.739  15.232  66.373  1.00  0.00    -0.314 NA 
HETATM   42  C   UNL     1     -10.141  16.072  65.477  1.00  0.00    -0.304 A  
HETATM   43  N   UNL     1      -9.748  17.196  66.044  1.00  0.00    -0.488 NA 
HETATM   44  C   UNL     1     -10.086  17.059  67.375  1.00  0.00    -0.291 A  
HETATM   45  C   UNL     1      -9.946  17.906  68.487  1.00  0.00    -0.379 A  
HETATM   46  N   UNL     1      -9.421  19.187  68.405  1.00  0.00    -0.348 NA 
HETATM   47  N   UNL     1     -10.341  17.450  69.699  1.00  0.00    -0.045 NA 
HETATM   48  H1  UNL     1      -9.320  19.803  69.213  1.00  0.00     0.000 HD 
HETATM   49  C   UNL     1     -10.893  16.220  69.776  1.00  0.00    -0.356 A  
HETATM   50  H2  UNL     1      -9.963  19.694  67.704  1.00  0.00     0.000 HD 
HETATM   51  N   UNL     1     -11.128  15.339  68.776  1.00  0.00    -0.255 NA 
HETATM   52  C   UNL     1     -10.680  15.828  67.605  1.00  0.00    -0.310 A  
ENDBRANCH  34  41
ENDBRANCH  31  32
ENDBRANCH  30  31
ENDBRANCH  27  30
ENDBRANCH  26  27
ENDBRANCH  23  26
ENDBRANCH  22  23
ENDBRANCH  21  22
ENDBRANCH  14  21
ENDBRANCH   8  12
ENDBRANCH   4   6
TORSDOF 11
ENDMDL
MODEL       23
REMARK 921   NORMALIZED FREE ENERGY PREDICTED BY IDOCK:   -7.41 KCAL/MOL
REMARK 922        TOTAL FREE ENERGY PREDICTED BY IDOCK:  -14.38 KCAL/MOL
REMARK 923 INTER-LIGAND FREE ENERGY PREDICTED BY IDOCK:  -12.62 KCAL/MOL
REMARK 924 INTRA-LIGAND FREE ENERGY PREDICTED BY IDOCK:   -1.76 KCAL/MOL
REMARK 927      BINDING AFFINITY PREDICTED BY RF-SCORE:    0.00 PKD
ROOT
HETATM    1  N   UNL     1      -6.606  20.131  65.575  1.00  0.00    -0.251 N  
HETATM    2  H1  UNL     1      -7.242  20.928  65.627  1.00  0.00     0.000 HD 
HETATM    3  H2  UNL     1      -5.674  20.255  65.181  1.00  0.00     0.000 HD 
HETATM    4  C   UNL     1      -6.986  18.914  66.022  1.00  0.00    -0.262 C  
HETATM    5  O   UNL     1      -6.219  17.953  65.960  1.00  0.00    -0.205 OA 
ENDROOT
BRANCH   4   6
HETATM    6  C   UNL     1      -8.357  18.804  66.569  1.00  0.00    -0.307 C  
HETATM    7  C   UNL     1      -8.574  17.805  67.445  1.00  0.00    -0.231 C  
HETATM    8  N   UNL     1      -9.787  17.600  68.097  1.00  0.00    -0.302 NA 
HETATM    9  C   UNL     1      -9.443  19.790  66.235  1.00  0.00    -0.493 C  
HETATM   10  C   UNL     1     -10.873  18.390  67.700  1.00  0.00    -0.259 C  
HETATM   11  C   UNL     1     -10.773  19.415  66.841  1.00  0.00    -0.570 C  
BRANCH   8  12
HETATM   12  C   UNL     1      -9.959  16.726  69.278  1.00  0.00    -0.206 C  
HETATM   13  O   UNL     1      -9.367  15.438  68.992  1.00  0.00    -0.201 OA 
HETATM   14  C   UNL     1     -10.391  14.607  68.401  1.00  0.00    -0.237 C  
HETATM   15  H   UNL     1     -12.286  15.718  71.394  1.00  0.00     0.000 HD 
HETATM   16  C   UNL     1     -11.740  15.161  68.852  1.00  0.00    -0.333 C  
HETATM   17  H   UNL     1     -13.310  14.517  69.869  1.00  0.00     0.000 HD 
HETATM   18  C   UNL     1     -11.383  16.359  69.727  1.00  0.00    -0.171 C  
HETATM   19  O   UNL     1     -12.470  14.172  69.588  1.00  0.00    -0.310 OA 
HETATM   20  O   UNL     1     -11.406  15.945  71.116  1.00  0.00    -0.371 OA 
BRANCH  14  21
HETATM   21  C   UNL     1     -10.252  14.594  66.870  1.00  0.00    -0.262 C  
BRANCH  21  22
HETATM   22  O   UNL     1     -11.379  15.197  66.247  1.00  0.00    -0.317 OA 
BRANCH  22  23
HETATM   23  P   UNL     1     -11.308  15.497  64.680  1.00  0.00    -0.153 P  
HETATM   24  O   UNL     1     -11.540  16.905  64.245  1.00  0.00    -1.032 OA 
HETATM   25  O   UNL     1      -9.787  15.096  64.343  1.00  0.00     0.312 OA 
BRANCH  23  26
HETATM   26  O   UNL     1     -12.127  14.366  63.940  1.00  0.00    -0.435 OA 
BRANCH  26  27
HETATM   27  P   UNL     1     -12.257  12.869  64.433  1.00  0.00    -0.419 P  
HETATM   28  O   UNL     1     -13.139  12.190  63.274  1.00  0.00    -0.693 OA 
HETATM   29  O   UNL     1     -12.897  12.621  65.757  1.00  0.00    -0.347 OA 
BRANCH  27  30
HETATM   30  O   UNL     1     -10.823  12.177  64.243  1.00  0.00    -0.295 OA 
BRANCH  30  31
HETATM   31  C   UNL     1     -10.503  10.964  64.914  1.00  0.00    -0.282 C  
BRANCH  31  32
HETATM   32  C   UNL     1      -9.848  11.176  66.275  1.00  0.00    -0.214 C  
HETATM   33  O   UNL     1     -10.800  11.026  67.346  1.00  0.00    -0.239 OA 
HETATM   34  C   UNL     1      -9.978  10.874  68.520  1.00  0.00    -0.182 C  
HETATM   35  H   UNL     1      -6.804   9.967  66.283  1.00  0.00     0.000 HD 
HETATM   36  C   UNL     1      -8.811   9.974  68.083  1.00  0.00    -0.122 C  
HETATM   37  C   UNL     1      -8.754  10.153  66.564  1.00  0.00    -0.129 C  
HETATM   38  H   UNL     1      -6.839   9.768  68.413  1.00  0.00     0.000 HD 
HETATM   39  O   UNL     1      -7.560  10.323  68.683  1.00  0.00    -0.082 OA 
HETATM   40  O   UNL     1      -7.485  10.604  66.103  1.00  0.00    -0.130 OA 
BRANCH  34  41
HETATM   41  N   UNL     1     -10.750  10.321  69.614  1.00  0.00    -0.246 NA 
HETATM   42  C   UNL     1     -11.461  10.993  70.568  1.00  0.00    -0.145 A  
HETATM   43  N   UNL     1     -12.082  10.169  71.389  1.00  0.00    -0.383 NA 
HETATM   44  C   UNL     1     -11.729   8.906  70.959  1.00  0.00    -0.289 A  
HETATM   45  C   UNL     1     -12.069   7.618  71.404  1.00  0.00    -0.316 A  
HETATM   46  N   UNL     1     -12.953   7.381  72.446  1.00  0.00    -0.481 NA 
HETATM   47  N   UNL     1     -11.504   6.553  70.787  1.00  0.00    -0.340 NA 
HETATM   48  H1  UNL     1     -13.200   6.445  72.768  1.00  0.00     0.000 HD 
HETATM   49  C   UNL     1     -10.676   6.778  69.743  1.00  0.00    -0.249 A  
HETATM   50  H2  UNL     1     -13.824   7.863  72.220  1.00  0.00     0.000 HD 
HETATM   51  N   UNL     1     -10.318   7.960  69.193  1.00  0.00    -0.217 NA 
HETATM   52  C   UNL     1     -10.876   8.981  69.870  1.00  0.00    -0.218 A  
ENDBRANCH  34  41
ENDBRANCH  31  32
ENDBRANCH  30  31
ENDBRANCH  27  30
ENDBRANCH  26  27
ENDBRANCH  23  26
ENDBRANCH  22  23
ENDBRANCH  21  22
ENDBRANCH  14  21
ENDBRANCH   8  12
ENDBRANCH   4   6
TORSDOF 11
ENDMDL
MODEL       24
REMARK 921   NORMALIZED FREE ENERGY PREDICTED BY IDOCK:   -7.40 KCAL/MOL
REMARK 922        TOTAL FREE ENERGY PREDICTED BY IDOCK:  -14.36 KCAL/MOL
REMARK 923 INTER-LIGAND FREE ENERGY PREDICTED BY IDOCK:  -11.78 KCAL/MOL
REMARK 924 INTRA-LIGAND FREE ENERGY PREDICTED BY IDOCK:   -2.59 KCAL/MOL
REMARK 927      BINDING AFFINITY PREDICTED BY RF-SCORE:    0.00 PKD
ROOT
HETATM    1  N   UNL     1     -13.547   9.551  72.341  1.00  0.00    -0.645 N  
HETATM    2  H1  UNL     1     -14.021   8.760  72.778  1.00  0.00     0.000 HD 
HETATM    3  H2  UNL     1     -13.985  10.472  72.358  1.00  0.00     0.000 HD 
HETATM    4  C   UNL     1     -12.347   9.392  71.740  1.00  0.00    -0.394 C  
HETATM    5  O   UNL     1     -11.776  10.347  71.213  1.00  0.00    -0.338 OA 
ENDROOT
BRANCH   4   6
HETATM    6  C   UNL     1     -11.779   8.025  71.741  1.00  0.00    -0.335 C  
HETATM    7  C   UNL     1     -11.769   7.380  70.560  1.00  0.00    -0.191 C  
HETATM    8  N   UNL     1     -11.215   6.116  70.375  1.00  0.00    -0.353 NA 
HETATM    9  C   UNL     1     -11.169   7.403  72.967  1.00  0.00    -0.345 C  
HETATM   10  C   UNL     1     -10.782   5.430  71.516  1.00  0.00    -0.192 C  
HETATM   11  C   UNL     1     -10.741   5.974  72.741  1.00  0.00    -0.269 C  
BRANCH   8  12
HETATM   12  C   UNL     1     -10.911   5.527  69.053  1.00  0.00    -0.084 C  
HETATM   13  O   UNL     1      -9.593   4.936  69.100  1.00  0.00    -0.135 OA 
HETATM   14  C   UNL     1      -8.642   5.953  68.711  1.00  0.00    -0.110 C  
HETATM   15  H   UNL     1     -10.972   6.290  65.840  1.00  0.00     0.000 HD 
HETATM   16  C   UNL     1      -9.397   6.978  67.869  1.00  0.00    -0.123 C  
HETATM   17  H   UNL     1      -9.302   7.702  66.031  1.00  0.00     0.000 HD 
HETATM   18  C   UNL     1     -10.829   6.454  67.830  1.00  0.00    -0.334 C  
HETATM   19  O   UNL     1      -8.832   7.063  66.554  1.00  0.00    -0.130 OA 
HETATM   20  O   UNL     1     -11.022   5.717  66.597  1.00  0.00    -0.277 OA 
BRANCH  14  21
HETATM   21  C   UNL     1      -7.996   6.585  69.954  1.00  0.00    -0.116 C  
BRANCH  21  22
HETATM   22  O   UNL     1      -8.329   7.964  70.060  1.00  0.00    -0.118 OA 
BRANCH  22  23
HETATM   23  P   UNL     1      -7.525   8.857  71.112  1.00  0.00    -0.053 P  
HETATM   24  O   UNL     1      -7.989   8.824  72.530  1.00  0.00    -0.373 OA 
HETATM   25  O   UNL     1      -6.057   8.206  71.034  1.00  0.00    -0.033 OA 
BRANCH  23  26
HETATM   26  O   UNL     1      -7.300  10.278  70.457  1.00  0.00    -0.281 OA 
BRANCH  26  27
HETATM   27  P   UNL     1      -7.569  10.630  68.939  1.00  0.00    -0.132 P  
HETATM   28  O   UNL     1      -6.810   9.447  68.160  1.00  0.00    -0.063 OA 
HETATM   29  O   UNL     1      -7.091  11.948  68.430  1.00  0.00    -0.074 OA 
BRANCH  27  30
HETATM   30  O   UNL     1      -9.114  10.318  68.642  1.00  0.00    -0.138 OA 
BRANCH  30  31
HETATM   31  C   UNL     1      -9.686  10.604  67.370  1.00  0.00    -0.167 C  
BRANCH  31  32
HETATM   32  C   UNL     1     -10.850  11.587  67.434  1.00  0.00    -0.246 C  
HETATM   33  O   UNL     1     -10.923  12.233  68.720  1.00  0.00    -0.220 OA 
HETATM   34  C   UNL     1     -11.788  13.361  68.492  1.00  0.00    -0.366 C  
HETATM   35  H   UNL     1     -11.237  13.094  64.552  1.00  0.00     0.000 HD 
HETATM   36  C   UNL     1     -11.380  13.912  67.116  1.00  0.00    -0.327 C  
HETATM   37  C   UNL     1     -10.713  12.721  66.424  1.00  0.00    -0.262 C  
HETATM   38  H   UNL     1     -12.229  14.740  65.492  1.00  0.00     0.000 HD 
HETATM   39  O   UNL     1     -12.481  14.400  66.343  1.00  0.00    -0.389 OA 
HETATM   40  O   UNL     1     -11.322  12.388  65.181  1.00  0.00    -0.305 OA 
BRANCH  34  41
HETATM   41  N   UNL     1     -11.655  14.331  69.560  1.00  0.00    -0.284 NA 
HETATM   42  C   UNL     1     -10.904  15.472  69.573  1.00  0.00    -0.267 A  
HETATM   43  N   UNL     1     -11.054  16.146  70.697  1.00  0.00    -0.336 NA 
HETATM   44  C   UNL     1     -11.922  15.386  71.454  1.00  0.00    -0.378 A  
HETATM   45  C   UNL     1     -12.481  15.563  72.730  1.00  0.00    -0.418 A  
HETATM   46  N   UNL     1     -12.254  16.688  73.510  1.00  0.00    -0.408 NA 
HETATM   47  N   UNL     1     -13.279  14.589  73.226  1.00  0.00    -0.596 NA 
HETATM   48  H1  UNL     1     -12.660  16.817  74.437  1.00  0.00     0.000 HD 
HETATM   49  C   UNL     1     -13.538  13.512  72.452  1.00  0.00    -0.608 A  
HETATM   50  H2  UNL     1     -12.511  17.502  72.950  1.00  0.00     0.000 HD 
HETATM   51  N   UNL     1     -13.105  13.255  71.196  1.00  0.00    -0.206 NA 
HETATM   52  C   UNL     1     -12.287  14.236  70.773  1.00  0.00    -0.357 A  
ENDBRANCH  34  41
ENDBRANCH  31  32
ENDBRANCH  30  31
ENDBRANCH  27  30
ENDBRANCH  26  27
ENDBRANCH  23  26
ENDBRANCH  22  23
ENDBRANCH  21  22
ENDBRANCH  14  21
ENDBRANCH   8  12
ENDBRANCH   4   6
TORSDOF 11
ENDMDL
MODEL       25
REMARK 921   NORMALIZED FREE ENERGY PREDICTED BY IDOCK:   -7.38 KCAL/MOL
REMARK 922        TOTAL FREE ENERGY PREDICTED BY IDOCK:  -14.32 KCAL/MOL
REMARK 923 INTER-LIGAND FREE ENERGY PREDICTED BY IDOCK:  -12.22 KCAL/MOL
REMARK 924 INTRA-LIGAND FREE ENERGY PREDICTED BY IDOCK:   -2.10 KCAL/MOL
REMARK 927      BINDING AFFINITY PREDICTED BY RF-SCORE:    0.00 PKD
ROOT
HETATM    1  N   UNL     1     -13.916   6.814  71.878  1.00  0.00    -0.437 N  
HETATM    2  H1  UNL     1     -13.618   5.902  72.227  1.00  0.00     0.000 HD 
HETATM    3  H2  UNL     1     -14.900   6.975  71.664  1.00  0.00     0.000 HD 
HETATM    4  C   UNL     1     -13.021   7.810  71.697  1.00  0.00    -0.345 C  
HETATM    5  O   UNL     1     -13.379   8.909  71.276  1.00  0.00    -0.287 OA 
ENDROOT
BRANCH   4   6
HETATM    6  C   UNL     1     -11.608   7.501  72.014  1.00  0.00    -0.326 C  
HETATM    7  C   UNL     1     -11.115   6.359  71.500  1.00  0.00    -0.273 C  
HETATM    8  N   UNL     1      -9.791   5.953  71.650  1.00  0.00    -0.164 NA 
HETATM    9  C   UNL     1     -10.732   8.435  72.803  1.00  0.00    -0.201 C  
HETATM   10  C   UNL     1      -8.981   6.705  72.509  1.00  0.00    -0.131 C  
HETATM   11  C   UNL     1      -9.364   7.860  73.072  1.00  0.00    -0.329 C  
BRANCH   8  12
HETATM   12  C   UNL     1      -9.152   4.887  70.847  1.00  0.00    -0.142 C  
HETATM   13  O   UNL     1      -7.943   5.414  70.255  1.00  0.00    -0.088 OA 
HETATM   14  C   UNL     1      -8.295   5.979  68.971  1.00  0.00    -0.111 C  
HETATM   15  H   UNL     1      -9.880   2.651  68.528  1.00  0.00     0.000 HD 
HETATM   16  C   UNL     1      -9.578   5.293  68.511  1.00  0.00    -0.135 C  
HETATM   17  H   UNL     1     -10.166   4.183  66.983  1.00  0.00     0.000 HD 
HETATM   18  C   UNL     1      -9.909   4.317  69.637  1.00  0.00    -0.174 C  
HETATM   19  O   UNL     1      -9.367   4.610  67.269  1.00  0.00    -0.127 OA 
HETATM   20  O   UNL     1      -9.412   3.004  69.276  1.00  0.00    -0.156 OA 
BRANCH  14  21
HETATM   21  C   UNL     1      -8.459   7.502  69.084  1.00  0.00    -0.136 C  
BRANCH  21  22
HETATM   22  O   UNL     1      -9.488   7.973  68.222  1.00  0.00    -0.140 OA 
BRANCH  22  23
HETATM   23  P   UNL     1      -9.096   9.002  67.066  1.00  0.00    -0.138 P  
HETATM   24  O   UNL     1      -7.689   9.498  67.044  1.00  0.00    -0.091 OA 
HETATM   25  O   UNL     1      -9.353   8.119  65.747  1.00  0.00    -0.113 OA 
BRANCH  23  26
HETATM   26  O   UNL     1     -10.246  10.083  66.979  1.00  0.00    -0.213 OA 
BRANCH  26  27
HETATM   27  P   UNL     1     -10.654  11.070  68.145  1.00  0.00    -0.228 P  
HETATM   28  O   UNL     1      -9.381  12.048  68.243  1.00  0.00    -0.194 OA 
HETATM   29  O   UNL     1     -10.941  10.489  69.487  1.00  0.00    -0.228 OA 
BRANCH  27  30
HETATM   30  O   UNL     1     -11.801  12.035  67.574  1.00  0.00    -0.526 OA 
BRANCH  30  31
HETATM   31  C   UNL     1     -11.862  12.357  66.188  1.00  0.00    -0.376 C  
BRANCH  31  32
HETATM   32  C   UNL     1     -11.905  13.857  65.914  1.00  0.00    -0.382 C  
HETATM   33  O   UNL     1     -11.009  14.575  66.784  1.00  0.00    -0.303 OA 
HETATM   34  C   UNL     1     -10.883  15.867  66.159  1.00  0.00    -0.208 C  
HETATM   35  H   UNL     1     -12.272  14.426  62.710  1.00  0.00     0.000 HD 
HETATM   36  C   UNL     1     -10.800  15.580  64.651  1.00  0.00    -0.254 C  
HETATM   37  C   UNL     1     -11.456  14.205  64.499  1.00  0.00    -0.372 C  
HETATM   38  H   UNL     1     -11.415  16.377  62.911  1.00  0.00     0.000 HD 
HETATM   39  O   UNL     1     -11.466  16.554  63.843  1.00  0.00    -1.145 OA 
HETATM   40  O   UNL     1     -12.551  14.209  63.591  1.00  0.00    -0.831 OA 
BRANCH  34  41
HETATM   41  N   UNL     1      -9.726  16.572  66.673  1.00  0.00    -0.247 NA 
HETATM   42  C   UNL     1      -8.531  16.048  67.079  1.00  0.00    -0.214 A  
HETATM   43  N   UNL     1      -7.683  16.987  67.448  1.00  0.00    -0.166 NA 
HETATM   44  C   UNL     1      -8.376  18.171  67.299  1.00  0.00    -0.241 A  
HETATM   45  C   UNL     1      -8.026  19.514  67.512  1.00  0.00    -0.273 A  
HETATM   46  N   UNL     1      -6.761  19.916  67.914  1.00  0.00    -0.242 NA 
HETATM   47  N   UNL     1      -8.970  20.465  67.317  1.00  0.00    -0.355 NA 
HETATM   48  H1  UNL     1      -6.507  20.892  68.069  1.00  0.00     0.000 HD 
HETATM   49  C   UNL     1     -10.190  20.082  66.882  1.00  0.00    -0.462 A  
HETATM   50  H2  UNL     1      -6.093  19.531  67.246  1.00  0.00     0.000 HD 
HETATM   51  N   UNL     1     -10.627  18.834  66.592  1.00  0.00    -0.409 NA 
HETATM   52  C   UNL     1      -9.662  17.930  66.843  1.00  0.00    -0.309 A  
ENDBRANCH  34  41
ENDBRANCH  31  32
ENDBRANCH  30  31
ENDBRANCH  27  30
ENDBRANCH  26  27
ENDBRANCH  23  26
ENDBRANCH  22  23
ENDBRANCH  21  22
ENDBRANCH  14  21
ENDBRANCH   8  12
ENDBRANCH   4   6
TORSDOF 11
ENDMDL
MODEL       26
REMARK 921   NORMALIZED FREE ENERGY PREDICTED BY IDOCK:   -7.35 KCAL/MOL
REMARK 922        TOTAL FREE ENERGY PREDICTED BY IDOCK:  -14.28 KCAL/MOL
REMARK 923 INTER-LIGAND FREE ENERGY PREDICTED BY IDOCK:  -11.60 KCAL/MOL
REMARK 924 INTRA-LIGAND FREE ENERGY PREDICTED BY IDOCK:   -2.68 KCAL/MOL
REMARK 927      BINDING AFFINITY PREDICTED BY RF-SCORE:    0.00 PKD
ROOT
HETATM    1  N   UNL     1      -6.607  20.910  66.660  1.00  0.00    -0.321 N  
HETATM    2  H1  UNL     1      -7.396  21.554  66.590  1.00  0.00     0.000 HD 
HETATM    3  H2  UNL     1      -5.663  21.248  66.477  1.00  0.00     0.000 HD 
HETATM    4  C   UNL     1      -6.801  19.615  66.992  1.00  0.00    -0.200 C  
HETATM    5  O   UNL     1      -5.849  18.838  67.076  1.00  0.00    -0.155 OA 
ENDROOT
BRANCH   4   6
HETATM    6  C   UNL     1      -8.199  19.190  67.230  1.00  0.00    -0.299 C  
HETATM    7  C   UNL     1      -8.375  18.149  68.064  1.00  0.00    -0.261 C  
HETATM    8  N   UNL     1      -9.624  17.665  68.443  1.00  0.00    -0.297 NA 
HETATM    9  C   UNL     1      -9.377  19.918  66.642  1.00  0.00    -0.500 C  
HETATM   10  C   UNL     1     -10.745  18.203  67.798  1.00  0.00    -0.335 C  
HETATM   11  C   UNL     1     -10.690  19.243  66.954  1.00  0.00    -0.543 C  
BRANCH   8  12
HETATM   12  C   UNL     1      -9.851  16.748  69.581  1.00  0.00     0.121 C  
HETATM   13  O   UNL     1      -9.289  15.457  69.256  1.00  0.00    -0.224 OA 
HETATM   14  C   UNL     1     -10.320  14.681  68.606  1.00  0.00    -0.246 C  
HETATM   15  H   UNL     1     -12.259  15.722  71.596  1.00  0.00     0.000 HD 
HETATM   16  C   UNL     1     -11.664  15.256  69.047  1.00  0.00    -0.347 C  
HETATM   17  H   UNL     1     -13.277  14.616  69.997  1.00  0.00     0.000 HD 
HETATM   18  C   UNL     1     -11.296  16.405  69.980  1.00  0.00    -0.175 C  
HETATM   19  O   UNL     1     -12.440  14.258  69.722  1.00  0.00    -0.323 OA 
HETATM   20  O   UNL     1     -11.366  15.935  71.349  1.00  0.00    -0.382 OA 
BRANCH  14  21
HETATM   21  C   UNL     1     -10.142  14.727  67.080  1.00  0.00    -0.240 C  
BRANCH  21  22
HETATM   22  O   UNL     1     -11.366  15.046  66.429  1.00  0.00    -0.341 OA 
BRANCH  22  23
HETATM   23  P   UNL     1     -11.377  15.130  64.835  1.00  0.00    -0.299 P  
HETATM   24  O   UNL     1     -11.518  16.484  64.225  1.00  0.00    -1.000 OA 
HETATM   25  O   UNL     1      -9.923  14.548  64.471  1.00  0.00    -0.116 OA 
BRANCH  23  26
HETATM   26  O   UNL     1     -12.338  13.993  64.304  1.00  0.00    -0.593 OA 
BRANCH  26  27
HETATM   27  P   UNL     1     -12.264  12.471  64.728  1.00  0.00    -0.399 P  
HETATM   28  O   UNL     1     -13.563  11.842  64.020  1.00  0.00    -0.492 OA 
HETATM   29  O   UNL     1     -12.284  12.147  66.183  1.00  0.00    -0.611 OA 
BRANCH  27  30
HETATM   30  O   UNL     1     -11.055  11.806  63.910  1.00  0.00    -0.352 OA 
BRANCH  30  31
HETATM   31  C   UNL     1     -10.535  10.534  64.281  1.00  0.00     0.003 C  
BRANCH  31  32
HETATM   32  C   UNL     1      -9.047  10.560  64.618  1.00  0.00    -0.218 C  
HETATM   33  O   UNL     1      -8.801  11.263  65.852  1.00  0.00    -0.195 OA 
HETATM   34  C   UNL     1      -7.461  10.873  66.210  1.00  0.00    -0.129 C  
HETATM   35  H   UNL     1      -7.623   7.744  63.742  1.00  0.00     0.000 HD 
HETATM   36  C   UNL     1      -7.372   9.375  65.874  1.00  0.00    -0.095 C  
HETATM   37  C   UNL     1      -8.471   9.165  64.829  1.00  0.00    -0.178 C  
HETATM   38  H   UNL     1      -6.043   8.051  65.153  1.00  0.00     0.000 HD 
HETATM   39  O   UNL     1      -6.098   8.976  65.360  1.00  0.00    -0.060 OA 
HETATM   40  O   UNL     1      -7.982   8.614  63.611  1.00  0.00    -0.145 OA 
BRANCH  34  41
HETATM   41  N   UNL     1      -7.200  11.164  67.605  1.00  0.00    -0.091 NA 
HETATM   42  C   UNL     1      -7.309  10.323  68.676  1.00  0.00    -0.083 A  
HETATM   43  N   UNL     1      -6.947  10.909  69.800  1.00  0.00    -0.142 NA 
HETATM   44  C   UNL     1      -6.616  12.199  69.437  1.00  0.00    -0.090 A  
HETATM   45  C   UNL     1      -6.149  13.305  70.166  1.00  0.00    -0.107 A  
HETATM   46  N   UNL     1      -5.870  13.258  71.525  1.00  0.00    -0.554 NA 
HETATM   47  N   UNL     1      -5.961  14.476  69.513  1.00  0.00    -0.101 NA 
HETATM   48  H1  UNL     1      -5.531  14.061  72.054  1.00  0.00     0.000 HD 
HETATM   49  C   UNL     1      -6.188  14.514  68.182  1.00  0.00    -0.142 A  
HETATM   50  H2  UNL     1      -5.209  12.495  71.673  1.00  0.00     0.000 HD 
HETATM   51  N   UNL     1      -6.586  13.510  67.367  1.00  0.00    -0.253 NA 
HETATM   52  C   UNL     1      -6.794  12.385  68.076  1.00  0.00    -0.089 A  
ENDBRANCH  34  41
ENDBRANCH  31  32
ENDBRANCH  30  31
ENDBRANCH  27  30
ENDBRANCH  26  27
ENDBRANCH  23  26
ENDBRANCH  22  23
ENDBRANCH  21  22
ENDBRANCH  14  21
ENDBRANCH   8  12
ENDBRANCH   4   6
TORSDOF 11
ENDMDL
MODEL       27
REMARK 921   NORMALIZED FREE ENERGY PREDICTED BY IDOCK:   -7.31 KCAL/MOL
REMARK 922        TOTAL FREE ENERGY PREDICTED BY IDOCK:  -14.22 KCAL/MOL
REMARK 923 INTER-LIGAND FREE ENERGY PREDICTED BY IDOCK:  -11.62 KCAL/MOL
REMARK 924 INTRA-LIGAND FREE ENERGY PREDICTED BY IDOCK:   -2.61 KCAL/MOL
REMARK 927      BINDING AFFINITY PREDICTED BY RF-SCORE:    0.00 PKD
ROOT
HETATM    1  N   UNL     1     -10.713   5.558  69.809  1.00  0.00    -0.324 N  
HETATM    2  H1  UNL     1     -10.327   5.805  70.721  1.00  0.00     0.000 HD 
HETATM    3  H2  UNL     1     -11.067   4.614  69.651  1.00  0.00     0.000 HD 
HETATM    4  C   UNL     1     -10.759   6.465  68.809  1.00  0.00    -0.287 C  
HETATM    5  O   UNL     1     -11.223   6.166  67.709  1.00  0.00    -0.294 OA 
ENDROOT
BRANCH   4   6
HETATM    6  C   UNL     1     -10.214   7.810  69.105  1.00  0.00    -0.210 C  
HETATM    7  C   UNL     1      -8.985   8.076  68.625  1.00  0.00    -0.134 C  
HETATM    8  N   UNL     1      -8.355   9.311  68.760  1.00  0.00    -0.116 NA 
HETATM    9  C   UNL     1     -11.005   8.861  69.833  1.00  0.00    -0.190 C  
HETATM   10  C   UNL     1      -8.981  10.268  69.568  1.00  0.00    -0.157 C  
HETATM   11  C   UNL     1     -10.205  10.113  70.093  1.00  0.00    -0.235 C  
BRANCH   8  12
HETATM   12  C   UNL     1      -7.165   9.726  67.986  1.00  0.00    -0.080 C  
HETATM   13  O   UNL     1      -7.365  11.078  67.515  1.00  0.00    -0.094 OA 
HETATM   14  C   UNL     1      -8.007  11.000  66.222  1.00  0.00    -0.148 C  
HETATM   15  H   UNL     1      -5.202   8.663  65.552  1.00  0.00     0.000 HD 
HETATM   16  C   UNL     1      -7.677   9.630  65.634  1.00  0.00    -0.107 C  
HETATM   17  H   UNL     1      -6.763   8.919  64.031  1.00  0.00     0.000 HD 
HETATM   18  C   UNL     1      -6.814   8.960  66.700  1.00  0.00    -0.076 C  
HETATM   19  O   UNL     1      -6.969   9.771  64.397  1.00  0.00    -0.114 OA 
HETATM   20  O   UNL     1      -5.419   9.136  66.347  1.00  0.00    -0.043 OA 
BRANCH  14  21
HETATM   21  C   UNL     1      -9.521  11.221  66.362  1.00  0.00    -0.200 C  
BRANCH  21  22
HETATM   22  O   UNL     1     -10.210  10.822  65.184  1.00  0.00    -0.280 OA 
BRANCH  22  23
HETATM   23  P   UNL     1     -10.402  11.896  64.018  1.00  0.00    -0.439 P  
HETATM   24  O   UNL     1      -9.454  11.830  62.868  1.00  0.00    -0.364 OA 
HETATM   25  O   UNL     1     -11.879  11.542  63.491  1.00  0.00    -0.364 OA 
BRANCH  23  26
HETATM   26  O   UNL     1     -10.616  13.306  64.699  1.00  0.00    -0.359 OA 
BRANCH  26  27
HETATM   27  P   UNL     1     -11.796  14.305  64.367  1.00  0.00    -0.349 P  
HETATM   28  O   UNL     1     -12.940  13.860  65.404  1.00  0.00    -0.722 OA 
HETATM   29  O   UNL     1     -12.349  14.301  62.983  1.00  0.00    -0.380 OA 
BRANCH  27  30
HETATM   30  O   UNL     1     -11.364  15.751  64.911  1.00  0.00    -0.350 OA 
BRANCH  30  31
HETATM   31  C   UNL     1     -10.004  16.040  65.216  1.00  0.00    -0.029 C  
BRANCH  31  32
HETATM   32  C   UNL     1      -9.687  15.968  66.706  1.00  0.00    -0.239 C  
HETATM   33  O   UNL     1     -10.845  15.584  67.472  1.00  0.00    -0.295 OA 
HETATM   34  C   UNL     1     -10.303  15.196  68.748  1.00  0.00    -0.236 C  
HETATM   35  H   UNL     1      -6.657  14.817  67.179  1.00  0.00     0.000 HD 
HETATM   36  C   UNL     1      -9.016  14.422  68.423  1.00  0.00    -0.188 C  
HETATM   37  C   UNL     1      -8.628  14.919  67.028  1.00  0.00    -0.238 C  
HETATM   38  H   UNL     1      -7.161  14.171  69.156  1.00  0.00     0.000 HD 
HETATM   39  O   UNL     1      -7.956  14.650  69.357  1.00  0.00    -0.110 OA 
HETATM   40  O   UNL     1      -7.317  15.470  66.978  1.00  0.00    -0.207 OA 
BRANCH  34  41
HETATM   41  N   UNL     1     -11.268  14.416  69.497  1.00  0.00    -0.257 NA 
HETATM   42  C   UNL     1     -11.863  13.240  69.136  1.00  0.00    -0.329 A  
HETATM   43  N   UNL     1     -12.659  12.781  70.082  1.00  0.00    -0.009 NA 
HETATM   44  C   UNL     1     -12.593  13.723  71.089  1.00  0.00    -0.373 A  
HETATM   45  C   UNL     1     -13.195  13.809  72.355  1.00  0.00    -0.481 A  
HETATM   46  N   UNL     1     -14.017  12.820  72.875  1.00  0.00    -0.483 NA 
HETATM   47  N   UNL     1     -12.964  14.912  73.105  1.00  0.00    -0.494 NA 
HETATM   48  H1  UNL     1     -14.454  12.883  73.795  1.00  0.00     0.000 HD 
HETATM   49  C   UNL     1     -12.129  15.856  72.621  1.00  0.00    -0.511 A  
HETATM   50  H2  UNL     1     -13.494  11.944  72.846  1.00  0.00     0.000 HD 
HETATM   51  N   UNL     1     -11.453  15.862  71.449  1.00  0.00    -0.417 NA 
HETATM   52  C   UNL     1     -11.752  14.764  70.731  1.00  0.00    -0.300 A  
ENDBRANCH  34  41
ENDBRANCH  31  32
ENDBRANCH  30  31
ENDBRANCH  27  30
ENDBRANCH  26  27
ENDBRANCH  23  26
ENDBRANCH  22  23
ENDBRANCH  21  22
ENDBRANCH  14  21
ENDBRANCH   8  12
ENDBRANCH   4   6
TORSDOF 11
ENDMDL
MODEL       28
REMARK 921   NORMALIZED FREE ENERGY PREDICTED BY IDOCK:   -7.31 KCAL/MOL
REMARK 922        TOTAL FREE ENERGY PREDICTED BY IDOCK:  -14.22 KCAL/MOL
REMARK 923 INTER-LIGAND FREE ENERGY PREDICTED BY IDOCK:  -11.72 KCAL/MOL
REMARK 924 INTRA-LIGAND FREE ENERGY PREDICTED BY IDOCK:   -2.49 KCAL/MOL
REMARK 927      BINDING AFFINITY PREDICTED BY RF-SCORE:    0.00 PKD
ROOT
HETATM    1  N   UNL     1      -9.646  12.790  65.084  1.00  0.00    -0.478 N  
HETATM    2  H1  UNL     1      -8.846  13.219  65.549  1.00  0.00     0.000 HD 
HETATM    3  H2  UNL     1     -10.208  13.341  64.436  1.00  0.00     0.000 HD 
HETATM    4  C   UNL     1      -9.970  11.499  65.318  1.00  0.00    -0.260 C  
HETATM    5  O   UNL     1     -10.936  10.981  64.758  1.00  0.00    -0.224 OA 
ENDROOT
BRANCH   4   6
HETATM    6  C   UNL     1      -9.119  10.763  66.281  1.00  0.00    -0.192 C  
HETATM    7  C   UNL     1      -9.114   9.422  66.172  1.00  0.00    -0.171 C  
HETATM    8  N   UNL     1      -8.323   8.587  66.956  1.00  0.00    -0.110 NA 
HETATM    9  C   UNL     1      -8.241  11.461  67.283  1.00  0.00    -0.150 C  
HETATM   10  C   UNL     1      -7.612   9.176  68.009  1.00  0.00    -0.085 C  
HETATM   11  C   UNL     1      -7.541  10.500  68.210  1.00  0.00    -0.096 C  
BRANCH   8  12
HETATM   12  C   UNL     1      -8.062   7.162  66.653  1.00  0.00    -0.109 C  
HETATM   13  O   UNL     1      -9.311   6.439  66.713  1.00  0.00    -0.138 OA 
HETATM   14  C   UNL     1      -9.483   5.974  68.070  1.00  0.00    -0.113 C  
HETATM   15  H   UNL     1      -6.043   4.695  67.514  1.00  0.00     0.000 HD 
HETATM   16  C   UNL     1      -8.095   5.897  68.701  1.00  0.00    -0.103 C  
HETATM   17  H   UNL     1      -6.940   4.509  69.508  1.00  0.00     0.000 HD 
HETATM   18  C   UNL     1      -7.151   6.359  67.595  1.00  0.00    -0.084 C  
HETATM   19  O   UNL     1      -7.804   4.556  69.115  1.00  0.00    -0.069 OA 
HETATM   20  O   UNL     1      -6.606   5.192  66.931  1.00  0.00    -0.050 OA 
BRANCH  14  21
HETATM   21  C   UNL     1     -10.421   6.915  68.843  1.00  0.00    -0.208 C  
BRANCH  21  22
HETATM   22  O   UNL     1     -11.223   6.193  69.770  1.00  0.00    -0.384 OA 
BRANCH  22  23
HETATM   23  P   UNL     1     -11.318   6.731  71.270  1.00  0.00    -0.324 P  
HETATM   24  O   UNL     1     -12.071   5.893  72.248  1.00  0.00    -0.275 OA 
HETATM   25  O   UNL     1      -9.769   6.762  71.701  1.00  0.00    -0.163 OA 
BRANCH  23  26
HETATM   26  O   UNL     1     -11.681   8.268  71.203  1.00  0.00    -0.277 OA 
BRANCH  26  27
HETATM   27  P   UNL     1     -13.116   8.875  71.470  1.00  0.00    -0.274 P  
HETATM   28  O   UNL     1     -13.115   9.102  73.061  1.00  0.00    -0.255 OA 
HETATM   29  O   UNL     1     -14.304   8.061  71.083  1.00  0.00    -0.302 OA 
BRANCH  27  30
HETATM   30  O   UNL     1     -13.116  10.373  70.896  1.00  0.00    -0.384 OA 
BRANCH  30  31
HETATM   31  C   UNL     1     -13.303  11.487  71.762  1.00  0.00    -0.253 C  
BRANCH  31  32
HETATM   32  C   UNL     1     -12.475  12.707  71.371  1.00  0.00    -0.104 C  
HETATM   33  O   UNL     1     -12.151  12.693  69.967  1.00  0.00    -0.316 OA 
HETATM   34  C   UNL     1     -11.728  14.043  69.697  1.00  0.00    -0.311 C  
HETATM   35  H   UNL     1     -13.458  15.344  73.047  1.00  0.00     0.000 HD 
HETATM   36  C   UNL     1     -12.693  14.937  70.494  1.00  0.00    -0.347 C  
HETATM   37  C   UNL     1     -13.222  14.017  71.597  1.00  0.00    -0.368 C  
HETATM   38  H   UNL     1     -12.667  16.649  71.547  1.00  0.00     0.000 HD 
HETATM   39  O   UNL     1     -12.072  16.097  71.054  1.00  0.00    -0.376 OA 
HETATM   40  O   UNL     1     -12.993  14.528  72.905  1.00  0.00    -0.450 OA 
BRANCH  34  41
HETATM   41  N   UNL     1     -11.746  14.309  68.273  1.00  0.00    -0.325 NA 
HETATM   42  C   UNL     1     -12.394  13.611  67.293  1.00  0.00    -0.153 A  
HETATM   43  N   UNL     1     -12.228  14.161  66.106  1.00  0.00    -0.442 NA 
HETATM   44  C   UNL     1     -11.411  15.250  66.331  1.00  0.00    -0.161 A  
HETATM   45  C   UNL     1     -10.885  16.239  65.483  1.00  0.00    -0.245 A  
HETATM   46  N   UNL     1     -11.174  16.311  64.128  1.00  0.00    -1.283 NA 
HETATM   47  N   UNL     1     -10.054  17.168  66.012  1.00  0.00    -0.472 NA 
HETATM   48  H1  UNL     1     -10.793  17.029  63.512  1.00  0.00     0.000 HD 
HETATM   49  C   UNL     1      -9.806  17.127  67.339  1.00  0.00    -0.264 A  
HETATM   50  H2  UNL     1     -12.190  16.340  64.035  1.00  0.00     0.000 HD 
HETATM   51  N   UNL     1     -10.291  16.264  68.261  1.00  0.00    -0.261 NA 
HETATM   52  C   UNL     1     -11.076  15.343  67.672  1.00  0.00    -0.316 A  
ENDBRANCH  34  41
ENDBRANCH  31  32
ENDBRANCH  30  31
ENDBRANCH  27  30
ENDBRANCH  26  27
ENDBRANCH  23  26
ENDBRANCH  22  23
ENDBRANCH  21  22
ENDBRANCH  14  21
ENDBRANCH   8  12
ENDBRANCH   4   6
TORSDOF 11
ENDMDL
MODEL       29
REMARK 921   NORMALIZED FREE ENERGY PREDICTED BY IDOCK:   -7.30 KCAL/MOL
REMARK 922        TOTAL FREE ENERGY PREDICTED BY IDOCK:  -14.19 KCAL/MOL
REMARK 923 INTER-LIGAND FREE ENERGY PREDICTED BY IDOCK:  -11.58 KCAL/MOL
REMARK 924 INTRA-LIGAND FREE ENERGY PREDICTED BY IDOCK:   -2.61 KCAL/MOL
REMARK 927      BINDING AFFINITY PREDICTED BY RF-SCORE:    0.00 PKD
ROOT
HETATM    1  N   UNL     1      -7.111  12.035  69.534  1.00  0.00    -0.339 N  
HETATM    2  H1  UNL     1      -7.835  12.554  70.032  1.00  0.00     0.000 HD 
HETATM    3  H2  UNL     1      -6.545  11.352  70.037  1.00  0.00     0.000 HD 
HETATM    4  C   UNL     1      -6.894  12.242  68.217  1.00  0.00    -0.075 C  
HETATM    5  O   UNL     1      -6.021  11.616  67.617  1.00  0.00    -0.051 OA 
ENDROOT
BRANCH   4   6
HETATM    6  C   UNL     1      -7.744  13.257  67.554  1.00  0.00    -0.175 C  
HETATM    7  C   UNL     1      -8.935  12.832  67.092  1.00  0.00    -0.214 C  
HETATM    8  N   UNL     1      -9.877  13.670  66.501  1.00  0.00    -0.285 NA 
HETATM    9  C   UNL     1      -7.351  14.706  67.461  1.00  0.00    -0.220 C  
HETATM   10  C   UNL     1      -9.493  14.992  66.246  1.00  0.00    -0.311 C  
HETATM   11  C   UNL     1      -8.336  15.525  66.664  1.00  0.00    -0.286 C  
BRANCH   8  12
HETATM   12  C   UNL     1     -11.293  13.302  66.277  1.00  0.00    -0.309 C  
HETATM   13  O   UNL     1     -11.356  11.904  65.914  1.00  0.00    -0.334 OA 
HETATM   14  C   UNL     1     -11.252  11.821  64.475  1.00  0.00    -0.305 C  
HETATM   15  H   UNL     1     -13.975  14.337  64.653  1.00  0.00     0.000 HD 
HETATM   16  C   UNL     1     -11.709  13.163  63.909  1.00  0.00    -0.456 C  
HETATM   17  H   UNL     1     -13.125  13.822  62.696  1.00  0.00     0.000 HD 
HETATM   18  C   UNL     1     -12.066  13.990  65.141  1.00  0.00    -0.410 C  
HETATM   19  O   UNL     1     -12.841  12.987  63.048  1.00  0.00    -0.447 OA 
HETATM   20  O   UNL     1     -13.497  13.912  65.356  1.00  0.00    -0.672 OA 
BRANCH  14  21
HETATM   21  C   UNL     1      -9.811  11.478  64.062  1.00  0.00    -0.274 C  
BRANCH  21  22
HETATM   22  O   UNL     1      -9.648  10.076  63.883  1.00  0.00    -0.283 OA 
BRANCH  22  23
HETATM   23  P   UNL     1      -8.165   9.487  63.829  1.00  0.00    -0.191 P  
HETATM   24  O   UNL     1      -7.434   9.598  62.533  1.00  0.00    -0.108 OA 
HETATM   25  O   UNL     1      -7.416  10.396  64.924  1.00  0.00    -0.137 OA 
BRANCH  23  26
HETATM   26  O   UNL     1      -8.190   8.069  64.527  1.00  0.00    -0.148 OA 
BRANCH  26  27
HETATM   27  P   UNL     1      -8.777   7.776  65.966  1.00  0.00    -0.125 P  
HETATM   28  O   UNL     1      -7.613   8.307  66.939  1.00  0.00    -0.089 OA 
HETATM   29  O   UNL     1      -9.110   6.365  66.313  1.00  0.00    -0.153 OA 
BRANCH  27  30
HETATM   30  O   UNL     1      -9.962   8.827  66.221  1.00  0.00    -0.283 OA 
BRANCH  30  31
HETATM   31  C   UNL     1     -10.867   8.656  67.306  1.00  0.00    -0.007 C  
BRANCH  31  32
HETATM   32  C   UNL     1     -10.407   9.333  68.594  1.00  0.00    -0.205 C  
HETATM   33  O   UNL     1     -11.211  10.490  68.895  1.00  0.00    -0.243 OA 
HETATM   34  C   UNL     1     -10.914  10.767  70.277  1.00  0.00    -0.085 C  
HETATM   35  H   UNL     1      -9.441   7.096  70.783  1.00  0.00     0.000 HD 
HETATM   36  C   UNL     1     -10.844   9.391  70.959  1.00  0.00    -0.336 C  
HETATM   37  C   UNL     1     -10.541   8.425  69.812  1.00  0.00    -0.221 C  
HETATM   38  H   UNL     1      -9.798   8.454  72.397  1.00  0.00     0.000 HD 
HETATM   39  O   UNL     1      -9.841   9.305  71.976  1.00  0.00    -0.194 OA 
HETATM   40  O   UNL     1      -9.358   7.662  70.024  1.00  0.00    -0.154 OA 
BRANCH  34  41
HETATM   41  N   UNL     1     -11.918  11.641  70.850  1.00  0.00    -0.202 NA 
HETATM   42  C   UNL     1     -12.900  11.322  71.745  1.00  0.00    -0.360 A  
HETATM   43  N   UNL     1     -13.612  12.377  72.088  1.00  0.00    -0.434 NA 
HETATM   44  C   UNL     1     -13.079  13.419  71.357  1.00  0.00    -0.291 A  
HETATM   45  C   UNL     1     -13.385  14.788  71.285  1.00  0.00    -0.399 A  
HETATM   46  N   UNL     1     -14.362  15.392  72.064  1.00  0.00    -0.553 NA 
HETATM   47  N   UNL     1     -12.694  15.558  70.412  1.00  0.00    -0.400 NA 
HETATM   48  H1  UNL     1     -14.584  16.386  72.011  1.00  0.00     0.000 HD 
HETATM   49  C   UNL     1     -11.712  14.984  69.684  1.00  0.00    -0.321 A  
HETATM   50  H2  UNL     1     -14.147  15.179  73.039  1.00  0.00     0.000 HD 
HETATM   51  N   UNL     1     -11.292  13.698  69.704  1.00  0.00    -0.205 NA 
HETATM   52  C   UNL     1     -12.039  12.974  70.557  1.00  0.00    -0.292 A  
ENDBRANCH  34  41
ENDBRANCH  31  32
ENDBRANCH  30  31
ENDBRANCH  27  30
ENDBRANCH  26  27
ENDBRANCH  23  26
ENDBRANCH  22  23
ENDBRANCH  21  22
ENDBRANCH  14  21
ENDBRANCH   8  12
ENDBRANCH   4   6
TORSDOF 11
ENDMDL
MODEL       30
REMARK 921   NORMALIZED FREE ENERGY PREDICTED BY IDOCK:   -7.29 KCAL/MOL
REMARK 922        TOTAL FREE ENERGY PREDICTED BY IDOCK:  -14.18 KCAL/MOL
REMARK 923 INTER-LIGAND FREE ENERGY PREDICTED BY IDOCK:  -11.41 KCAL/MOL
REMARK 924 INTRA-LIGAND FREE ENERGY PREDICTED BY IDOCK:   -2.77 KCAL/MOL
REMARK 927      BINDING AFFINITY PREDICTED BY RF-SCORE:    0.00 PKD
ROOT
HETATM    1  N   UNL     1     -10.963   5.164  65.985  1.00  0.00    -0.764 N  
HETATM    2  H1  UNL     1     -11.576   5.886  65.606  1.00  0.00     0.000 HD 
HETATM    3  H2  UNL     1     -10.864   4.276  65.493  1.00  0.00     0.000 HD 
HETATM    4  C   UNL     1     -10.281   5.371  67.133  1.00  0.00    -0.224 C  
HETATM    5  O   UNL     1      -9.541   4.499  67.591  1.00  0.00    -0.150 OA 
ENDROOT
BRANCH   4   6
HETATM    6  C   UNL     1     -10.482   6.676  67.801  1.00  0.00    -0.275 C  
HETATM    7  C   UNL     1     -10.746   6.639  69.120  1.00  0.00    -0.264 C  
HETATM    8  N   UNL     1     -10.899   7.777  69.909  1.00  0.00    -0.245 NA 
HETATM    9  C   UNL     1     -10.329   7.987  67.079  1.00  0.00    -0.414 C  
HETATM   10  C   UNL     1     -10.927   9.014  69.256  1.00  0.00    -0.032 C  
HETATM   11  C   UNL     1     -10.673   9.171  67.948  1.00  0.00    -0.224 C  
BRANCH   8  12
HETATM   12  C   UNL     1     -10.873   7.772  71.389  1.00  0.00    -0.228 C  
HETATM   13  O   UNL     1      -9.977   8.812  71.840  1.00  0.00    -0.290 OA 
HETATM   14  C   UNL     1      -8.658   8.234  71.954  1.00  0.00    -0.168 C  
HETATM   15  H   UNL     1     -10.510   5.696  73.931  1.00  0.00     0.000 HD 
HETATM   16  C   UNL     1      -8.837   6.730  72.142  1.00  0.00    -0.133 C  
HETATM   17  H   UNL     1      -8.382   5.370  73.505  1.00  0.00     0.000 HD 
HETATM   18  C   UNL     1     -10.349   6.524  72.116  1.00  0.00    -0.198 C  
HETATM   19  O   UNL     1      -8.270   6.307  73.388  1.00  0.00    -0.114 OA 
HETATM   20  O   UNL     1     -10.835   6.468  73.481  1.00  0.00    -0.272 OA 
BRANCH  14  21
HETATM   21  C   UNL     1      -7.819   8.567  70.711  1.00  0.00    -0.097 C  
BRANCH  21  22
HETATM   22  O   UNL     1      -7.683   9.974  70.545  1.00  0.00    -0.264 OA 
BRANCH  22  23
HETATM   23  P   UNL     1      -6.810  10.511  69.320  1.00  0.00    -0.106 P  
HETATM   24  O   UNL     1      -6.396  11.944  69.356  1.00  0.00    -0.095 OA 
HETATM   25  O   UNL     1      -5.496   9.590  69.431  1.00  0.00    -0.035 OA 
BRANCH  23  26
HETATM   26  O   UNL     1      -7.480   9.984  67.990  1.00  0.00    -0.086 OA 
BRANCH  26  27
HETATM   27  P   UNL     1      -7.043  10.397  66.527  1.00  0.00    -0.127 P  
HETATM   28  O   UNL     1      -7.357   9.071  65.675  1.00  0.00    -0.084 OA 
HETATM   29  O   UNL     1      -5.626  10.806  66.309  1.00  0.00    -0.074 OA 
BRANCH  27  30
HETATM   30  O   UNL     1      -8.132  11.439  65.980  1.00  0.00    -0.084 OA 
BRANCH  30  31
HETATM   31  C   UNL     1      -9.181  11.013  65.116  1.00  0.00    -0.205 C  
BRANCH  31  32
HETATM   32  C   UNL     1     -10.485  11.778  65.321  1.00  0.00    -0.274 C  
HETATM   33  O   UNL     1     -10.532  12.397  66.621  1.00  0.00    -0.227 OA 
HETATM   34  C   UNL     1     -11.600  13.357  66.508  1.00  0.00    -0.357 C  
HETATM   35  H   UNL     1     -11.428  13.203  62.527  1.00  0.00     0.000 HD 
HETATM   36  C   UNL     1     -11.440  13.976  65.109  1.00  0.00    -0.328 C  
HETATM   37  C   UNL     1     -10.654  12.922  64.326  1.00  0.00    -0.408 C  
HETATM   38  H   UNL     1     -12.586  14.648  63.600  1.00  0.00     0.000 HD 
HETATM   39  O   UNL     1     -12.684  14.266  64.465  1.00  0.00    -0.662 OA 
HETATM   40  O   UNL     1     -11.323  12.491  63.146  1.00  0.00    -0.401 OA 
BRANCH  34  41
HETATM   41  N   UNL     1     -11.525  14.332  67.577  1.00  0.00    -0.326 NA 
HETATM   42  C   UNL     1     -11.154  15.645  67.496  1.00  0.00    -0.289 A  
HETATM   43  N   UNL     1     -11.244  16.254  68.663  1.00  0.00    -0.356 NA 
HETATM   44  C   UNL     1     -11.668  15.277  69.541  1.00  0.00    -0.339 A  
HETATM   45  C   UNL     1     -11.961  15.292  70.915  1.00  0.00    -0.342 A  
HETATM   46  N   UNL     1     -11.908  16.440  71.692  1.00  0.00    -0.674 NA 
HETATM   47  N   UNL     1     -12.314  14.129  71.512  1.00  0.00    -0.337 NA 
HETATM   48  H1  UNL     1     -12.121  16.451  72.689  1.00  0.00     0.000 HD 
HETATM   49  C   UNL     1     -12.410  13.018  70.750  1.00  0.00    -0.310 A  
HETATM   50  H2  UNL     1     -12.505  17.137  71.245  1.00  0.00     0.000 HD 
HETATM   51  N   UNL     1     -12.206  12.889  69.418  1.00  0.00    -0.169 NA 
HETATM   52  C   UNL     1     -11.821  14.065  68.888  1.00  0.00    -0.355 A  
ENDBRANCH  34  41
ENDBRANCH  31  32
ENDBRANCH  30  31
ENDBRANCH  27  30
ENDBRANCH  26  27
ENDBRANCH  23  26
ENDBRANCH  22  23
ENDBRANCH  21  22
ENDBRANCH  14  21
ENDBRANCH   8  12
ENDBRANCH   4   6
TORSDOF 11
ENDMDL
MODEL       31
REMARK 921   NORMALIZED FREE ENERGY PREDICTED BY IDOCK:   -7.29 KCAL/MOL
REMARK 922        TOTAL FREE ENERGY PREDICTED BY IDOCK:  -14.17 KCAL/MOL
REMARK 923 INTER-LIGAND FREE ENERGY PREDICTED BY IDOCK:  -11.61 KCAL/MOL
REMARK 924 INTRA-LIGAND FREE ENERGY PREDICTED BY IDOCK:   -2.56 KCAL/MOL
REMARK 927      BINDING AFFINITY PREDICTED BY RF-SCORE:    0.00 PKD
ROOT
HETATM    1  N   UNL     1      -9.835  10.140  65.794  1.00  0.00    -0.248 N  
HETATM    2  H1  UNL     1     -10.145  10.641  66.627  1.00  0.00     0.000 HD 
HETATM    3  H2  UNL     1      -9.387   9.229  65.891  1.00  0.00     0.000 HD 
HETATM    4  C   UNL     1     -10.012  10.670  64.564  1.00  0.00    -0.345 C  
HETATM    5  O   UNL     1      -9.637  10.066  63.559  1.00  0.00    -0.267 OA 
ENDROOT
BRANCH   4   6
HETATM    6  C   UNL     1     -10.656  12.002  64.499  1.00  0.00    -0.356 C  
HETATM    7  C   UNL     1     -10.049  12.994  65.176  1.00  0.00    -0.221 C  
HETATM    8  N   UNL     1     -10.488  14.315  65.168  1.00  0.00    -0.386 NA 
HETATM    9  C   UNL     1     -11.879  12.270  63.665  1.00  0.00    -0.610 C  
HETATM   10  C   UNL     1     -11.711  14.583  64.541  1.00  0.00    -0.410 C  
HETATM   11  C   UNL     1     -12.399  13.675  63.834  1.00  0.00    -0.375 C  
BRANCH   8  12
HETATM   12  C   UNL     1      -9.679  15.463  65.633  1.00  0.00    -0.331 C  
HETATM   13  O   UNL     1      -9.212  15.190  66.973  1.00  0.00    -0.202 OA 
HETATM   14  C   UNL     1     -10.205  15.695  67.894  1.00  0.00    -0.239 C  
HETATM   15  H   UNL     1      -9.798  18.758  65.836  1.00  0.00     0.000 HD 
HETATM   16  C   UNL     1     -10.986  16.785  67.165  1.00  0.00    -0.001 C  
HETATM   17  H   UNL     1     -11.345  18.717  67.392  1.00  0.00     0.000 HD 
HETATM   18  C   UNL     1     -10.355  16.836  65.776  1.00  0.00    -0.305 C  
HETATM   19  O   UNL     1     -10.858  18.038  67.847  1.00  0.00    -0.367 OA 
HETATM   20  O   UNL     1      -9.380  17.908  65.747  1.00  0.00    -0.507 OA 
BRANCH  14  21
HETATM   21  C   UNL     1     -11.115  14.555  68.379  1.00  0.00    -0.256 C  
BRANCH  21  22
HETATM   22  O   UNL     1     -10.406  13.323  68.440  1.00  0.00    -0.242 OA 
BRANCH  22  23
HETATM   23  P   UNL     1     -11.230  11.990  68.746  1.00  0.00    -0.308 P  
HETATM   24  O   UNL     1     -12.129  11.482  67.669  1.00  0.00    -0.623 OA 
HETATM   25  O   UNL     1     -10.046  10.925  68.975  1.00  0.00    -0.200 OA 
BRANCH  23  26
HETATM   26  O   UNL     1     -11.843  12.131  70.195  1.00  0.00    -0.333 OA 
BRANCH  26  27
HETATM   27  P   UNL     1     -12.524  10.959  71.011  1.00  0.00    -0.399 P  
HETATM   28  O   UNL     1     -13.401  10.211  69.892  1.00  0.00     0.179 OA 
HETATM   29  O   UNL     1     -13.394  11.323  72.165  1.00  0.00    -0.457 OA 
BRANCH  27  30
HETATM   30  O   UNL     1     -11.381   9.884  71.346  1.00  0.00    -0.364 OA 
BRANCH  30  31
HETATM   31  C   UNL     1     -11.700   8.659  71.995  1.00  0.00    -0.369 C  
BRANCH  31  32
HETATM   32  C   UNL     1     -11.566   7.438  71.090  1.00  0.00    -0.286 C  
HETATM   33  O   UNL     1     -11.020   7.795  69.805  1.00  0.00    -0.237 OA 
HETATM   34  C   UNL     1     -10.609   6.535  69.242  1.00  0.00    -0.247 C  
HETATM   35  H   UNL     1     -10.699   4.806  72.834  1.00  0.00     0.000 HD 
HETATM   36  C   UNL     1      -9.991   5.752  70.411  1.00  0.00    -0.198 C  
HETATM   37  C   UNL     1     -10.611   6.393  71.655  1.00  0.00    -0.222 C  
HETATM   38  H   UNL     1      -9.883   3.864  71.094  1.00  0.00     0.000 HD 
HETATM   39  O   UNL     1     -10.265   4.348  70.372  1.00  0.00    -0.174 OA 
HETATM   40  O   UNL     1     -11.293   5.457  72.482  1.00  0.00    -0.264 OA 
BRANCH  34  41
HETATM   41  N   UNL     1      -9.690   6.742  68.141  1.00  0.00    -0.128 NA 
HETATM   42  C   UNL     1      -8.733   7.709  68.013  1.00  0.00    -0.125 A  
HETATM   43  N   UNL     1      -8.044   7.574  66.897  1.00  0.00    -0.114 NA 
HETATM   44  C   UNL     1      -8.604   6.483  66.264  1.00  0.00    -0.141 A  
HETATM   45  C   UNL     1      -8.314   5.828  65.056  1.00  0.00    -0.138 A  
HETATM   46  N   UNL     1      -7.263   6.193  64.227  1.00  0.00    -0.057 NA 
HETATM   47  N   UNL     1      -9.098   4.791  64.679  1.00  0.00    -0.145 NA 
HETATM   48  H1  UNL     1      -7.052   5.717  63.349  1.00  0.00     0.000 HD 
HETATM   49  C   UNL     1     -10.095   4.405  65.505  1.00  0.00    -0.236 A  
HETATM   50  H2  UNL     1      -6.412   6.180  64.791  1.00  0.00     0.000 HD 
HETATM   51  N   UNL     1     -10.437   4.918  66.709  1.00  0.00    -0.225 NA 
HETATM   52  C   UNL     1      -9.651   5.968  67.012  1.00  0.00    -0.133 A  
ENDBRANCH  34  41
ENDBRANCH  31  32
ENDBRANCH  30  31
ENDBRANCH  27  30
ENDBRANCH  26  27
ENDBRANCH  23  26
ENDBRANCH  22  23
ENDBRANCH  21  22
ENDBRANCH  14  21
ENDBRANCH   8  12
ENDBRANCH   4   6
TORSDOF 11
ENDMDL
MODEL       32
REMARK 921   NORMALIZED FREE ENERGY PREDICTED BY IDOCK:   -7.27 KCAL/MOL
REMARK 922        TOTAL FREE ENERGY PREDICTED BY IDOCK:  -14.14 KCAL/MOL
REMARK 923 INTER-LIGAND FREE ENERGY PREDICTED BY IDOCK:  -11.85 KCAL/MOL
REMARK 924 INTRA-LIGAND FREE ENERGY PREDICTED BY IDOCK:   -2.29 KCAL/MOL
REMARK 927      BINDING AFFINITY PREDICTED BY RF-SCORE:    0.00 PKD
ROOT
HETATM    1  N   UNL     1     -13.557  15.516  70.519  1.00  0.00    -0.825 N  
HETATM    2  H1  UNL     1     -14.156  15.746  69.726  1.00  0.00     0.000 HD 
HETATM    3  H2  UNL     1     -13.965  15.419  71.449  1.00  0.00     0.000 HD 
HETATM    4  C   UNL     1     -12.228  15.336  70.351  1.00  0.00    -0.363 C  
HETATM    5  O   UNL     1     -11.504  15.058  71.308  1.00  0.00    -0.327 OA 
ENDROOT
BRANCH   4   6
HETATM    6  C   UNL     1     -11.702  15.506  68.977  1.00  0.00    -0.392 C  
HETATM    7  C   UNL     1     -12.042  14.556  68.086  1.00  0.00    -0.197 C  
HETATM    8  N   UNL     1     -11.684  14.598  66.740  1.00  0.00    -0.367 NA 
HETATM    9  C   UNL     1     -10.895  16.705  68.561  1.00  0.00    -0.356 C  
HETATM   10  C   UNL     1     -10.800  15.606  66.341  1.00  0.00    -0.252 C  
HETATM   11  C   UNL     1     -10.399  16.605  67.140  1.00  0.00    -0.300 C  
BRANCH   8  12
HETATM   12  C   UNL     1     -12.296  13.754  65.691  1.00  0.00    -0.482 C  
HETATM   13  O   UNL     1     -12.172  12.367  66.079  1.00  0.00    -0.636 OA 
HETATM   14  C   UNL     1     -10.921  11.875  65.549  1.00  0.00    -0.297 C  
HETATM   15  H   UNL     1     -12.275  13.333  62.415  1.00  0.00     0.000 HD 
HETATM   16  C   UNL     1     -10.555  12.758  64.359  1.00  0.00    -0.379 C  
HETATM   17  H   UNL     1     -10.234  12.525  62.421  1.00  0.00     0.000 HD 
HETATM   18  C   UNL     1     -11.691  13.773  64.278  1.00  0.00    -0.395 C  
HETATM   19  O   UNL     1     -10.462  11.975  63.162  1.00  0.00    -0.393 OA 
HETATM   20  O   UNL     1     -12.649  13.321  63.289  1.00  0.00    -0.711 OA 
BRANCH  14  21
HETATM   21  C   UNL     1      -9.837  11.890  66.638  1.00  0.00    -0.201 C  
BRANCH  21  22
HETATM   22  O   UNL     1      -9.276  10.595  66.823  1.00  0.00    -0.154 OA 
BRANCH  22  23
HETATM   23  P   UNL     1     -10.041   9.568  67.777  1.00  0.00    -0.226 P  
HETATM   24  O   UNL     1     -10.841   8.493  67.119  1.00  0.00    -0.216 OA 
HETATM   25  O   UNL     1      -8.817   8.889  68.569  1.00  0.00    -0.133 OA 
BRANCH  23  26
HETATM   26  O   UNL     1     -10.752  10.409  68.910  1.00  0.00    -0.197 OA 
BRANCH  26  27
HETATM   27  P   UNL     1     -11.064   9.884  70.369  1.00  0.00    -0.353 P  
HETATM   28  O   UNL     1     -11.939  11.078  70.996  1.00  0.00    -0.318 OA 
HETATM   29  O   UNL     1      -9.913   9.585  71.267  1.00  0.00    -0.255 OA 
BRANCH  27  30
HETATM   30  O   UNL     1     -12.132   8.695  70.230  1.00  0.00     0.118 OA 
BRANCH  30  31
HETATM   31  C   UNL     1     -12.307   7.746  71.277  1.00  0.00    -0.293 C  
BRANCH  31  32
HETATM   32  C   UNL     1     -11.744   6.367  70.948  1.00  0.00    -0.303 C  
HETATM   33  O   UNL     1     -10.947   6.398  69.748  1.00  0.00    -0.283 OA 
HETATM   34  C   UNL     1     -10.203   5.166  69.795  1.00  0.00    -0.287 C  
HETATM   35  H   UNL     1     -10.944   4.770  73.693  1.00  0.00     0.000 HD 
HETATM   36  C   UNL     1      -9.792   4.997  71.266  1.00  0.00    -0.182 C  
HETATM   37  C   UNL     1     -10.812   5.842  72.034  1.00  0.00    -0.251 C  
HETATM   38  H   UNL     1      -9.559   3.536  72.627  1.00  0.00     0.000 HD 
HETATM   39  O   UNL     1      -9.812   3.640  71.717  1.00  0.00    -0.161 OA 
HETATM   40  O   UNL     1     -11.524   5.098  73.016  1.00  0.00    -0.316 OA 
BRANCH  34  41
HETATM   41  N   UNL     1      -9.075   5.215  68.887  1.00  0.00    -0.104 NA 
HETATM   42  C   UNL     1      -7.767   5.479  69.181  1.00  0.00    -0.087 A  
HETATM   43  N   UNL     1      -6.997   5.396  68.114  1.00  0.00    -0.060 NA 
HETATM   44  C   UNL     1      -7.856   5.092  67.078  1.00  0.00    -0.096 A  
HETATM   45  C   UNL     1      -7.654   4.864  65.707  1.00  0.00    -0.086 A  
HETATM   46  N   UNL     1      -6.401   4.865  65.112  1.00  0.00    -0.034 NA 
HETATM   47  N   UNL     1      -8.736   4.632  64.926  1.00  0.00    -0.139 NA 
HETATM   48  H1  UNL     1      -6.255   4.698  64.117  1.00  0.00     0.000 HD 
HETATM   49  C   UNL     1      -9.953   4.585  65.509  1.00  0.00    -0.215 A  
HETATM   50  H2  UNL     1      -5.823   4.194  65.620  1.00  0.00     0.000 HD 
HETATM   51  N   UNL     1     -10.267   4.736  66.817  1.00  0.00    -0.228 NA 
HETATM   52  C   UNL     1      -9.161   5.003  67.536  1.00  0.00    -0.116 A  
ENDBRANCH  34  41
ENDBRANCH  31  32
ENDBRANCH  30  31
ENDBRANCH  27  30
ENDBRANCH  26  27
ENDBRANCH  23  26
ENDBRANCH  22  23
ENDBRANCH  21  22
ENDBRANCH  14  21
ENDBRANCH   8  12
ENDBRANCH   4   6
TORSDOF 11
ENDMDL
MODEL       33
REMARK 921   NORMALIZED FREE ENERGY PREDICTED BY IDOCK:   -7.26 KCAL/MOL
REMARK 922        TOTAL FREE ENERGY PREDICTED BY IDOCK:  -14.13 KCAL/MOL
REMARK 923 INTER-LIGAND FREE ENERGY PREDICTED BY IDOCK:  -11.82 KCAL/MOL
REMARK 924 INTRA-LIGAND FREE ENERGY PREDICTED BY IDOCK:   -2.31 KCAL/MOL
REMARK 927      BINDING AFFINITY PREDICTED BY RF-SCORE:    0.00 PKD
ROOT
HETATM    1  N   UNL     1      -9.196  10.012  63.530  1.00  0.00    -0.271 N  
HETATM    2  H1  UNL     1      -8.422  10.393  62.987  1.00  0.00     0.000 HD 
HETATM    3  H2  UNL     1     -10.034   9.682  63.051  1.00  0.00     0.000 HD 
HETATM    4  C   UNL     1      -9.125   9.939  64.878  1.00  0.00    -0.224 C  
HETATM    5  O   UNL     1     -10.059   9.479  65.534  1.00  0.00    -0.260 OA 
ENDROOT
BRANCH   4   6
HETATM    6  C   UNL     1      -7.885  10.448  65.507  1.00  0.00    -0.152 C  
HETATM    7  C   UNL     1      -8.037  11.157  66.641  1.00  0.00    -0.159 C  
HETATM    8  N   UNL     1      -6.973  11.653  67.390  1.00  0.00    -0.107 NA 
HETATM    9  C   UNL     1      -6.516  10.137  64.967  1.00  0.00    -0.126 C  
HETATM   10  C   UNL     1      -5.690  11.529  66.845  1.00  0.00    -0.131 C  
HETATM   11  C   UNL     1      -5.419  10.841  65.725  1.00  0.00    -0.135 C  
BRANCH   8  12
HETATM   12  C   UNL     1      -7.093  12.150  68.778  1.00  0.00    -0.110 C  
HETATM   13  O   UNL     1      -8.056  13.228  68.803  1.00  0.00    -0.067 OA 
HETATM   14  C   UNL     1      -7.338  14.461  68.571  1.00  0.00    -0.122 C  
HETATM   15  H   UNL     1      -5.217  13.131  71.313  1.00  0.00     0.000 HD 
HETATM   16  C   UNL     1      -5.887  14.224  68.983  1.00  0.00    -0.089 C  
HETATM   17  H   UNL     1      -4.607  14.975  70.291  1.00  0.00     0.000 HD 
HETATM   18  C   UNL     1      -5.860  12.772  69.451  1.00  0.00    -0.097 C  
HETATM   19  O   UNL     1      -5.510  15.123  70.034  1.00  0.00    -0.108 OA 
HETATM   20  O   UNL     1      -5.980  12.746  70.896  1.00  0.00    -0.265 OA 
BRANCH  14  21
HETATM   21  C   UNL     1      -7.461  14.883  67.099  1.00  0.00    -0.076 C  
BRANCH  21  22
HETATM   22  O   UNL     1      -8.102  16.147  66.978  1.00  0.00    -0.169 OA 
BRANCH  22  23
HETATM   23  P   UNL     1      -7.197  17.462  67.011  1.00  0.00    -0.220 P  
HETATM   24  O   UNL     1      -5.737  17.278  67.258  1.00  0.00    -0.121 OA 
HETATM   25  O   UNL     1      -7.401  18.032  65.522  1.00  0.00    -0.539 OA 
BRANCH  23  26
HETATM   26  O   UNL     1      -7.951  18.537  67.891  1.00  0.00    -0.246 OA 
BRANCH  26  27
HETATM   27  P   UNL     1      -9.517  18.601  68.103  1.00  0.00    -0.357 P  
HETATM   28  O   UNL     1     -10.084  18.428  66.609  1.00  0.00    -0.336 OA 
HETATM   29  O   UNL     1     -10.091  19.833  68.715  1.00  0.00    -0.450 OA 
BRANCH  27  30
HETATM   30  O   UNL     1      -9.958  17.232  68.813  1.00  0.00    -0.293 OA 
BRANCH  30  31
HETATM   31  C   UNL     1     -11.139  16.548  68.410  1.00  0.00    -0.333 C  
BRANCH  31  32
HETATM   32  C   UNL     1     -10.972  15.033  68.346  1.00  0.00    -0.264 C  
HETATM   33  O   UNL     1     -11.290  14.416  69.609  1.00  0.00    -0.256 OA 
HETATM   34  C   UNL     1     -11.455  13.023  69.281  1.00  0.00    -0.289 C  
HETATM   35  H   UNL     1     -11.898  13.900  65.416  1.00  0.00     0.000 HD 
HETATM   36  C   UNL     1     -12.210  13.010  67.942  1.00  0.00    -0.023 C  
HETATM   37  C   UNL     1     -11.911  14.383  67.335  1.00  0.00    -0.400 C  
HETATM   38  H   UNL     1     -12.261  11.955  66.231  1.00  0.00     0.000 HD 
HETATM   39  O   UNL     1     -11.796  11.963  67.059  1.00  0.00    -0.585 OA 
HETATM   40  O   UNL     1     -11.314  14.304  66.046  1.00  0.00    -0.322 OA 
BRANCH  34  41
HETATM   41  N   UNL     1     -12.158  12.329  70.341  1.00  0.00    -0.349 NA 
HETATM   42  C   UNL     1     -13.041  12.847  71.246  1.00  0.00    -0.167 A  
HETATM   43  N   UNL     1     -13.527  11.917  72.045  1.00  0.00    -0.372 NA 
HETATM   44  C   UNL     1     -12.905  10.750  71.651  1.00  0.00    -0.457 A  
HETATM   45  C   UNL     1     -13.002   9.421  72.095  1.00  0.00    -0.421 A  
HETATM   46  N   UNL     1     -13.876   9.013  73.092  1.00  0.00    -1.177 NA 
HETATM   47  N   UNL     1     -12.201   8.490  71.524  1.00  0.00    -0.301 NA 
HETATM   48  H1  UNL     1     -13.946   8.048  73.414  1.00  0.00     0.000 HD 
HETATM   49  C   UNL     1     -11.381   8.874  70.522  1.00  0.00    -0.234 A  
HETATM   50  H2  UNL     1     -14.812   9.310  72.815  1.00  0.00     0.000 HD 
HETATM   51  N   UNL     1     -11.238  10.103  69.975  1.00  0.00    -0.279 NA 
HETATM   52  C   UNL     1     -12.026  10.992  70.608  1.00  0.00    -0.365 A  
ENDBRANCH  34  41
ENDBRANCH  31  32
ENDBRANCH  30  31
ENDBRANCH  27  30
ENDBRANCH  26  27
ENDBRANCH  23  26
ENDBRANCH  22  23
ENDBRANCH  21  22
ENDBRANCH  14  21
ENDBRANCH   8  12
ENDBRANCH   4   6
TORSDOF 11
ENDMDL
MODEL       34
REMARK 921   NORMALIZED FREE ENERGY PREDICTED BY IDOCK:   -7.24 KCAL/MOL
REMARK 922        TOTAL FREE ENERGY PREDICTED BY IDOCK:  -14.10 KCAL/MOL
REMARK 923 INTER-LIGAND FREE ENERGY PREDICTED BY IDOCK:  -11.77 KCAL/MOL
REMARK 924 INTRA-LIGAND FREE ENERGY PREDICTED BY IDOCK:   -2.33 KCAL/MOL
REMARK 927      BINDING AFFINITY PREDICTED BY RF-SCORE:    0.00 PKD
ROOT
HETATM    1  N   UNL     1     -12.782   7.086  70.705  1.00  0.00    -0.575 N  
HETATM    2  H1  UNL     1     -12.593   7.602  69.844  1.00  0.00     0.000 HD 
HETATM    3  H2  UNL     1     -13.738   7.018  71.052  1.00  0.00     0.000 HD 
HETATM    4  C   UNL     1     -11.779   6.494  71.390  1.00  0.00    -0.324 C  
HETATM    5  O   UNL     1     -12.006   5.873  72.428  1.00  0.00    -0.298 OA 
ENDROOT
BRANCH   4   6
HETATM    6  C   UNL     1     -10.414   6.646  70.835  1.00  0.00    -0.249 C  
HETATM    7  C   UNL     1     -10.051   5.762  69.888  1.00  0.00    -0.209 C  
HETATM    8  N   UNL     1      -8.829   5.803  69.221  1.00  0.00    -0.116 NA 
HETATM    9  C   UNL     1      -9.497   7.768  71.239  1.00  0.00    -0.173 C  
HETATM   10  C   UNL     1      -7.880   6.727  69.674  1.00  0.00    -0.115 C  
HETATM   11  C   UNL     1      -8.132   7.657  70.607  1.00  0.00    -0.108 C  
BRANCH   8  12
HETATM   12  C   UNL     1      -8.534   5.055  67.979  1.00  0.00    -0.103 C  
HETATM   13  O   UNL     1      -8.166   5.997  66.946  1.00  0.00    -0.105 OA 
HETATM   14  C   UNL     1      -9.377   6.387  66.259  1.00  0.00    -0.118 C  
HETATM   15  H   UNL     1      -9.819   2.708  66.044  1.00  0.00     0.000 HD 
HETATM   16  C   UNL     1     -10.395   5.269  66.465  1.00  0.00    -0.285 C  
HETATM   17  H   UNL     1     -11.430   4.019  65.335  1.00  0.00     0.000 HD 
HETATM   18  C   UNL     1      -9.659   4.241  67.320  1.00  0.00    -0.189 C  
HETATM   19  O   UNL     1     -10.796   4.715  65.206  1.00  0.00    -0.210 OA 
HETATM   20  O   UNL     1      -9.123   3.211  66.452  1.00  0.00    -0.146 OA 
BRANCH  14  21
HETATM   21  C   UNL     1      -9.882   7.738  66.791  1.00  0.00    -0.241 C  
BRANCH  21  22
HETATM   22  O   UNL     1      -8.814   8.665  66.936  1.00  0.00    -0.127 OA 
BRANCH  22  23
HETATM   23  P   UNL     1      -8.814   9.972  66.018  1.00  0.00    -0.158 P  
HETATM   24  O   UNL     1      -7.578  10.252  65.232  1.00  0.00    -0.141 OA 
HETATM   25  O   UNL     1     -10.014   9.648  64.996  1.00  0.00    -0.224 OA 
BRANCH  23  26
HETATM   26  O   UNL     1      -9.412  11.157  66.876  1.00  0.00    -0.181 OA 
BRANCH  26  27
HETATM   27  P   UNL     1     -10.274  12.350  66.299  1.00  0.00    -0.249 P  
HETATM   28  O   UNL     1     -11.769  11.951  66.733  1.00  0.00    -0.548 OA 
HETATM   29  O   UNL     1     -10.232  12.598  64.829  1.00  0.00    -0.302 OA 
BRANCH  27  30
HETATM   30  O   UNL     1      -9.972  13.639  67.204  1.00  0.00    -0.239 OA 
BRANCH  30  31
HETATM   31  C   UNL     1     -10.660  14.865  66.983  1.00  0.00    -0.289 C  
BRANCH  31  32
HETATM   32  C   UNL     1     -11.373  15.395  68.223  1.00  0.00    -0.348 C  
HETATM   33  O   UNL     1     -12.231  14.393  68.804  1.00  0.00    -0.275 OA 
HETATM   34  C   UNL     1     -12.509  14.900  70.123  1.00  0.00    -0.306 C  
HETATM   35  H   UNL     1      -9.400  17.389  69.914  1.00  0.00     0.000 HD 
HETATM   36  C   UNL     1     -11.179  15.489  70.619  1.00  0.00    -0.347 C  
HETATM   37  C   UNL     1     -10.403  15.784  69.333  1.00  0.00    -0.263 C  
HETATM   38  H   UNL     1     -10.510  17.040  71.710  1.00  0.00     0.000 HD 
HETATM   39  O   UNL     1     -11.332  16.675  71.404  1.00  0.00    -0.200 OA 
HETATM   40  O   UNL     1     -10.005  17.146  69.223  1.00  0.00    -0.240 OA 
BRANCH  34  41
HETATM   41  N   UNL     1     -13.023  13.847  70.976  1.00  0.00    -0.312 NA 
HETATM   42  C   UNL     1     -13.938  13.952  71.985  1.00  0.00    -0.495 A  
HETATM   43  N   UNL     1     -14.211  12.780  72.525  1.00  0.00    -0.300 NA 
HETATM   44  C   UNL     1     -13.410  11.883  71.848  1.00  0.00    -0.300 A  
HETATM   45  C   UNL     1     -13.246  10.491  71.943  1.00  0.00    -0.420 A  
HETATM   46  N   UNL     1     -13.983   9.695  72.808  1.00  0.00    -0.724 NA 
HETATM   47  N   UNL     1     -12.321   9.895  71.153  1.00  0.00    -0.344 NA 
HETATM   48  H1  UNL     1     -13.863   8.684  72.877  1.00  0.00     0.000 HD 
HETATM   49  C   UNL     1     -11.633  10.660  70.278  1.00  0.00    -0.336 A  
HETATM   50  H2  UNL     1     -14.970   9.872  72.617  1.00  0.00     0.000 HD 
HETATM   51  N   UNL     1     -11.739  11.991  70.058  1.00  0.00    -0.300 NA 
HETATM   52  C   UNL     1     -12.641  12.534  70.897  1.00  0.00    -0.241 A  
ENDBRANCH  34  41
ENDBRANCH  31  32
ENDBRANCH  30  31
ENDBRANCH  27  30
ENDBRANCH  26  27
ENDBRANCH  23  26
ENDBRANCH  22  23
ENDBRANCH  21  22
ENDBRANCH  14  21
ENDBRANCH   8  12
ENDBRANCH   4   6
TORSDOF 11
ENDMDL
MODEL       35
REMARK 921   NORMALIZED FREE ENERGY PREDICTED BY IDOCK:   -7.23 KCAL/MOL
REMARK 922        TOTAL FREE ENERGY PREDICTED BY IDOCK:  -14.08 KCAL/MOL
REMARK 923 INTER-LIGAND FREE ENERGY PREDICTED BY IDOCK:  -11.78 KCAL/MOL
REMARK 924 INTRA-LIGAND FREE ENERGY PREDICTED BY IDOCK:   -2.31 KCAL/MOL
REMARK 927      BINDING AFFINITY PREDICTED BY RF-SCORE:    0.00 PKD
ROOT
HETATM    1  N   UNL     1     -12.748  14.512  72.743  1.00  0.00    -0.381 N  
HETATM    2  H1  UNL     1     -12.898  13.657  72.207  1.00  0.00     0.000 HD 
HETATM    3  H2  UNL     1     -13.112  14.582  73.693  1.00  0.00     0.000 HD 
HETATM    4  C   UNL     1     -12.073  15.553  72.208  1.00  0.00    -0.430 C  
HETATM    5  O   UNL     1     -11.892  16.585  72.855  1.00  0.00    -0.519 OA 
ENDROOT
BRANCH   4   6
HETATM    6  C   UNL     1     -11.586  15.388  70.820  1.00  0.00    -0.381 C  
HETATM    7  C   UNL     1     -10.251  15.410  70.647  1.00  0.00     0.252 C  
HETATM    8  N   UNL     1      -9.628  15.207  69.419  1.00  0.00    -0.216 NA 
HETATM    9  C   UNL     1     -12.511  15.129  69.662  1.00  0.00    -0.171 C  
HETATM   10  C   UNL     1     -10.448  15.124  68.287  1.00  0.00    -0.241 C  
HETATM   11  C   UNL     1     -11.787  15.087  68.339  1.00  0.00    -0.298 C  
BRANCH   8  12
HETATM   12  C   UNL     1      -8.187  14.915  69.256  1.00  0.00    -0.124 C  
HETATM   13  O   UNL     1      -7.425  16.006  69.821  1.00  0.00    -0.101 OA 
HETATM   14  C   UNL     1      -7.206  16.976  68.772  1.00  0.00    -0.226 C  
HETATM   15  H   UNL     1      -6.017  13.965  66.955  1.00  0.00     0.000 HD 
HETATM   16  C   UNL     1      -7.312  16.235  67.441  1.00  0.00    -0.163 C  
HETATM   17  H   UNL     1      -6.150  15.875  65.882  1.00  0.00     0.000 HD 
HETATM   18  C   UNL     1      -7.612  14.792  67.835  1.00  0.00    -0.139 C  
HETATM   19  O   UNL     1      -6.084  16.336  66.710  1.00  0.00    -0.316 OA 
HETATM   20  O   UNL     1      -6.372  14.041  67.833  1.00  0.00    -0.134 OA 
BRANCH  14  21
HETATM   21  C   UNL     1      -8.224  18.122  68.881  1.00  0.00    -0.143 C  
BRANCH  21  22
HETATM   22  O   UNL     1      -7.690  19.334  68.362  1.00  0.00    -0.299 OA 
BRANCH  22  23
HETATM   23  P   UNL     1      -8.458  20.044  67.156  1.00  0.00    -0.344 P  
HETATM   24  O   UNL     1      -9.494  21.058  67.510  1.00  0.00    -0.324 OA 
HETATM   25  O   UNL     1      -7.250  20.784  66.395  1.00  0.00    -0.201 OA 
BRANCH  23  26
HETATM   26  O   UNL     1      -8.868  18.919  66.124  1.00  0.00    -0.429 OA 
BRANCH  26  27
HETATM   27  P   UNL     1     -10.296  18.244  66.037  1.00  0.00    -0.114 P  
HETATM   28  O   UNL     1     -11.012  19.077  64.864  1.00  0.00    -0.349 OA 
HETATM   29  O   UNL     1     -11.154  18.261  67.256  1.00  0.00    -0.213 OA 
BRANCH  27  30
HETATM   30  O   UNL     1     -10.099  16.795  65.377  1.00  0.00    -0.587 OA 
BRANCH  30  31
HETATM   31  C   UNL     1     -11.214  16.057  64.891  1.00  0.00    -0.312 C  
BRANCH  31  32
HETATM   32  C   UNL     1     -10.866  14.630  64.481  1.00  0.00    -0.188 C  
HETATM   33  O   UNL     1      -9.976  14.012  65.431  1.00  0.00    -0.316 OA 
HETATM   34  C   UNL     1     -10.058  12.608  65.119  1.00  0.00    -0.237 C  
HETATM   35  H   UNL     1     -13.456  13.168  63.108  1.00  0.00     0.000 HD 
HETATM   36  C   UNL     1     -11.543  12.346  64.821  1.00  0.00    -0.341 C  
HETATM   37  C   UNL     1     -12.090  13.721  64.429  1.00  0.00    -0.436 C  
HETATM   38  H   UNL     1     -12.678  11.233  63.590  1.00  0.00     0.000 HD 
HETATM   39  O   UNL     1     -11.761  11.395  63.775  1.00  0.00    -0.275 OA 
HETATM   40  O   UNL     1     -12.694  13.733  63.140  1.00  0.00    -0.743 OA 
BRANCH  34  41
HETATM   41  N   UNL     1      -9.545  11.811  66.215  1.00  0.00    -0.220 NA 
HETATM   42  C   UNL     1      -8.310  11.237  66.333  1.00  0.00    -0.159 A  
HETATM   43  N   UNL     1      -8.165  10.617  67.488  1.00  0.00    -0.111 NA 
HETATM   44  C   UNL     1      -9.376  10.777  68.131  1.00  0.00    -0.155 A  
HETATM   45  C   UNL     1      -9.850  10.365  69.387  1.00  0.00    -0.213 A  
HETATM   46  N   UNL     1      -9.068   9.687  70.311  1.00  0.00    -0.276 NA 
HETATM   47  N   UNL     1     -11.134  10.641  69.714  1.00  0.00    -0.277 NA 
HETATM   48  H1  UNL     1      -9.412   9.387  71.223  1.00  0.00     0.000 HD 
HETATM   49  C   UNL     1     -11.886  11.341  68.837  1.00  0.00    -0.345 A  
HETATM   50  H2  UNL     1      -8.231  10.249  70.471  1.00  0.00     0.000 HD 
HETATM   51  N   UNL     1     -11.529  11.835  67.629  1.00  0.00    -0.375 NA 
HETATM   52  C   UNL     1     -10.259  11.495  67.341  1.00  0.00    -0.203 A  
ENDBRANCH  34  41
ENDBRANCH  31  32
ENDBRANCH  30  31
ENDBRANCH  27  30
ENDBRANCH  26  27
ENDBRANCH  23  26
ENDBRANCH  22  23
ENDBRANCH  21  22
ENDBRANCH  14  21
ENDBRANCH   8  12
ENDBRANCH   4   6
TORSDOF 11
ENDMDL
MODEL       36
REMARK 921   NORMALIZED FREE ENERGY PREDICTED BY IDOCK:   -7.22 KCAL/MOL
REMARK 922        TOTAL FREE ENERGY PREDICTED BY IDOCK:  -14.06 KCAL/MOL
REMARK 923 INTER-LIGAND FREE ENERGY PREDICTED BY IDOCK:  -12.53 KCAL/MOL
REMARK 924 INTRA-LIGAND FREE ENERGY PREDICTED BY IDOCK:   -1.53 KCAL/MOL
REMARK 927      BINDING AFFINITY PREDICTED BY RF-SCORE:    0.00 PKD
ROOT
HETATM    1  N   UNL     1     -13.747  15.442  70.784  1.00  0.00    -0.845 N  
HETATM    2  H1  UNL     1     -14.470  15.004  70.212  1.00  0.00     0.000 HD 
HETATM    3  H2  UNL     1     -14.016  16.032  71.571  1.00  0.00     0.000 HD 
HETATM    4  C   UNL     1     -12.438  15.247  70.512  1.00  0.00    -0.405 C  
HETATM    5  O   UNL     1     -11.566  15.775  71.202  1.00  0.00    -0.348 OA 
ENDROOT
BRANCH   4   6
HETATM    6  C   UNL     1     -12.121  14.390  69.347  1.00  0.00    -0.338 C  
HETATM    7  C   UNL     1     -11.945  15.020  68.171  1.00  0.00    -0.165 C  
HETATM    8  N   UNL     1     -11.582  14.370  66.994  1.00  0.00    -0.369 NA 
HETATM    9  C   UNL     1     -11.926  12.903  69.465  1.00  0.00    -0.346 C  
HETATM   10  C   UNL     1     -11.546  12.971  67.016  1.00  0.00    -0.360 C  
HETATM   11  C   UNL     1     -11.701  12.240  68.129  1.00  0.00    -0.408 C  
BRANCH   8  12
HETATM   12  C   UNL     1     -11.080  15.059  65.784  1.00  0.00    -0.346 C  
HETATM   13  O   UNL     1      -9.737  14.601  65.512  1.00  0.00    -0.320 OA 
HETATM   14  C   UNL     1      -8.825  15.473  66.217  1.00  0.00    -0.303 C  
HETATM   15  H   UNL     1     -10.818  18.088  64.493  1.00  0.00     0.000 HD 
HETATM   16  C   UNL     1      -9.549  16.798  66.441  1.00  0.00    -0.281 C  
HETATM   17  H   UNL     1      -9.291  18.696  65.947  1.00  0.00     0.000 HD 
HETATM   18  C   UNL     1     -10.924  16.588  65.814  1.00  0.00    -0.010 C  
HETATM   19  O   UNL     1      -8.841  17.871  65.807  1.00  0.00    -0.495 OA 
HETATM   20  O   UNL     1     -10.915  17.142  64.475  1.00  0.00    -1.003 OA 
BRANCH  14  21
HETATM   21  C   UNL     1      -8.379  14.825  67.537  1.00  0.00    -0.183 C  
BRANCH  21  22
HETATM   22  O   UNL     1      -8.168  13.427  67.377  1.00  0.00    -0.171 OA 
BRANCH  22  23
HETATM   23  P   UNL     1      -6.712  12.842  67.676  1.00  0.00    -0.137 P  
HETATM   24  O   UNL     1      -5.560  13.780  67.539  1.00  0.00    -0.336 OA 
HETATM   25  O   UNL     1      -6.847  12.413  69.220  1.00  0.00    -0.095 OA 
BRANCH  23  26
HETATM   26  O   UNL     1      -6.601  11.445  66.946  1.00  0.00    -0.118 OA 
BRANCH  26  27
HETATM   27  P   UNL     1      -7.797  10.432  66.736  1.00  0.00    -0.126 P  
HETATM   28  O   UNL     1      -7.115   9.248  65.892  1.00  0.00    -0.087 OA 
HETATM   29  O   UNL     1      -9.011  10.920  66.021  1.00  0.00    -0.174 OA 
BRANCH  27  30
HETATM   30  O   UNL     1      -8.089   9.739  68.153  1.00  0.00    -0.107 OA 
BRANCH  30  31
HETATM   31  C   UNL     1      -7.230   8.722  68.659  1.00  0.00    -0.073 C  
BRANCH  31  32
HETATM   32  C   UNL     1      -7.967   7.450  69.065  1.00  0.00    -0.122 C  
HETATM   33  O   UNL     1      -8.841   7.684  70.186  1.00  0.00    -0.144 OA 
HETATM   34  C   UNL     1      -9.713   6.538  70.189  1.00  0.00    -0.167 C  
HETATM   35  H   UNL     1      -8.737   5.679  66.420  1.00  0.00     0.000 HD 
HETATM   36  C   UNL     1     -10.031   6.267  68.710  1.00  0.00    -0.149 C  
HETATM   37  C   UNL     1      -8.870   6.919  67.956  1.00  0.00    -0.123 C  
HETATM   38  H   UNL     1     -10.326   4.708  67.475  1.00  0.00     0.000 HD 
HETATM   39  O   UNL     1     -10.130   4.876  68.389  1.00  0.00    -0.145 OA 
HETATM   40  O   UNL     1      -8.175   6.010  67.110  1.00  0.00    -0.106 OA 
BRANCH  34  41
HETATM   41  N   UNL     1     -10.892   6.795  70.991  1.00  0.00    -0.235 NA 
HETATM   42  C   UNL     1     -11.631   5.902  71.714  1.00  0.00    -0.155 A  
HETATM   43  N   UNL     1     -12.616   6.491  72.364  1.00  0.00    -0.000 NA 
HETATM   44  C   UNL     1     -12.522   7.824  72.019  1.00  0.00    -0.286 A  
HETATM   45  C   UNL     1     -13.264   8.958  72.385  1.00  0.00    -0.430 A  
HETATM   46  N   UNL     1     -14.311   8.922  73.295  1.00  0.00    -1.177 NA 
HETATM   47  N   UNL     1     -12.945  10.148  71.821  1.00  0.00    -0.434 NA 
HETATM   48  H1  UNL     1     -14.850   9.746  73.561  1.00  0.00     0.000 HD 
HETATM   49  C   UNL     1     -11.899  10.196  70.969  1.00  0.00    -0.383 A  
HETATM   50  H2  UNL     1     -13.952   8.504  74.154  1.00  0.00     0.000 HD 
HETATM   51  N   UNL     1     -11.080   9.190  70.582  1.00  0.00    -0.251 NA 
HETATM   52  C   UNL     1     -11.469   8.029  71.141  1.00  0.00    -0.276 A  
ENDBRANCH  34  41
ENDBRANCH  31  32
ENDBRANCH  30  31
ENDBRANCH  27  30
ENDBRANCH  26  27
ENDBRANCH  23  26
ENDBRANCH  22  23
ENDBRANCH  21  22
ENDBRANCH  14  21
ENDBRANCH   8  12
ENDBRANCH   4   6
TORSDOF 11
ENDMDL
MODEL       37
REMARK 921   NORMALIZED FREE ENERGY PREDICTED BY IDOCK:   -7.21 KCAL/MOL
REMARK 922        TOTAL FREE ENERGY PREDICTED BY IDOCK:  -14.05 KCAL/MOL
REMARK 923 INTER-LIGAND FREE ENERGY PREDICTED BY IDOCK:  -11.42 KCAL/MOL
REMARK 924 INTRA-LIGAND FREE ENERGY PREDICTED BY IDOCK:   -2.63 KCAL/MOL
REMARK 927      BINDING AFFINITY PREDICTED BY RF-SCORE:    0.00 PKD
ROOT
HETATM    1  N   UNL     1      -9.167  12.185  65.883  1.00  0.00    -0.414 N  
HETATM    2  H1  UNL     1      -8.602  12.330  66.720  1.00  0.00     0.000 HD 
HETATM    3  H2  UNL     1      -9.623  12.982  65.438  1.00  0.00     0.000 HD 
HETATM    4  C   UNL     1      -9.318  10.949  65.357  1.00  0.00    -0.208 C  
HETATM    5  O   UNL     1     -10.000  10.774  64.347  1.00  0.00    -0.284 OA 
ENDROOT
BRANCH   4   6
HETATM    6  C   UNL     1      -8.639   9.839  66.062  1.00  0.00    -0.146 C  
HETATM    7  C   UNL     1      -9.133   8.605  65.849  1.00  0.00    -0.205 C  
HETATM    8  N   UNL     1      -8.574   7.447  66.385  1.00  0.00    -0.127 NA 
HETATM    9  C   UNL     1      -7.416  10.047  66.912  1.00  0.00    -0.095 C  
HETATM   10  C   UNL     1      -7.536   7.603  67.311  1.00  0.00    -0.100 C  
HETATM   11  C   UNL     1      -6.963   8.781  67.596  1.00  0.00    -0.075 C  
BRANCH   8  12
HETATM   12  C   UNL     1      -8.895   6.078  65.923  1.00  0.00    -0.149 C  
HETATM   13  O   UNL     1     -10.272   5.789  66.251  1.00  0.00    -0.153 OA 
HETATM   14  C   UNL     1     -10.294   5.199  67.570  1.00  0.00    -0.128 C  
HETATM   15  H   UNL     1      -7.717   2.996  66.057  1.00  0.00     0.000 HD 
HETATM   16  C   UNL     1      -8.916   4.589  67.816  1.00  0.00    -0.116 C  
HETATM   17  H   UNL     1      -8.166   2.799  68.196  1.00  0.00     0.000 HD 
HETATM   18  C   UNL     1      -8.136   4.892  66.540  1.00  0.00    -0.107 C  
HETATM   19  O   UNL     1      -9.024   3.178  68.043  1.00  0.00    -0.118 OA 
HETATM   20  O   UNL     1      -8.186   3.729  65.676  1.00  0.00    -0.103 OA 
BRANCH  14  21
HETATM   21  C   UNL     1     -10.656   6.257  68.623  1.00  0.00    -0.264 C  
BRANCH  21  22
HETATM   22  O   UNL     1     -11.126   5.651  69.821  1.00  0.00    -0.328 OA 
BRANCH  22  23
HETATM   23  P   UNL     1     -10.324   5.926  71.174  1.00  0.00    -0.239 P  
HETATM   24  O   UNL     1     -11.128   6.089  72.421  1.00  0.00    -0.247 OA 
HETATM   25  O   UNL     1      -9.438   4.589  71.302  1.00  0.00    -0.139 OA 
BRANCH  23  26
HETATM   26  O   UNL     1      -9.233   7.026  70.867  1.00  0.00    -0.156 OA 
BRANCH  26  27
HETATM   27  P   UNL     1      -9.447   8.585  71.018  1.00  0.00    -0.226 P  
HETATM   28  O   UNL     1      -7.969   9.116  71.360  1.00  0.00    -0.314 OA 
HETATM   29  O   UNL     1     -10.401   9.063  72.060  1.00  0.00    -0.339 OA 
BRANCH  27  30
HETATM   30  O   UNL     1      -9.709   9.176  69.550  1.00  0.00    -0.164 OA 
BRANCH  30  31
HETATM   31  C   UNL     1     -10.908   9.881  69.249  1.00  0.00    -0.227 C  
BRANCH  31  32
HETATM   32  C   UNL     1     -10.881  11.341  69.690  1.00  0.00    -0.095 C  
HETATM   33  O   UNL     1     -10.496  12.210  68.606  1.00  0.00    -0.228 OA 
HETATM   34  C   UNL     1     -10.885  13.521  69.059  1.00  0.00    -0.192 C  
HETATM   35  H   UNL     1     -13.304  11.945  71.810  1.00  0.00     0.000 HD 
HETATM   36  C   UNL     1     -12.244  13.323  69.750  1.00  0.00    -0.222 C  
HETATM   37  C   UNL     1     -12.250  11.842  70.138  1.00  0.00    -0.241 C  
HETATM   38  H   UNL     1     -13.268  14.030  71.329  1.00  0.00     0.000 HD 
HETATM   39  O   UNL     1     -12.429  14.152  70.902  1.00  0.00    -0.320 OA 
HETATM   40  O   UNL     1     -12.451  11.633  71.531  1.00  0.00    -0.253 OA 
BRANCH  34  41
HETATM   41  N   UNL     1     -10.936  14.450  67.948  1.00  0.00    -0.257 NA 
HETATM   42  C   UNL     1     -10.451  15.726  67.894  1.00  0.00    -0.270 A  
HETATM   43  N   UNL     1     -10.631  16.270  66.707  1.00  0.00    -0.290 NA 
HETATM   44  C   UNL     1     -11.291  15.307  65.971  1.00  0.00    -0.162 A  
HETATM   45  C   UNL     1     -11.750  15.268  64.644  1.00  0.00    -0.308 A  
HETATM   46  N   UNL     1     -11.552  16.302  63.740  1.00  0.00    -1.482 NA 
HETATM   47  N   UNL     1     -12.421  14.169  64.225  1.00  0.00    -0.688 NA 
HETATM   48  H1  UNL     1     -11.885  16.273  62.777  1.00  0.00     0.000 HD 
HETATM   49  C   UNL     1     -12.577  13.142  65.089  1.00  0.00    -0.465 A  
HETATM   50  H2  UNL     1     -10.549  16.490  63.709  1.00  0.00     0.000 HD 
HETATM   51  N   UNL     1     -12.137  13.040  66.365  1.00  0.00    -0.403 NA 
HETATM   52  C   UNL     1     -11.515  14.174  66.737  1.00  0.00    -0.369 A  
ENDBRANCH  34  41
ENDBRANCH  31  32
ENDBRANCH  30  31
ENDBRANCH  27  30
ENDBRANCH  26  27
ENDBRANCH  23  26
ENDBRANCH  22  23
ENDBRANCH  21  22
ENDBRANCH  14  21
ENDBRANCH   8  12
ENDBRANCH   4   6
TORSDOF 11
ENDMDL
MODEL       38
REMARK 921   NORMALIZED FREE ENERGY PREDICTED BY IDOCK:   -7.21 KCAL/MOL
REMARK 922        TOTAL FREE ENERGY PREDICTED BY IDOCK:  -14.05 KCAL/MOL
REMARK 923 INTER-LIGAND FREE ENERGY PREDICTED BY IDOCK:  -12.33 KCAL/MOL
REMARK 924 INTRA-LIGAND FREE ENERGY PREDICTED BY IDOCK:   -1.71 KCAL/MOL
REMARK 927      BINDING AFFINITY PREDICTED BY RF-SCORE:    0.00 PKD
ROOT
HETATM    1  N   UNL     1      -8.148   2.650  70.496  1.00  0.00    -0.042 N  
HETATM    2  H1  UNL     1      -8.680   2.066  71.141  1.00  0.00     0.000 HD 
HETATM    3  H2  UNL     1      -7.444   2.224  69.894  1.00  0.00     0.000 HD 
HETATM    4  C   UNL     1      -8.366   3.982  70.431  1.00  0.00    -0.061 C  
HETATM    5  O   UNL     1      -7.723   4.687  69.653  1.00  0.00    -0.057 OA 
ENDROOT
BRANCH   4   6
HETATM    6  C   UNL     1      -9.393   4.534  71.343  1.00  0.00    -0.206 C  
HETATM    7  C   UNL     1     -10.169   5.516  70.847  1.00  0.00    -0.227 C  
HETATM    8  N   UNL     1     -11.220   6.099  71.550  1.00  0.00    -0.285 NA 
HETATM    9  C   UNL     1      -9.624   3.989  72.726  1.00  0.00    -0.177 C  
HETATM   10  C   UNL     1     -11.371   5.740  72.895  1.00  0.00    -0.252 C  
HETATM   11  C   UNL     1     -10.660   4.773  73.493  1.00  0.00    -0.305 C  
BRANCH   8  12
HETATM   12  C   UNL     1     -12.270   6.938  70.932  1.00  0.00    -0.353 C  
HETATM   13  O   UNL     1     -11.648   7.835  69.984  1.00  0.00    -0.064 OA 
HETATM   14  C   UNL     1     -11.295   9.044  70.694  1.00  0.00    -0.265 C  
HETATM   15  H   UNL     1     -14.844   8.833  71.761  1.00  0.00     0.000 HD 
HETATM   16  C   UNL     1     -12.207   9.136  71.914  1.00  0.00    -0.379 C  
HETATM   17  H   UNL     1     -13.561  10.390  72.626  1.00  0.00     0.000 HD 
HETATM   18  C   UNL     1     -13.081   7.888  71.827  1.00  0.00    -0.325 C  
HETATM   19  O   UNL     1     -12.993  10.333  71.866  1.00  0.00    -0.427 OA 
HETATM   20  O   UNL     1     -14.342   8.245  71.208  1.00  0.00    -0.355 OA 
BRANCH  14  21
HETATM   21  C   UNL     1      -9.808   9.022  71.081  1.00  0.00    -0.300 C  
BRANCH  21  22
HETATM   22  O   UNL     1      -9.003   8.558  70.004  1.00  0.00    -0.138 OA 
BRANCH  22  23
HETATM   23  P   UNL     1      -8.457   9.627  68.951  1.00  0.00    -0.139 P  
HETATM   24  O   UNL     1      -7.949  10.920  69.494  1.00  0.00    -0.076 OA 
HETATM   25  O   UNL     1      -7.230   8.827  68.285  1.00  0.00    -0.079 OA 
BRANCH  23  26
HETATM   26  O   UNL     1      -9.497   9.699  67.763  1.00  0.00    -0.128 OA 
BRANCH  26  27
HETATM   27  P   UNL     1      -9.498  10.795  66.622  1.00  0.00    -0.184 P  
HETATM   28  O   UNL     1     -10.070   9.988  65.356  1.00  0.00    -0.310 OA 
HETATM   29  O   UNL     1      -8.199  11.431  66.262  1.00  0.00    -0.160 OA 
BRANCH  27  30
HETATM   30  O   UNL     1     -10.680  11.827  66.953  1.00  0.00    -0.229 OA 
BRANCH  30  31
HETATM   31  C   UNL     1     -11.635  12.185  65.960  1.00  0.00    -0.358 C  
BRANCH  31  32
HETATM   32  C   UNL     1     -11.835  13.692  65.825  1.00  0.00    -0.371 C  
HETATM   33  O   UNL     1     -11.122  14.410  66.851  1.00  0.00    -0.307 OA 
HETATM   34  C   UNL     1     -11.095  15.767  66.368  1.00  0.00    -0.070 C  
HETATM   35  H   UNL     1     -11.958  14.554  62.668  1.00  0.00     0.000 HD 
HETATM   36  C   UNL     1     -10.832  15.653  64.857  1.00  0.00    -0.418 C  
HETATM   37  C   UNL     1     -11.297  14.237  64.506  1.00  0.00    -0.334 C  
HETATM   38  H   UNL     1     -11.370  16.556  63.144  1.00  0.00     0.000 HD 
HETATM   39  O   UNL     1     -11.532  16.626  64.077  1.00  0.00    -1.192 OA 
HETATM   40  O   UNL     1     -12.292  14.214  63.489  1.00  0.00    -0.738 OA 
BRANCH  34  41
HETATM   41  N   UNL     1     -10.088  16.538  67.068  1.00  0.00    -0.272 NA 
HETATM   42  C   UNL     1      -9.100  16.082  67.894  1.00  0.00    -0.187 A  
HETATM   43  N   UNL     1      -8.330  17.061  68.326  1.00  0.00    -0.220 NA 
HETATM   44  C   UNL     1      -8.867  18.206  67.773  1.00  0.00    -0.256 A  
HETATM   45  C   UNL     1      -8.500  19.560  67.840  1.00  0.00    -0.316 A  
HETATM   46  N   UNL     1      -7.379  20.012  68.520  1.00  0.00    -0.271 NA 
HETATM   47  N   UNL     1      -9.279  20.471  67.210  1.00  0.00    -0.392 NA 
HETATM   48  H1  UNL     1      -7.112  20.995  68.569  1.00  0.00     0.000 HD 
HETATM   49  C   UNL     1     -10.346  20.031  66.509  1.00  0.00    -0.450 A  
HETATM   50  H2  UNL     1      -6.575  19.497  68.158  1.00  0.00     0.000 HD 
HETATM   51  N   UNL     1     -10.768  18.758  66.328  1.00  0.00    -0.334 NA 
HETATM   52  C   UNL     1      -9.981  17.903  67.007  1.00  0.00    -0.324 A  
ENDBRANCH  34  41
ENDBRANCH  31  32
ENDBRANCH  30  31
ENDBRANCH  27  30
ENDBRANCH  26  27
ENDBRANCH  23  26
ENDBRANCH  22  23
ENDBRANCH  21  22
ENDBRANCH  14  21
ENDBRANCH   8  12
ENDBRANCH   4   6
TORSDOF 11
ENDMDL
MODEL       39
REMARK 921   NORMALIZED FREE ENERGY PREDICTED BY IDOCK:   -7.17 KCAL/MOL
REMARK 922        TOTAL FREE ENERGY PREDICTED BY IDOCK:  -13.97 KCAL/MOL
REMARK 923 INTER-LIGAND FREE ENERGY PREDICTED BY IDOCK:  -11.02 KCAL/MOL
REMARK 924 INTRA-LIGAND FREE ENERGY PREDICTED BY IDOCK:   -2.96 KCAL/MOL
REMARK 927      BINDING AFFINITY PREDICTED BY RF-SCORE:    0.00 PKD
ROOT
HETATM    1  N   UNL     1     -12.726  11.588  62.989  1.00  0.00    -0.864 N  
HETATM    2  H1  UNL     1     -12.450  10.640  63.245  1.00  0.00     0.000 HD 
HETATM    3  H2  UNL     1     -13.441  11.730  62.275  1.00  0.00     0.000 HD 
HETATM    4  C   UNL     1     -12.157  12.659  63.585  1.00  0.00    -0.547 C  
HETATM    5  O   UNL     1     -12.490  13.803  63.276  1.00  0.00    -0.819 OA 
ENDROOT
BRANCH   4   6
HETATM    6  C   UNL     1     -11.118  12.379  64.602  1.00  0.00    -0.348 C  
HETATM    7  C   UNL     1     -10.470  13.446  65.105  1.00  0.00    -0.347 C  
HETATM    8  N   UNL     1      -9.511  13.364  66.112  1.00  0.00    -0.197 NA 
HETATM    9  C   UNL     1     -10.840  10.993  65.116  1.00  0.00    -0.183 C  
HETATM   10  C   UNL     1      -9.102  12.085  66.508  1.00  0.00    -0.202 C  
HETATM   11  C   UNL     1      -9.679  10.953  66.078  1.00  0.00    -0.268 C  
BRANCH   8  12
HETATM   12  C   UNL     1      -9.022  14.522  66.892  1.00  0.00    -0.246 C  
HETATM   13  O   UNL     1      -9.219  14.251  68.298  1.00  0.00    -0.185 OA 
HETATM   14  C   UNL     1     -10.530  14.740  68.658  1.00  0.00    -0.250 C  
HETATM   15  H   UNL     1      -9.268  17.814  67.004  1.00  0.00     0.000 HD 
HETATM   16  C   UNL     1     -10.905  15.820  67.647  1.00  0.00    -0.310 C  
HETATM   17  H   UNL     1     -11.356  17.745  67.677  1.00  0.00     0.000 HD 
HETATM   18  C   UNL     1      -9.708  15.885  66.703  1.00  0.00    -0.253 C  
HETATM   19  O   UNL     1     -11.122  17.073  68.307  1.00  0.00    -0.337 OA 
HETATM   20  O   UNL     1      -8.844  16.971  67.120  1.00  0.00    -0.209 OA 
BRANCH  14  21
HETATM   21  C   UNL     1     -11.544  13.585  68.676  1.00  0.00    -0.330 C  
BRANCH  21  22
HETATM   22  O   UNL     1     -11.343  12.742  69.804  1.00  0.00    -0.166 OA 
BRANCH  22  23
HETATM   23  P   UNL     1     -11.579  11.173  69.629  1.00  0.00    -0.378 P  
HETATM   24  O   UNL     1     -12.247  10.720  68.374  1.00  0.00    -0.470 OA 
HETATM   25  O   UNL     1     -10.070  10.616  69.640  1.00  0.00    -0.189 OA 
BRANCH  23  26
HETATM   26  O   UNL     1     -12.152  10.621  70.995  1.00  0.00    -0.340 OA 
BRANCH  26  27
HETATM   27  P   UNL     1     -11.875   9.178  71.578  1.00  0.00    -0.405 P  
HETATM   28  O   UNL     1     -13.088   8.975  72.613  1.00  0.00    -0.426 OA 
HETATM   29  O   UNL     1     -10.579   8.941  72.277  1.00  0.00    -0.320 OA 
BRANCH  27  30
HETATM   30  O   UNL     1     -12.214   8.121  70.420  1.00  0.00     0.119 OA 
BRANCH  30  31
HETATM   31  C   UNL     1     -12.024   6.726  70.626  1.00  0.00    -0.362 C  
BRANCH  31  32
HETATM   32  C   UNL     1     -10.940   6.122  69.739  1.00  0.00    -0.390 C  
HETATM   33  O   UNL     1     -10.347   7.118  68.883  1.00  0.00    -0.185 OA 
HETATM   34  C   UNL     1      -9.134   6.496  68.418  1.00  0.00    -0.123 C  
HETATM   35  H   UNL     1      -9.280   3.815  71.366  1.00  0.00     0.000 HD 
HETATM   36  C   UNL     1      -8.564   5.757  69.640  1.00  0.00    -0.116 C  
HETATM   37  C   UNL     1      -9.781   5.544  70.544  1.00  0.00    -0.183 C  
HETATM   38  H   UNL     1      -7.591   4.053  70.074  1.00  0.00     0.000 HD 
HETATM   39  O   UNL     1      -7.943   4.509  69.319  1.00  0.00    -0.068 OA 
HETATM   40  O   UNL     1     -10.002   4.175  70.865  1.00  0.00    -0.197 OA 
BRANCH  34  41
HETATM   41  N   UNL     1      -8.228   7.487  67.873  1.00  0.00    -0.122 NA 
HETATM   42  C   UNL     1      -7.510   8.433  68.549  1.00  0.00    -0.094 A  
HETATM   43  N   UNL     1      -6.749   9.143  67.739  1.00  0.00    -0.064 NA 
HETATM   44  C   UNL     1      -7.012   8.646  66.478  1.00  0.00    -0.079 A  
HETATM   45  C   UNL     1      -6.516   8.967  65.204  1.00  0.00    -0.071 A  
HETATM   46  N   UNL     1      -5.532   9.921  64.989  1.00  0.00    -0.060 NA 
HETATM   47  N   UNL     1      -7.023   8.315  64.131  1.00  0.00    -0.076 NA 
HETATM   48  H1  UNL     1      -5.171  10.154  64.063  1.00  0.00     0.000 HD 
HETATM   49  C   UNL     1      -7.949   7.355  64.341  1.00  0.00    -0.109 A  
HETATM   50  H2  UNL     1      -4.732   9.670  65.571  1.00  0.00     0.000 HD 
HETATM   51  N   UNL     1      -8.463   6.922  65.515  1.00  0.00    -0.139 NA 
HETATM   52  C   UNL     1      -7.953   7.631  66.539  1.00  0.00    -0.106 A  
ENDBRANCH  34  41
ENDBRANCH  31  32
ENDBRANCH  30  31
ENDBRANCH  27  30
ENDBRANCH  26  27
ENDBRANCH  23  26
ENDBRANCH  22  23
ENDBRANCH  21  22
ENDBRANCH  14  21
ENDBRANCH   8  12
ENDBRANCH   4   6
TORSDOF 11
ENDMDL
MODEL       40
REMARK 921   NORMALIZED FREE ENERGY PREDICTED BY IDOCK:   -7.16 KCAL/MOL
REMARK 922        TOTAL FREE ENERGY PREDICTED BY IDOCK:  -13.96 KCAL/MOL
REMARK 923 INTER-LIGAND FREE ENERGY PREDICTED BY IDOCK:  -11.88 KCAL/MOL
REMARK 924 INTRA-LIGAND FREE ENERGY PREDICTED BY IDOCK:   -2.08 KCAL/MOL
REMARK 927      BINDING AFFINITY PREDICTED BY RF-SCORE:    0.00 PKD
ROOT
HETATM    1  N   UNL     1     -11.704  14.879  71.767  1.00  0.00    -0.423 N  
HETATM    2  H1  UNL     1     -10.775  14.550  71.503  1.00  0.00     0.000 HD 
HETATM    3  H2  UNL     1     -11.807  15.787  72.221  1.00  0.00     0.000 HD 
HETATM    4  C   UNL     1     -12.800  14.128  71.520  1.00  0.00    -0.354 C  
HETATM    5  O   UNL     1     -13.920  14.525  71.839  1.00  0.00    -0.399 OA 
ENDROOT
BRANCH   4   6
HETATM    6  C   UNL     1     -12.575  12.817  70.870  1.00  0.00    -0.342 C  
HETATM    7  C   UNL     1     -12.801  11.727  71.627  1.00  0.00    -0.328 C  
HETATM    8  N   UNL     1     -12.697  10.422  71.151  1.00  0.00    -0.380 NA 
HETATM    9  C   UNL     1     -12.189  12.687  69.422  1.00  0.00    -0.116 C  
HETATM   10  C   UNL     1     -12.186  10.246  69.860  1.00  0.00    -0.061 C  
HETATM   11  C   UNL     1     -11.930  11.257  69.017  1.00  0.00    -0.393 C  
BRANCH   8  12
HETATM   12  C   UNL     1     -13.237   9.236  71.853  1.00  0.00    -0.423 C  
HETATM   13  O   UNL     1     -12.395   8.949  72.993  1.00  0.00    -0.103 OA 
HETATM   14  C   UNL     1     -11.357   8.044  72.553  1.00  0.00    -0.406 C  
HETATM   15  H   UNL     1     -14.277   6.162  71.244  1.00  0.00     0.000 HD 
HETATM   16  C   UNL     1     -11.884   7.317  71.319  1.00  0.00    -0.307 C  
HETATM   17  H   UNL     1     -12.254   5.451  70.778  1.00  0.00     0.000 HD 
HETATM   18  C   UNL     1     -13.281   7.892  71.109  1.00  0.00    -0.065 C  
HETATM   19  O   UNL     1     -11.926   5.903  71.547  1.00  0.00    -0.060 OA 
HETATM   20  O   UNL     1     -14.249   6.993  71.704  1.00  0.00    -0.369 OA 
BRANCH  14  21
HETATM   21  C   UNL     1     -10.061   8.817  72.263  1.00  0.00    -0.238 C  
BRANCH  21  22
HETATM   22  O   UNL     1      -8.949   7.936  72.161  1.00  0.00    -0.125 OA 
BRANCH  22  23
HETATM   23  P   UNL     1      -8.118   7.920  70.798  1.00  0.00    -0.107 P  
HETATM   24  O   UNL     1      -6.638   7.765  70.905  1.00  0.00    -0.038 OA 
HETATM   25  O   UNL     1      -8.722   6.621  70.067  1.00  0.00    -0.139 OA 
BRANCH  23  26
HETATM   26  O   UNL     1      -8.660   9.099  69.895  1.00  0.00    -0.125 OA 
BRANCH  26  27
HETATM   27  P   UNL     1      -8.426   9.230  68.337  1.00  0.00    -0.120 P  
HETATM   28  O   UNL     1      -9.822   8.721  67.725  1.00  0.00    -0.159 OA 
HETATM   29  O   UNL     1      -7.305   8.458  67.729  1.00  0.00    -0.089 OA 
BRANCH  27  30
HETATM   30  O   UNL     1      -8.430  10.795  67.984  1.00  0.00    -0.119 OA 
BRANCH  30  31
HETATM   31  C   UNL     1      -8.436  11.237  66.631  1.00  0.00    -0.168 C  
BRANCH  31  32
HETATM   32  C   UNL     1      -9.758  11.867  66.203  1.00  0.00    -0.232 C  
HETATM   33  O   UNL     1      -9.801  13.270  66.529  1.00  0.00    -0.267 OA 
HETATM   34  C   UNL     1     -10.898  13.774  65.743  1.00  0.00    -0.277 C  
HETATM   35  H   UNL     1     -10.792  10.561  63.383  1.00  0.00     0.000 HD 
HETATM   36  C   UNL     1     -10.781  13.064  64.385  1.00  0.00    -0.394 C  
HETATM   37  C   UNL     1      -9.978  11.799  64.696  1.00  0.00    -0.243 C  
HETATM   38  H   UNL     1     -11.972  12.295  62.959  1.00  0.00     0.000 HD 
HETATM   39  O   UNL     1     -12.044  12.734  63.798  1.00  0.00    -0.442 OA 
HETATM   40  O   UNL     1     -10.655  10.604  64.322  1.00  0.00    -0.298 OA 
BRANCH  34  41
HETATM   41  N   UNL     1     -10.833  15.218  65.643  1.00  0.00    -0.348 NA 
HETATM   42  C   UNL     1     -11.043  15.996  64.539  1.00  0.00    -0.253 A  
HETATM   43  N   UNL     1     -10.947  17.281  64.819  1.00  0.00    -0.911 NA 
HETATM   44  C   UNL     1     -10.632  17.330  66.162  1.00  0.00    -0.204 A  
HETATM   45  C   UNL     1     -10.412  18.394  67.052  1.00  0.00    -0.399 A  
HETATM   46  N   UNL     1     -10.533  19.727  66.689  1.00  0.00    -0.475 NA 
HETATM   47  N   UNL     1     -10.063  18.106  68.328  1.00  0.00    -0.366 NA 
HETATM   48  H1  UNL     1     -10.373  20.500  67.335  1.00  0.00     0.000 HD 
HETATM   49  C   UNL     1      -9.988  16.809  68.698  1.00  0.00    -0.276 A  
HETATM   50  H2  UNL     1     -11.465  19.851  66.292  1.00  0.00     0.000 HD 
HETATM   51  N   UNL     1     -10.228  15.705  67.952  1.00  0.00    -0.236 NA 
HETATM   52  C   UNL     1     -10.529  16.052  66.687  1.00  0.00    -0.304 A  
ENDBRANCH  34  41
ENDBRANCH  31  32
ENDBRANCH  30  31
ENDBRANCH  27  30
ENDBRANCH  26  27
ENDBRANCH  23  26
ENDBRANCH  22  23
ENDBRANCH  21  22
ENDBRANCH  14  21
ENDBRANCH   8  12
ENDBRANCH   4   6
TORSDOF 11
ENDMDL
MODEL       41
REMARK 921   NORMALIZED FREE ENERGY PREDICTED BY IDOCK:   -7.14 KCAL/MOL
REMARK 922        TOTAL FREE ENERGY PREDICTED BY IDOCK:  -13.94 KCAL/MOL
REMARK 923 INTER-LIGAND FREE ENERGY PREDICTED BY IDOCK:  -12.10 KCAL/MOL
REMARK 924 INTRA-LIGAND FREE ENERGY PREDICTED BY IDOCK:   -1.83 KCAL/MOL
REMARK 927      BINDING AFFINITY PREDICTED BY RF-SCORE:    0.00 PKD
ROOT
HETATM    1  N   UNL     1     -13.742   7.228  71.045  1.00  0.00    -0.570 N  
HETATM    2  H1  UNL     1     -13.217   6.462  70.621  1.00  0.00     0.000 HD 
HETATM    3  H2  UNL     1     -14.754   7.272  70.925  1.00  0.00     0.000 HD 
HETATM    4  C   UNL     1     -13.111   8.184  71.762  1.00  0.00    -0.345 C  
HETATM    5  O   UNL     1     -13.745   9.108  72.272  1.00  0.00    -0.443 OA 
ENDROOT
BRANCH   4   6
HETATM    6  C   UNL     1     -11.641   8.064  71.882  1.00  0.00    -0.348 C  
HETATM    7  C   UNL     1     -11.162   6.843  72.186  1.00  0.00    -0.258 C  
HETATM    8  N   UNL     1      -9.805   6.546  72.274  1.00  0.00    -0.157 NA 
HETATM    9  C   UNL     1     -10.709   9.213  71.608  1.00  0.00    -0.441 C  
HETATM   10  C   UNL     1      -8.905   7.615  72.188  1.00  0.00    -0.125 C  
HETATM   11  C   UNL     1      -9.267   8.870  71.885  1.00  0.00    -0.240 C  
BRANCH   8  12
HETATM   12  C   UNL     1      -9.254   5.173  72.292  1.00  0.00    -0.138 C  
HETATM   13  O   UNL     1      -8.008   5.163  71.558  1.00  0.00    -0.107 OA 
HETATM   14  C   UNL     1      -8.317   4.872  70.176  1.00  0.00    -0.080 C  
HETATM   15  H   UNL     1     -10.161   2.048  71.727  1.00  0.00     0.000 HD 
HETATM   16  C   UNL     1      -9.652   4.133  70.157  1.00  0.00    -0.202 C  
HETATM   17  H   UNL     1     -10.329   2.372  69.562  1.00  0.00     0.000 HD 
HETATM   18  C   UNL     1     -10.056   4.044  71.625  1.00  0.00    -0.113 C  
HETATM   19  O   UNL     1      -9.498   2.832  69.575  1.00  0.00    -0.141 OA 
HETATM   20  O   UNL     1      -9.665   2.746  72.139  1.00  0.00    -0.130 OA 
BRANCH  14  21
HETATM   21  C   UNL     1      -8.360   6.170  69.354  1.00  0.00    -0.116 C  
BRANCH  21  22
HETATM   22  O   UNL     1      -9.641   6.363  68.766  1.00  0.00    -0.126 OA 
BRANCH  22  23
HETATM   23  P   UNL     1      -9.765   6.288  67.176  1.00  0.00    -0.160 P  
HETATM   24  O   UNL     1      -9.646   4.940  66.546  1.00  0.00    -0.141 OA 
HETATM   25  O   UNL     1     -11.258   6.838  66.941  1.00  0.00    -0.375 OA 
BRANCH  23  26
HETATM   26  O   UNL     1      -8.878   7.450  66.574  1.00  0.00    -0.135 OA 
BRANCH  26  27
HETATM   27  P   UNL     1      -9.103   8.992  66.837  1.00  0.00    -0.143 P  
HETATM   28  O   UNL     1      -7.760   9.652  66.251  1.00  0.00    -0.100 OA 
HETATM   29  O   UNL     1      -9.306   9.441  68.244  1.00  0.00    -0.134 OA 
BRANCH  27  30
HETATM   30  O   UNL     1     -10.226   9.494  65.806  1.00  0.00    -0.255 OA 
BRANCH  30  31
HETATM   31  C   UNL     1     -10.184  10.810  65.265  1.00  0.00    -0.285 C  
BRANCH  31  32
HETATM   32  C   UNL     1     -10.329  11.904  66.317  1.00  0.00    -0.224 C  
HETATM   33  O   UNL     1      -9.958  13.193  65.789  1.00  0.00    -0.281 OA 
HETATM   34  C   UNL     1     -10.501  14.126  66.741  1.00  0.00    -0.277 C  
HETATM   35  H   UNL     1     -12.935  11.332  68.216  1.00  0.00     0.000 HD 
HETATM   36  C   UNL     1     -11.878  13.559  67.123  1.00  0.00    -0.387 C  
HETATM   37  C   UNL     1     -11.767  12.067  66.797  1.00  0.00    -0.264 C  
HETATM   38  H   UNL     1     -13.070  13.404  68.735  1.00  0.00     0.000 HD 
HETATM   39  O   UNL     1     -12.219  13.755  68.499  1.00  0.00    -0.348 OA 
HETATM   40  O   UNL     1     -12.039  11.231  67.917  1.00  0.00    -0.634 OA 
BRANCH  34  41
HETATM   41  N   UNL     1     -10.568  15.457  66.171  1.00  0.00    -0.306 NA 
HETATM   42  C   UNL     1     -10.998  15.819  64.926  1.00  0.00    -0.427 A  
HETATM   43  N   UNL     1     -10.966  17.127  64.757  1.00  0.00    -0.924 NA 
HETATM   44  C   UNL     1     -10.465  17.626  65.942  1.00  0.00    -0.246 A  
HETATM   45  C   UNL     1     -10.204  18.931  66.392  1.00  0.00    -0.426 A  
HETATM   46  N   UNL     1     -10.483  20.064  65.643  1.00  0.00    -0.401 NA 
HETATM   47  N   UNL     1      -9.652  19.091  67.618  1.00  0.00    -0.303 NA 
HETATM   48  H1  UNL     1     -10.294  21.012  65.971  1.00  0.00     0.000 HD 
HETATM   49  C   UNL     1      -9.420  17.993  68.368  1.00  0.00    -0.308 A  
HETATM   50  H2  UNL     1     -11.470  20.023  65.386  1.00  0.00     0.000 HD 
HETATM   51  N   UNL     1      -9.675  16.698  68.068  1.00  0.00    -0.237 NA 
HETATM   52  C   UNL     1     -10.184  16.597  66.826  1.00  0.00    -0.301 A  
ENDBRANCH  34  41
ENDBRANCH  31  32
ENDBRANCH  30  31
ENDBRANCH  27  30
ENDBRANCH  26  27
ENDBRANCH  23  26
ENDBRANCH  22  23
ENDBRANCH  21  22
ENDBRANCH  14  21
ENDBRANCH   8  12
ENDBRANCH   4   6
TORSDOF 11
ENDMDL
MODEL       42
REMARK 921   NORMALIZED FREE ENERGY PREDICTED BY IDOCK:   -7.11 KCAL/MOL
REMARK 922        TOTAL FREE ENERGY PREDICTED BY IDOCK:  -13.88 KCAL/MOL
REMARK 923 INTER-LIGAND FREE ENERGY PREDICTED BY IDOCK:  -11.65 KCAL/MOL
REMARK 924 INTRA-LIGAND FREE ENERGY PREDICTED BY IDOCK:   -2.24 KCAL/MOL
REMARK 927      BINDING AFFINITY PREDICTED BY RF-SCORE:    0.00 PKD
ROOT
HETATM    1  N   UNL     1     -11.905  16.266  71.602  1.00  0.00    -0.646 N  
HETATM    2  H1  UNL     1     -11.200  16.970  71.384  1.00  0.00     0.000 HD 
HETATM    3  H2  UNL     1     -12.292  16.215  72.545  1.00  0.00     0.000 HD 
HETATM    4  C   UNL     1     -12.333  15.400  70.657  1.00  0.00    -0.403 C  
HETATM    5  O   UNL     1     -13.184  14.550  70.921  1.00  0.00    -0.366 OA 
ENDROOT
BRANCH   4   6
HETATM    6  C   UNL     1     -11.719  15.523  69.316  1.00  0.00    -0.380 C  
HETATM    7  C   UNL     1     -12.097  14.613  68.399  1.00  0.00    -0.188 C  
HETATM    8  N   UNL     1     -11.663  14.624  67.076  1.00  0.00    -0.380 NA 
HETATM    9  C   UNL     1     -10.781  16.642  68.954  1.00  0.00    -0.337 C  
HETATM   10  C   UNL     1     -10.667  15.546  66.733  1.00  0.00    -0.305 C  
HETATM   11  C   UNL     1     -10.219  16.500  67.561  1.00  0.00    -0.283 C  
BRANCH   8  12
HETATM   12  C   UNL     1     -12.294  13.844  65.988  1.00  0.00    -0.475 C  
HETATM   13  O   UNL     1     -12.203  12.439  66.311  1.00  0.00    -0.620 OA 
HETATM   14  C   UNL     1     -10.962  11.942  65.759  1.00  0.00    -0.311 C  
HETATM   15  H   UNL     1     -12.276  13.576  62.696  1.00  0.00     0.000 HD 
HETATM   16  C   UNL     1     -10.573  12.871  64.612  1.00  0.00    -0.363 C  
HETATM   17  H   UNL     1     -10.255  12.722  62.665  1.00  0.00     0.000 HD 
HETATM   18  C   UNL     1     -11.685  13.915  64.578  1.00  0.00    -0.410 C  
HETATM   19  O   UNL     1     -10.497  12.143  63.380  1.00  0.00    -0.441 OA 
HETATM   20  O   UNL     1     -12.652  13.533  63.568  1.00  0.00    -0.738 OA 
BRANCH  14  21
HETATM   21  C   UNL     1      -9.880  11.881  66.848  1.00  0.00    -0.202 C  
BRANCH  21  22
HETATM   22  O   UNL     1     -10.126  10.816  67.758  1.00  0.00    -0.168 OA 
BRANCH  22  23
HETATM   23  P   UNL     1      -9.119   9.577  67.767  1.00  0.00    -0.123 P  
HETATM   24  O   UNL     1      -8.536   9.182  69.082  1.00  0.00    -0.128 OA 
HETATM   25  O   UNL     1     -10.065   8.387  67.242  1.00  0.00    -0.205 OA 
BRANCH  23  26
HETATM   26  O   UNL     1      -8.117   9.770  66.560  1.00  0.00    -0.115 OA 
BRANCH  26  27
HETATM   27  P   UNL     1      -7.377   8.598  65.799  1.00  0.00    -0.082 P  
HETATM   28  O   UNL     1      -6.188   9.365  65.037  1.00  0.00    -0.064 OA 
HETATM   29  O   UNL     1      -8.161   7.795  64.817  1.00  0.00    -0.141 OA 
BRANCH  27  30
HETATM   30  O   UNL     1      -6.595   7.732  66.900  1.00  0.00    -0.056 OA 
BRANCH  30  31
HETATM   31  C   UNL     1      -6.341   6.347  66.693  1.00  0.00    -0.042 C  
BRANCH  31  32
HETATM   32  C   UNL     1      -7.159   5.436  67.603  1.00  0.00    -0.067 C  
HETATM   33  O   UNL     1      -7.908   6.196  68.571  1.00  0.00    -0.101 OA 
HETATM   34  C   UNL     1      -8.882   5.259  69.068  1.00  0.00    -0.099 C  
HETATM   35  H   UNL     1      -8.319   2.877  65.919  1.00  0.00     0.000 HD 
HETATM   36  C   UNL     1      -9.350   4.470  67.834  1.00  0.00    -0.140 C  
HETATM   37  C   UNL     1      -8.200   4.627  66.837  1.00  0.00    -0.106 C  
HETATM   38  H   UNL     1      -9.898   2.601  67.338  1.00  0.00     0.000 HD 
HETATM   39  O   UNL     1      -9.609   3.089  68.100  1.00  0.00    -0.184 OA 
HETATM   40  O   UNL     1      -7.671   3.381  66.397  1.00  0.00    -0.077 OA 
BRANCH  34  41
HETATM   41  N   UNL     1      -9.958   5.952  69.747  1.00  0.00    -0.170 NA 
HETATM   42  C   UNL     1     -11.251   6.111  69.335  1.00  0.00    -0.396 A  
HETATM   43  N   UNL     1     -11.974   6.761  70.225  1.00  0.00    -0.313 NA 
HETATM   44  C   UNL     1     -11.096   7.059  71.247  1.00  0.00    -0.252 A  
HETATM   45  C   UNL     1     -11.252   7.720  72.476  1.00  0.00    -0.363 A  
HETATM   46  N   UNL     1     -12.471   8.200  72.933  1.00  0.00    -0.653 NA 
HETATM   47  N   UNL     1     -10.159   7.901  73.255  1.00  0.00    -0.303 NA 
HETATM   48  H1  UNL     1     -12.584   8.680  73.826  1.00  0.00     0.000 HD 
HETATM   49  C   UNL     1      -8.979   7.397  72.835  1.00  0.00    -0.141 A  
HETATM   50  H2  UNL     1     -13.127   7.418  72.923  1.00  0.00     0.000 HD 
HETATM   51  N   UNL     1      -8.715   6.700  71.705  1.00  0.00    -0.131 NA 
HETATM   52  C   UNL     1      -9.826   6.587  70.954  1.00  0.00    -0.183 A  
ENDBRANCH  34  41
ENDBRANCH  31  32
ENDBRANCH  30  31
ENDBRANCH  27  30
ENDBRANCH  26  27
ENDBRANCH  23  26
ENDBRANCH  22  23
ENDBRANCH  21  22
ENDBRANCH  14  21
ENDBRANCH   8  12
ENDBRANCH   4   6
TORSDOF 11
ENDMDL
MODEL       43
REMARK 921   NORMALIZED FREE ENERGY PREDICTED BY IDOCK:   -7.09 KCAL/MOL
REMARK 922        TOTAL FREE ENERGY PREDICTED BY IDOCK:  -13.86 KCAL/MOL
REMARK 923 INTER-LIGAND FREE ENERGY PREDICTED BY IDOCK:  -11.42 KCAL/MOL
REMARK 924 INTRA-LIGAND FREE ENERGY PREDICTED BY IDOCK:   -2.43 KCAL/MOL
REMARK 927      BINDING AFFINITY PREDICTED BY RF-SCORE:    0.00 PKD
ROOT
HETATM    1  N   UNL     1     -12.891   9.142  71.059  1.00  0.00    -0.517 N  
HETATM    2  H1  UNL     1     -12.170   9.860  70.986  1.00  0.00     0.000 HD 
HETATM    3  H2  UNL     1     -13.852   9.364  70.800  1.00  0.00     0.000 HD 
HETATM    4  C   UNL     1     -12.587   7.899  71.495  1.00  0.00    -0.321 C  
HETATM    5  O   UNL     1     -13.457   7.033  71.583  1.00  0.00    -0.365 OA 
ENDROOT
BRANCH   4   6
HETATM    6  C   UNL     1     -11.176   7.651  71.867  1.00  0.00    -0.299 C  
HETATM    7  C   UNL     1     -10.805   6.362  71.984  1.00  0.00    -0.239 C  
HETATM    8  N   UNL     1      -9.504   5.956  72.265  1.00  0.00    -0.148 NA 
HETATM    9  C   UNL     1     -10.175   8.762  72.033  1.00  0.00    -0.401 C  
HETATM   10  C   UNL     1      -8.574   6.951  72.587  1.00  0.00    -0.120 C  
HETATM   11  C   UNL     1      -8.829   8.265  72.501  1.00  0.00    -0.297 C  
BRANCH   8  12
HETATM   12  C   UNL     1      -9.008   4.573  72.090  1.00  0.00    -0.125 C  
HETATM   13  O   UNL     1      -7.803   4.609  71.293  1.00  0.00    -0.082 OA 
HETATM   14  C   UNL     1      -8.192   4.497  69.906  1.00  0.00    -0.066 C  
HETATM   15  H   UNL     1     -10.069   1.572  71.209  1.00  0.00     0.000 HD 
HETATM   16  C   UNL     1      -9.555   3.811  69.872  1.00  0.00    -0.184 C  
HETATM   17  H   UNL     1     -10.332   2.159  69.111  1.00  0.00     0.000 HD 
HETATM   18  C   UNL     1      -9.889   3.561  71.339  1.00  0.00    -0.144 C  
HETATM   19  O   UNL     1      -9.483   2.586  69.132  1.00  0.00    -0.143 OA 
HETATM   20  O   UNL     1      -9.525   2.198  71.673  1.00  0.00    -0.100 OA 
BRANCH  14  21
HETATM   21  C   UNL     1      -8.224   5.885  69.246  1.00  0.00    -0.113 C  
BRANCH  21  22
HETATM   22  O   UNL     1      -9.499   6.152  68.674  1.00  0.00    -0.124 OA 
BRANCH  22  23
HETATM   23  P   UNL     1      -9.575   6.478  67.112  1.00  0.00    -0.150 P  
HETATM   24  O   UNL     1      -9.125   5.411  66.171  1.00  0.00    -0.142 OA 
HETATM   25  O   UNL     1     -11.153   6.715  66.908  1.00  0.00    -0.400 OA 
BRANCH  23  26
HETATM   26  O   UNL     1      -8.985   7.929  66.899  1.00  0.00    -0.127 OA 
BRANCH  26  27
HETATM   27  P   UNL     1      -9.280   9.174  67.827  1.00  0.00    -0.132 P  
HETATM   28  O   UNL     1      -8.025   9.173  68.831  1.00  0.00    -0.096 OA 
HETATM   29  O   UNL     1     -10.546   9.178  68.613  1.00  0.00    -0.215 OA 
BRANCH  27  30
HETATM   30  O   UNL     1      -9.034  10.493  66.948  1.00  0.00    -0.139 OA 
BRANCH  30  31
HETATM   31  C   UNL     1      -9.802  10.744  65.777  1.00  0.00    -0.240 C  
BRANCH  31  32
HETATM   32  C   UNL     1     -11.034  11.607  66.030  1.00  0.00    -0.286 C  
HETATM   33  O   UNL     1     -10.954  12.275  67.305  1.00  0.00    -0.236 OA 
HETATM   34  C   UNL     1     -11.957  13.305  67.219  1.00  0.00    -0.343 C  
HETATM   35  H   UNL     1     -12.056  12.993  63.245  1.00  0.00     0.000 HD 
HETATM   36  C   UNL     1     -11.846  13.859  65.789  1.00  0.00    -0.378 C  
HETATM   37  C   UNL     1     -11.187  12.723  65.002  1.00  0.00    -0.298 C  
HETATM   38  H   UNL     1     -13.038  14.556  64.328  1.00  0.00     0.000 HD 
HETATM   39  O   UNL     1     -13.106  14.214  65.212  1.00  0.00    -0.763 OA 
HETATM   40  O   UNL     1     -11.960  12.298  63.885  1.00  0.00    -0.412 OA 
BRANCH  34  41
HETATM   41  N   UNL     1     -11.745  14.310  68.241  1.00  0.00    -0.325 NA 
HETATM   42  C   UNL     1     -11.209  15.559  68.096  1.00  0.00    -0.343 A  
HETATM   43  N   UNL     1     -11.207  16.228  69.232  1.00  0.00    -0.325 NA 
HETATM   44  C   UNL     1     -11.742  15.355  70.158  1.00  0.00    -0.330 A  
HETATM   45  C   UNL     1     -12.015  15.471  71.531  1.00  0.00    -0.398 A  
HETATM   46  N   UNL     1     -11.805  16.637  72.253  1.00  0.00    -0.582 NA 
HETATM   47  N   UNL     1     -12.506  14.392  72.185  1.00  0.00    -0.295 NA 
HETATM   48  H1  UNL     1     -12.004  16.721  73.250  1.00  0.00     0.000 HD 
HETATM   49  C   UNL     1     -12.754  13.269  71.477  1.00  0.00    -0.281 A  
HETATM   50  H2  UNL     1     -12.314  17.384  71.778  1.00  0.00     0.000 HD 
HETATM   51  N   UNL     1     -12.584  13.053  70.152  1.00  0.00    -0.060 NA 
HETATM   52  C   UNL     1     -12.057  14.144  69.564  1.00  0.00    -0.340 A  
ENDBRANCH  34  41
ENDBRANCH  31  32
ENDBRANCH  30  31
ENDBRANCH  27  30
ENDBRANCH  26  27
ENDBRANCH  23  26
ENDBRANCH  22  23
ENDBRANCH  21  22
ENDBRANCH  14  21
ENDBRANCH   8  12
ENDBRANCH   4   6
TORSDOF 11
ENDMDL
MODEL       44
REMARK 921   NORMALIZED FREE ENERGY PREDICTED BY IDOCK:   -7.07 KCAL/MOL
REMARK 922        TOTAL FREE ENERGY PREDICTED BY IDOCK:  -13.82 KCAL/MOL
REMARK 923 INTER-LIGAND FREE ENERGY PREDICTED BY IDOCK:  -12.19 KCAL/MOL
REMARK 924 INTRA-LIGAND FREE ENERGY PREDICTED BY IDOCK:   -1.63 KCAL/MOL
REMARK 927      BINDING AFFINITY PREDICTED BY RF-SCORE:    0.00 PKD
ROOT
HETATM    1  N   UNL     1     -14.190   6.289  72.321  1.00  0.00    -0.298 N  
HETATM    2  H1  UNL     1     -13.723   5.577  72.884  1.00  0.00     0.000 HD 
HETATM    3  H2  UNL     1     -15.209   6.302  72.267  1.00  0.00     0.000 HD 
HETATM    4  C   UNL     1     -13.474   7.215  71.646  1.00  0.00    -0.321 C  
HETATM    5  O   UNL     1     -14.037   8.074  70.967  1.00  0.00    -0.151 OA 
ENDROOT
BRANCH   4   6
HETATM    6  C   UNL     1     -12.000   7.128  71.758  1.00  0.00    -0.348 C  
HETATM    7  C   UNL     1     -11.370   6.404  70.815  1.00  0.00    -0.350 C  
HETATM    8  N   UNL     1      -9.986   6.274  70.739  1.00  0.00    -0.184 NA 
HETATM    9  C   UNL     1     -11.224   7.865  72.815  1.00  0.00    -0.466 C  
HETATM   10  C   UNL     1      -9.231   6.805  71.791  1.00  0.00    -0.147 C  
HETATM   11  C   UNL     1      -9.750   7.547  72.780  1.00  0.00    -0.239 C  
BRANCH   8  12
HETATM   12  C   UNL     1      -9.263   5.759  69.555  1.00  0.00    -0.130 C  
HETATM   13  O   UNL     1      -8.177   6.661  69.245  1.00  0.00    -0.120 OA 
HETATM   14  C   UNL     1      -8.684   7.658  68.329  1.00  0.00    -0.123 C  
HETATM   15  H   UNL     1      -9.833   4.639  66.501  1.00  0.00     0.000 HD 
HETATM   16  C   UNL     1      -9.891   7.050  67.621  1.00  0.00    -0.147 C  
HETATM   17  H   UNL     1     -10.423   6.621  65.765  1.00  0.00     0.000 HD 
HETATM   18  C   UNL     1     -10.014   5.651  68.218  1.00  0.00    -0.155 C  
HETATM   19  O   UNL     1      -9.671   6.999  66.206  1.00  0.00    -0.112 OA 
HETATM   20  O   UNL     1      -9.369   4.706  67.328  1.00  0.00    -0.127 OA 
BRANCH  14  21
HETATM   21  C   UNL     1      -9.044   8.946  69.086  1.00  0.00    -0.141 C  
BRANCH  21  22
HETATM   22  O   UNL     1     -10.451   9.152  69.110  1.00  0.00    -0.212 OA 
BRANCH  22  23
HETATM   23  P   UNL     1     -11.029  10.506  68.491  1.00  0.00    -0.270 P  
HETATM   24  O   UNL     1     -12.335  10.995  69.023  1.00  0.00    -0.481 OA 
HETATM   25  O   UNL     1      -9.882  11.560  68.891  1.00  0.00    -0.173 OA 
BRANCH  23  26
HETATM   26  O   UNL     1     -10.874  10.417  66.921  1.00  0.00    -0.236 OA 
BRANCH  26  27
HETATM   27  P   UNL     1     -10.845  11.657  65.940  1.00  0.00    -0.238 P  
HETATM   28  O   UNL     1     -11.264  11.005  64.532  1.00  0.00    -0.129 OA 
HETATM   29  O   UNL     1      -9.561  12.398  65.784  1.00  0.00    -0.236 OA 
BRANCH  27  30
HETATM   30  O   UNL     1     -12.110  12.577  66.297  1.00  0.00    -0.574 OA 
BRANCH  30  31
HETATM   31  C   UNL     1     -11.965  13.983  66.465  1.00  0.00    -0.444 C  
BRANCH  31  32
HETATM   32  C   UNL     1     -11.128  14.368  67.680  1.00  0.00    -0.300 C  
HETATM   33  O   UNL     1     -10.072  15.280  67.323  1.00  0.00    -0.233 OA 
HETATM   34  C   UNL     1      -9.644  15.825  68.586  1.00  0.00    -0.207 C  
HETATM   35  H   UNL     1     -13.022  14.633  70.339  1.00  0.00     0.000 HD 
HETATM   36  C   UNL     1     -10.936  16.052  69.388  1.00  0.00    -0.321 C  
HETATM   37  C   UNL     1     -11.943  15.094  68.745  1.00  0.00    -0.250 C  
HETATM   38  H   UNL     1     -11.598  15.923  71.282  1.00  0.00     0.000 HD 
HETATM   39  O   UNL     1     -10.800  15.784  70.786  1.00  0.00    -0.312 OA 
HETATM   40  O   UNL     1     -12.515  14.181  69.676  1.00  0.00    -0.310 OA 
BRANCH  34  41
HETATM   41  N   UNL     1      -8.874  17.036  68.386  1.00  0.00    -0.239 NA 
HETATM   42  C   UNL     1      -7.571  17.271  68.723  1.00  0.00    -0.256 A  
HETATM   43  N   UNL     1      -7.177  18.473  68.352  1.00  0.00    -0.266 NA 
HETATM   44  C   UNL     1      -8.290  19.049  67.772  1.00  0.00    -0.288 A  
HETATM   45  C   UNL     1      -8.515  20.300  67.175  1.00  0.00    -0.339 A  
HETATM   46  N   UNL     1      -7.523  21.256  67.015  1.00  0.00    -0.788 NA 
HETATM   47  N   UNL     1      -9.762  20.589  66.735  1.00  0.00    -0.387 NA 
HETATM   48  H1  UNL     1      -7.687  22.164  66.581  1.00  0.00     0.000 HD 
HETATM   49  C   UNL     1     -10.720  19.644  66.848  1.00  0.00    -0.453 A  
HETATM   50  H2  UNL     1      -6.753  20.813  66.512  1.00  0.00     0.000 HD 
HETATM   51  N   UNL     1     -10.614  18.393  67.352  1.00  0.00    -0.420 NA 
HETATM   52  C   UNL     1      -9.366  18.177  67.809  1.00  0.00    -0.267 A  
ENDBRANCH  34  41
ENDBRANCH  31  32
ENDBRANCH  30  31
ENDBRANCH  27  30
ENDBRANCH  26  27
ENDBRANCH  23  26
ENDBRANCH  22  23
ENDBRANCH  21  22
ENDBRANCH  14  21
ENDBRANCH   8  12
ENDBRANCH   4   6
TORSDOF 11
ENDMDL
MODEL       45
REMARK 921   NORMALIZED FREE ENERGY PREDICTED BY IDOCK:   -7.04 KCAL/MOL
REMARK 922        TOTAL FREE ENERGY PREDICTED BY IDOCK:  -13.77 KCAL/MOL
REMARK 923 INTER-LIGAND FREE ENERGY PREDICTED BY IDOCK:  -11.84 KCAL/MOL
REMARK 924 INTRA-LIGAND FREE ENERGY PREDICTED BY IDOCK:   -1.93 KCAL/MOL
REMARK 927      BINDING AFFINITY PREDICTED BY RF-SCORE:    0.00 PKD
ROOT
HETATM    1  N   UNL     1      -8.392  16.728  66.117  1.00  0.00    -0.305 N  
HETATM    2  H1  UNL     1      -8.936  16.263  65.390  1.00  0.00     0.000 HD 
HETATM    3  H2  UNL     1      -7.578  17.286  65.859  1.00  0.00     0.000 HD 
HETATM    4  C   UNL     1      -8.738  16.614  67.419  1.00  0.00    -0.190 C  
HETATM    5  O   UNL     1      -8.081  17.175  68.296  1.00  0.00    -0.220 OA 
ENDROOT
BRANCH   4   6
HETATM    6  C   UNL     1      -9.922  15.778  67.722  1.00  0.00    -0.227 C  
HETATM    7  C   UNL     1     -10.633  15.343  66.666  1.00  0.00    -0.306 C  
HETATM    8  N   UNL     1     -11.735  14.498  66.772  1.00  0.00    -0.383 NA 
HETATM    9  C   UNL     1     -10.282  15.362  69.122  1.00  0.00    -0.239 C  
HETATM   10  C   UNL     1     -12.207  14.215  68.059  1.00  0.00    -0.146 C  
HETATM   11  C   UNL     1     -11.577  14.591  69.182  1.00  0.00    -0.331 C  
BRANCH   8  12
HETATM   12  C   UNL     1     -12.332  13.762  65.636  1.00  0.00    -0.482 C  
HETATM   13  O   UNL     1     -12.304  12.348  65.933  1.00  0.00    -0.638 OA 
HETATM   14  C   UNL     1     -11.053  11.821  65.437  1.00  0.00    -0.279 C  
HETATM   15  H   UNL     1     -12.148  13.559  62.345  1.00  0.00     0.000 HD 
HETATM   16  C   UNL     1     -10.573  12.759  64.332  1.00  0.00    -0.379 C  
HETATM   17  H   UNL     1     -10.157  12.638  62.402  1.00  0.00     0.000 HD 
HETATM   18  C   UNL     1     -11.647  13.840  64.262  1.00  0.00    -0.369 C  
HETATM   19  O   UNL     1     -10.456  12.054  63.090  1.00  0.00    -0.393 OA 
HETATM   20  O   UNL     1     -12.571  13.511  63.195  1.00  0.00    -0.762 OA 
BRANCH  14  21
HETATM   21  C   UNL     1     -10.032  11.702  66.580  1.00  0.00    -0.203 C  
BRANCH  21  22
HETATM   22  O   UNL     1     -10.125  10.435  67.221  1.00  0.00    -0.183 OA 
BRANCH  22  23
HETATM   23  P   UNL     1     -10.210  10.398  68.815  1.00  0.00    -0.214 P  
HETATM   24  O   UNL     1      -9.313   9.438  69.522  1.00  0.00    -0.161 OA 
HETATM   25  O   UNL     1      -9.768  11.896  69.197  1.00  0.00     0.089 OA 
BRANCH  23  26
HETATM   26  O   UNL     1     -11.740  10.386  69.210  1.00  0.00    -0.222 OA 
BRANCH  26  27
HETATM   27  P   UNL     1     -12.300  10.574  70.677  1.00  0.00    -0.387 P  
HETATM   28  O   UNL     1     -13.734   9.854  70.605  1.00  0.00    -0.113 OA 
HETATM   29  O   UNL     1     -12.465  11.964  71.191  1.00  0.00    -0.348 OA 
BRANCH  27  30
HETATM   30  O   UNL     1     -11.460   9.601  71.637  1.00  0.00    -0.380 OA 
BRANCH  30  31
HETATM   31  C   UNL     1     -12.097   8.537  72.336  1.00  0.00    -0.367 C  
BRANCH  31  32
HETATM   32  C   UNL     1     -11.228   7.289  72.466  1.00  0.00    -0.301 C  
HETATM   33  O   UNL     1     -11.383   6.421  71.327  1.00  0.00    -0.282 OA 
HETATM   34  C   UNL     1     -10.256   5.529  71.416  1.00  0.00    -0.215 C  
HETATM   35  H   UNL     1      -8.374   8.023  73.894  1.00  0.00     0.000 HD 
HETATM   36  C   UNL     1      -9.075   6.413  71.849  1.00  0.00    -0.145 C  
HETATM   37  C   UNL     1      -9.740   7.616  72.521  1.00  0.00    -0.184 C  
HETATM   38  H   UNL     1      -7.440   6.310  73.015  1.00  0.00     0.000 HD 
HETATM   39  O   UNL     1      -8.170   5.764  72.748  1.00  0.00    -0.111 OA 
HETATM   40  O   UNL     1      -9.301   7.820  73.859  1.00  0.00    -0.277 OA 
BRANCH  34  41
HETATM   41  N   UNL     1     -10.035   4.856  70.152  1.00  0.00    -0.237 NA 
HETATM   42  C   UNL     1      -9.512   3.612  69.940  1.00  0.00    -0.192 A  
HETATM   43  N   UNL     1      -9.496   3.297  68.660  1.00  0.00    -0.166 NA 
HETATM   44  C   UNL     1     -10.009   4.405  68.015  1.00  0.00    -0.009 A  
HETATM   45  C   UNL     1     -10.260   4.691  66.663  1.00  0.00    -0.213 A  
HETATM   46  N   UNL     1     -10.048   3.778  65.641  1.00  0.00    -0.417 NA 
HETATM   47  N   UNL     1     -10.732   5.918  66.340  1.00  0.00    -0.167 NA 
HETATM   48  H1  UNL     1     -10.231   3.986  64.659  1.00  0.00     0.000 HD 
HETATM   49  C   UNL     1     -10.983   6.794  67.337  1.00  0.00    -0.337 A  
HETATM   50  H2  UNL     1     -10.570   2.933  65.875  1.00  0.00     0.000 HD 
HETATM   51  N   UNL     1     -10.833   6.618  68.671  1.00  0.00    -0.258 NA 
HETATM   52  C   UNL     1     -10.324   5.399  68.928  1.00  0.00    -0.190 A  
ENDBRANCH  34  41
ENDBRANCH  31  32
ENDBRANCH  30  31
ENDBRANCH  27  30
ENDBRANCH  26  27
ENDBRANCH  23  26
ENDBRANCH  22  23
ENDBRANCH  21  22
ENDBRANCH  14  21
ENDBRANCH   8  12
ENDBRANCH   4   6
TORSDOF 11
ENDMDL
MODEL       46
REMARK 921   NORMALIZED FREE ENERGY PREDICTED BY IDOCK:   -7.02 KCAL/MOL
REMARK 922        TOTAL FREE ENERGY PREDICTED BY IDOCK:  -13.74 KCAL/MOL
REMARK 923 INTER-LIGAND FREE ENERGY PREDICTED BY IDOCK:  -11.61 KCAL/MOL
REMARK 924 INTRA-LIGAND FREE ENERGY PREDICTED BY IDOCK:   -2.12 KCAL/MOL
REMARK 927      BINDING AFFINITY PREDICTED BY RF-SCORE:    0.00 PKD
ROOT
HETATM    1  N   UNL     1     -12.468  15.020  69.338  1.00  0.00    -0.589 N  
HETATM    2  H1  UNL     1     -12.309  15.299  68.370  1.00  0.00     0.000 HD 
HETATM    3  H2  UNL     1     -12.802  15.709  70.013  1.00  0.00     0.000 HD 
HETATM    4  C   UNL     1     -12.242  13.749  69.737  1.00  0.00    -0.310 C  
HETATM    5  O   UNL     1     -12.434  13.413  70.906  1.00  0.00    -0.361 OA 
ENDROOT
BRANCH   4   6
HETATM    6  C   UNL     1     -11.745  12.807  68.709  1.00  0.00    -0.363 C  
HETATM    7  C   UNL     1     -11.995  13.134  67.427  1.00  0.00    -0.327 C  
HETATM    8  N   UNL     1     -11.545  12.391  66.339  1.00  0.00    -0.373 NA 
HETATM    9  C   UNL     1     -10.937  11.586  69.052  1.00  0.00    -0.285 C  
HETATM   10  C   UNL     1     -10.929  11.163  66.609  1.00  0.00    -0.228 C  
HETATM   11  C   UNL     1     -10.626  10.738  67.844  1.00  0.00    -0.258 C  
BRANCH   8  12
HETATM   12  C   UNL     1     -11.530  12.885  64.944  1.00  0.00    -0.315 C  
HETATM   13  O   UNL     1     -10.198  13.347  64.629  1.00  0.00    -0.376 OA 
HETATM   14  C   UNL     1     -10.127  14.748  64.978  1.00  0.00    -0.273 C  
HETATM   15  H   UNL     1     -13.215  14.880  62.922  1.00  0.00     0.000 HD 
HETATM   16  C   UNL     1     -11.552  15.293  64.956  1.00  0.00    -0.239 C  
HETATM   17  H   UNL     1     -12.560  16.688  63.981  1.00  0.00     0.000 HD 
HETATM   18  C   UNL     1     -12.410  14.090  64.576  1.00  0.00    -0.378 C  
HETATM   19  O   UNL     1     -11.672  16.349  63.995  1.00  0.00    -1.044 OA 
HETATM   20  O   UNL     1     -12.671  14.135  63.150  1.00  0.00    -0.627 OA 
BRANCH  14  21
HETATM   21  C   UNL     1      -9.460  14.923  66.352  1.00  0.00    -0.300 C  
BRANCH  21  22
HETATM   22  O   UNL     1      -8.705  13.772  66.707  1.00  0.00    -0.190 OA 
BRANCH  22  23
HETATM   23  P   UNL     1      -7.595  13.915  67.846  1.00  0.00    -0.196 P  
HETATM   24  O   UNL     1      -6.309  14.569  67.466  1.00  0.00    -0.292 OA 
HETATM   25  O   UNL     1      -8.351  14.847  68.918  1.00  0.00    -0.164 OA 
BRANCH  23  26
HETATM   26  O   UNL     1      -7.508  12.531  68.604  1.00  0.00    -0.111 OA 
BRANCH  26  27
HETATM   27  P   UNL     1      -6.192  11.923  69.235  1.00  0.00    -0.114 P  
HETATM   28  O   UNL     1      -6.759  11.020  70.437  1.00  0.00    -0.263 OA 
HETATM   29  O   UNL     1      -5.166  12.867  69.762  1.00  0.00    -0.077 OA 
BRANCH  27  30
HETATM   30  O   UNL     1      -5.629  10.831  68.203  1.00  0.00    -0.037 OA 
BRANCH  30  31
HETATM   31  C   UNL     1      -6.510  10.117  67.343  1.00  0.00    -0.067 C  
BRANCH  31  32
HETATM   32  C   UNL     1      -6.746   8.674  67.777  1.00  0.00    -0.066 C  
HETATM   33  O   UNL     1      -7.852   8.575  68.694  1.00  0.00    -0.104 OA 
HETATM   34  C   UNL     1      -8.175   7.171  68.697  1.00  0.00    -0.125 C  
HETATM   35  H   UNL     1      -6.180   6.622  65.287  1.00  0.00     0.000 HD 
HETATM   36  C   UNL     1      -8.045   6.724  67.232  1.00  0.00    -0.118 C  
HETATM   37  C   UNL     1      -7.111   7.764  66.609  1.00  0.00    -0.079 C  
HETATM   38  H   UNL     1      -7.432   5.129  66.173  1.00  0.00     0.000 HD 
HETATM   39  O   UNL     1      -7.512   5.405  67.078  1.00  0.00    -0.085 OA 
HETATM   40  O   UNL     1      -5.953   7.188  66.015  1.00  0.00    -0.034 OA 
BRANCH  34  41
HETATM   41  N   UNL     1      -9.497   6.952  69.248  1.00  0.00    -0.147 NA 
HETATM   42  C   UNL     1     -10.578   6.378  68.641  1.00  0.00    -0.253 A  
HETATM   43  N   UNL     1     -11.613   6.298  69.455  1.00  0.00    -0.301 NA 
HETATM   44  C   UNL     1     -11.183   6.874  70.633  1.00  0.00    -0.301 A  
HETATM   45  C   UNL     1     -11.805   7.081  71.875  1.00  0.00    -0.305 A  
HETATM   46  N   UNL     1     -13.091   6.648  72.164  1.00  0.00    -0.534 NA 
HETATM   47  N   UNL     1     -11.117   7.737  72.840  1.00  0.00    -0.396 NA 
HETATM   48  H1  UNL     1     -13.543   6.798  73.066  1.00  0.00     0.000 HD 
HETATM   49  C   UNL     1      -9.849   8.120  72.578  1.00  0.00    -0.293 A  
HETATM   50  H2  UNL     1     -13.125   5.646  71.971  1.00  0.00     0.000 HD 
HETATM   51  N   UNL     1      -9.129   7.933  71.448  1.00  0.00    -0.133 NA 
HETATM   52  C   UNL     1      -9.875   7.314  70.514  1.00  0.00    -0.183 A  
ENDBRANCH  34  41
ENDBRANCH  31  32
ENDBRANCH  30  31
ENDBRANCH  27  30
ENDBRANCH  26  27
ENDBRANCH  23  26
ENDBRANCH  22  23
ENDBRANCH  21  22
ENDBRANCH  14  21
ENDBRANCH   8  12
ENDBRANCH   4   6
TORSDOF 11
ENDMDL
MODEL       47
REMARK 921   NORMALIZED FREE ENERGY PREDICTED BY IDOCK:   -6.99 KCAL/MOL
REMARK 922        TOTAL FREE ENERGY PREDICTED BY IDOCK:  -13.68 KCAL/MOL
REMARK 923 INTER-LIGAND FREE ENERGY PREDICTED BY IDOCK:  -11.25 KCAL/MOL
REMARK 924 INTRA-LIGAND FREE ENERGY PREDICTED BY IDOCK:   -2.44 KCAL/MOL
REMARK 927      BINDING AFFINITY PREDICTED BY RF-SCORE:    0.00 PKD
ROOT
HETATM    1  N   UNL     1     -10.416  18.498  65.992  1.00  0.00    -0.449 N  
HETATM    2  H1  UNL     1     -11.375  18.623  66.318  1.00  0.00     0.000 HD 
HETATM    3  H2  UNL     1      -9.932  19.273  65.539  1.00  0.00     0.000 HD 
HETATM    4  C   UNL     1      -9.779  17.317  66.155  1.00  0.00    -0.224 C  
HETATM    5  O   UNL     1      -8.622  17.166  65.762  1.00  0.00    -0.525 OA 
ENDROOT
BRANCH   4   6
HETATM    6  C   UNL     1     -10.546  16.232  66.808  1.00  0.00    -0.257 C  
HETATM    7  C   UNL     1     -11.214  15.396  65.992  1.00  0.00    -0.168 C  
HETATM    8  N   UNL     1     -11.931  14.289  66.439  1.00  0.00    -0.418 NA 
HETATM    9  C   UNL     1     -10.531  16.012  68.296  1.00  0.00    -0.269 C  
HETATM   10  C   UNL     1     -12.081  14.136  67.822  1.00  0.00    -0.286 C  
HETATM   11  C   UNL     1     -11.459  14.905  68.728  1.00  0.00    -0.328 C  
BRANCH   8  12
HETATM   12  C   UNL     1     -12.401  13.193  65.563  1.00  0.00    -0.474 C  
HETATM   13  O   UNL     1     -11.811  11.954  66.014  1.00  0.00    -0.497 OA 
HETATM   14  C   UNL     1     -10.556  11.787  65.316  1.00  0.00    -0.278 C  
HETATM   15  H   UNL     1     -12.712  12.435  62.364  1.00  0.00     0.000 HD 
HETATM   16  C   UNL     1     -10.644  12.599  64.027  1.00  0.00    -0.427 C  
HETATM   17  H   UNL     1     -10.543  12.255  62.082  1.00  0.00     0.000 HD 
HETATM   18  C   UNL     1     -12.033  13.229  64.071  1.00  0.00    -0.465 C  
HETATM   19  O   UNL     1     -10.488  11.749  62.884  1.00  0.00    -0.236 OA 
HETATM   20  O   UNL     1     -12.939  12.413  63.287  1.00  0.00    -0.675 OA 
BRANCH  14  21
HETATM   21  C   UNL     1      -9.386  12.234  66.205  1.00  0.00    -0.206 C  
BRANCH  21  22
HETATM   22  O   UNL     1      -8.788  11.124  66.865  1.00  0.00    -0.149 OA 
BRANCH  22  23
HETATM   23  P   UNL     1      -8.666  11.166  68.457  1.00  0.00    -0.131 P  
HETATM   24  O   UNL     1      -7.947  10.035  69.114  1.00  0.00    -0.096 OA 
HETATM   25  O   UNL     1      -7.820  12.515  68.681  1.00  0.00    -0.120 OA 
BRANCH  23  26
HETATM   26  O   UNL     1     -10.084  11.556  69.034  1.00  0.00    -0.163 OA 
BRANCH  26  27
HETATM   27  P   UNL     1     -11.247  10.533  69.356  1.00  0.00    -0.286 P  
HETATM   28  O   UNL     1     -11.017   9.379  68.261  1.00  0.00    -0.152 OA 
HETATM   29  O   UNL     1     -12.652  11.022  69.277  1.00  0.00    -0.361 OA 
BRANCH  27  30
HETATM   30  O   UNL     1     -10.869   9.800  70.732  1.00  0.00    -0.297 OA 
BRANCH  30  31
HETATM   31  C   UNL     1     -11.666   8.731  71.231  1.00  0.00    -0.298 C  
BRANCH  31  32
HETATM   32  C   UNL     1     -10.996   7.366  71.113  1.00  0.00    -0.246 C  
HETATM   33  O   UNL     1     -11.285   6.748  69.844  1.00  0.00    -0.296 OA 
HETATM   34  C   UNL     1     -10.305   5.697  69.740  1.00  0.00    -0.282 C  
HETATM   35  H   UNL     1      -8.058   7.402  72.559  1.00  0.00     0.000 HD 
HETATM   36  C   UNL     1      -9.002   6.305  70.285  1.00  0.00    -0.154 C  
HETATM   37  C   UNL     1      -9.475   7.454  71.178  1.00  0.00    -0.155 C  
HETATM   38  H   UNL     1      -7.398   5.754  71.364  1.00  0.00     0.000 HD 
HETATM   39  O   UNL     1      -8.203   5.379  71.027  1.00  0.00    -0.113 OA 
HETATM   40  O   UNL     1      -9.005   7.347  72.517  1.00  0.00    -0.127 OA 
BRANCH  34  41
HETATM   41  N   UNL     1     -10.194   5.236  68.371  1.00  0.00    -0.160 NA 
HETATM   42  C   UNL     1     -10.592   5.876  67.231  1.00  0.00    -0.291 A  
HETATM   43  N   UNL     1     -10.295   5.183  66.149  1.00  0.00    -0.243 NA 
HETATM   44  C   UNL     1      -9.702   4.029  66.619  1.00  0.00    -0.192 A  
HETATM   45  C   UNL     1      -9.159   2.905  65.974  1.00  0.00    -0.130 A  
HETATM   46  N   UNL     1      -9.083   2.783  64.594  1.00  0.00    -0.127 NA 
HETATM   47  N   UNL     1      -8.685   1.890  66.735  1.00  0.00    -0.111 NA 
HETATM   48  H1  UNL     1      -8.688   1.967  64.126  1.00  0.00     0.000 HD 
HETATM   49  C   UNL     1      -8.716   2.026  68.079  1.00  0.00    -0.093 A  
HETATM   50  H2  UNL     1      -8.589   3.603  64.243  1.00  0.00     0.000 HD 
HETATM   51  N   UNL     1      -9.162   3.073  68.810  1.00  0.00    -0.153 NA 
HETATM   52  C   UNL     1      -9.655   4.031  68.003  1.00  0.00    -0.136 A  
ENDBRANCH  34  41
ENDBRANCH  31  32
ENDBRANCH  30  31
ENDBRANCH  27  30
ENDBRANCH  26  27
ENDBRANCH  23  26
ENDBRANCH  22  23
ENDBRANCH  21  22
ENDBRANCH  14  21
ENDBRANCH   8  12
ENDBRANCH   4   6
TORSDOF 11
ENDMDL
MODEL       48
REMARK 921   NORMALIZED FREE ENERGY PREDICTED BY IDOCK:   -6.94 KCAL/MOL
REMARK 922        TOTAL FREE ENERGY PREDICTED BY IDOCK:  -13.61 KCAL/MOL
REMARK 923 INTER-LIGAND FREE ENERGY PREDICTED BY IDOCK:  -12.25 KCAL/MOL
REMARK 924 INTRA-LIGAND FREE ENERGY PREDICTED BY IDOCK:   -1.36 KCAL/MOL
REMARK 927      BINDING AFFINITY PREDICTED BY RF-SCORE:    0.00 PKD
ROOT
HETATM    1  N   UNL     1     -11.430   4.498  65.020  1.00  0.00    -0.825 N  
HETATM    2  H1  UNL     1     -11.712   4.857  65.932  1.00  0.00     0.000 HD 
HETATM    3  H2  UNL     1     -12.140   4.297  64.315  1.00  0.00     0.000 HD 
HETATM    4  C   UNL     1     -10.126   4.284  64.734  1.00  0.00    -0.144 C  
HETATM    5  O   UNL     1      -9.786   3.850  63.633  1.00  0.00    -0.155 OA 
ENDROOT
BRANCH   4   6
HETATM    6  C   UNL     1      -9.152   4.585  65.807  1.00  0.00    -0.136 C  
HETATM    7  C   UNL     1      -9.394   4.027  67.008  1.00  0.00    -0.183 C  
HETATM    8  N   UNL     1      -8.545   4.157  68.104  1.00  0.00    -0.094 NA 
HETATM    9  C   UNL     1      -7.912   5.403  65.570  1.00  0.00    -0.109 C  
HETATM   10  C   UNL     1      -7.465   5.038  67.981  1.00  0.00    -0.075 C  
HETATM   11  C   UNL     1      -7.126   5.645  66.834  1.00  0.00    -0.070 C  
BRANCH   8  12
HETATM   12  C   UNL     1      -8.619   3.312  69.317  1.00  0.00    -0.067 C  
HETATM   13  O   UNL     1      -9.876   3.566  69.984  1.00  0.00    -0.138 OA 
HETATM   14  C   UNL     1      -9.666   4.648  70.918  1.00  0.00    -0.192 C  
HETATM   15  H   UNL     1      -6.832   2.493  71.971  1.00  0.00     0.000 HD 
HETATM   16  C   UNL     1      -8.177   4.672  71.256  1.00  0.00    -0.100 C  
HETATM   17  H   UNL     1      -7.050   4.483  72.870  1.00  0.00     0.000 HD 
HETATM   18  C   UNL     1      -7.585   3.530  70.434  1.00  0.00    -0.040 C  
HETATM   19  O   UNL     1      -7.976   4.468  72.660  1.00  0.00    -0.085 OA 
HETATM   20  O   UNL     1      -7.471   2.358  71.280  1.00  0.00    -0.033 OA 
BRANCH  14  21
HETATM   21  C   UNL     1     -10.145   5.977  70.314  1.00  0.00    -0.194 C  
BRANCH  21  22
HETATM   22  O   UNL     1      -9.737   7.081  71.113  1.00  0.00    -0.173 OA 
BRANCH  22  23
HETATM   23  P   UNL     1     -10.627   7.469  72.380  1.00  0.00    -0.304 P  
HETATM   24  O   UNL     1     -11.414   6.376  73.021  1.00  0.00    -0.147 OA 
HETATM   25  O   UNL     1      -9.507   7.976  73.418  1.00  0.00    -0.279 OA 
BRANCH  23  26
HETATM   26  O   UNL     1     -11.395   8.806  72.032  1.00  0.00    -0.339 OA 
BRANCH  26  27
HETATM   27  P   UNL     1     -12.939   8.908  71.709  1.00  0.00    -0.410 P  
HETATM   28  O   UNL     1     -13.586   9.191  73.152  1.00  0.00    -0.179 OA 
HETATM   29  O   UNL     1     -13.604   7.728  71.087  1.00  0.00    -0.216 OA 
BRANCH  27  30
HETATM   30  O   UNL     1     -13.174  10.293  70.935  1.00  0.00    -0.395 OA 
BRANCH  30  31
HETATM   31  C   UNL     1     -12.072  11.094  70.520  1.00  0.00    -0.381 C  
BRANCH  31  32
HETATM   32  C   UNL     1     -11.576  10.765  69.116  1.00  0.00    -0.305 C  
HETATM   33  O   UNL     1     -12.150  11.650  68.135  1.00  0.00    -0.577 OA 
HETATM   34  C   UNL     1     -11.316  11.468  66.975  1.00  0.00    -0.269 C  
HETATM   35  H   UNL     1      -8.437   9.833  69.198  1.00  0.00     0.000 HD 
HETATM   36  C   UNL     1      -9.881  11.370  67.520  1.00  0.00    -0.178 C  
HETATM   37  C   UNL     1     -10.067  10.933  68.975  1.00  0.00    -0.196 C  
HETATM   38  H   UNL     1      -8.173  10.379  67.146  1.00  0.00     0.000 HD 
HETATM   39  O   UNL     1      -9.059  10.439  66.809  1.00  0.00    -0.143 OA 
HETATM   40  O   UNL     1      -9.377   9.729  69.286  1.00  0.00    -0.169 OA 
BRANCH  34  41
HETATM   41  N   UNL     1     -11.500  12.557  66.037  1.00  0.00    -0.356 NA 
HETATM   42  C   UNL     1     -12.325  12.602  64.949  1.00  0.00    -0.498 A  
HETATM   43  N   UNL     1     -12.274  13.771  64.342  1.00  0.00    -0.541 NA 
HETATM   44  C   UNL     1     -11.351  14.504  65.059  1.00  0.00    -0.377 A  
HETATM   45  C   UNL     1     -10.865  15.815  64.929  1.00  0.00    -0.413 A  
HETATM   46  N   UNL     1     -11.323  16.704  63.967  1.00  0.00    -1.530 NA 
HETATM   47  N   UNL     1      -9.900  16.234  65.782  1.00  0.00    -0.462 NA 
HETATM   48  H1  UNL     1     -10.970  17.657  63.873  1.00  0.00     0.000 HD 
HETATM   49  C   UNL     1      -9.483  15.386  66.747  1.00  0.00    -0.241 A  
HETATM   50  H2  UNL     1     -12.337  16.765  64.068  1.00  0.00     0.000 HD 
HETATM   51  N   UNL     1      -9.909  14.128  67.005  1.00  0.00    -0.252 NA 
HETATM   52  C   UNL     1     -10.836  13.754  66.104  1.00  0.00    -0.279 A  
ENDBRANCH  34  41
ENDBRANCH  31  32
ENDBRANCH  30  31
ENDBRANCH  27  30
ENDBRANCH  26  27
ENDBRANCH  23  26
ENDBRANCH  22  23
ENDBRANCH  21  22
ENDBRANCH  14  21
ENDBRANCH   8  12
ENDBRANCH   4   6
TORSDOF 11
ENDMDL
MODEL       49
REMARK 921   NORMALIZED FREE ENERGY PREDICTED BY IDOCK:   -6.93 KCAL/MOL
REMARK 922        TOTAL FREE ENERGY PREDICTED BY IDOCK:  -13.60 KCAL/MOL
REMARK 923 INTER-LIGAND FREE ENERGY PREDICTED BY IDOCK:  -11.63 KCAL/MOL
REMARK 924 INTRA-LIGAND FREE ENERGY PREDICTED BY IDOCK:   -1.97 KCAL/MOL
REMARK 927      BINDING AFFINITY PREDICTED BY RF-SCORE:    0.00 PKD
ROOT
HETATM    1  N   UNL     1      -7.215   1.757  70.115  1.00  0.00    -0.033 N  
HETATM    2  H1  UNL     1      -7.015   1.714  69.115  1.00  0.00     0.000 HD 
HETATM    3  H2  UNL     1      -6.760   1.100  70.749  1.00  0.00     0.000 HD 
HETATM    4  C   UNL     1      -8.075   2.675  70.609  1.00  0.00    -0.045 C  
HETATM    5  O   UNL     1      -8.316   2.726  71.815  1.00  0.00    -0.057 OA 
ENDROOT
BRANCH   4   6
HETATM    6  C   UNL     1      -8.708   3.588  69.630  1.00  0.00    -0.127 C  
HETATM    7  C   UNL     1      -9.759   4.303  70.073  1.00  0.00    -0.217 C  
HETATM    8  N   UNL     1     -10.427   5.251  69.301  1.00  0.00    -0.223 NA 
HETATM    9  C   UNL     1      -8.175   3.777  68.237  1.00  0.00    -0.090 C  
HETATM   10  C   UNL     1     -10.073   5.347  67.950  1.00  0.00    -0.168 C  
HETATM   11  C   UNL     1      -9.041   4.687  67.403  1.00  0.00    -0.135 C  
BRANCH   8  12
HETATM   12  C   UNL     1     -11.362   6.259  69.848  1.00  0.00    -0.434 C  
HETATM   13  O   UNL     1     -10.897   7.575  69.472  1.00  0.00    -0.234 OA 
HETATM   14  C   UNL     1     -10.007   8.038  70.513  1.00  0.00    -0.190 C  
HETATM   15  H   UNL     1     -12.873   7.078  72.668  1.00  0.00     0.000 HD 
HETATM   16  C   UNL     1     -10.372   7.285  71.789  1.00  0.00    -0.196 C  
HETATM   17  H   UNL     1     -11.002   7.731  73.610  1.00  0.00     0.000 HD 
HETATM   18  C   UNL     1     -11.521   6.371  71.373  1.00  0.00    -0.308 C  
HETATM   19  O   UNL     1     -10.774   8.200  72.816  1.00  0.00    -0.345 OA 
HETATM   20  O   UNL     1     -12.774   7.008  71.725  1.00  0.00    -0.349 OA 
BRANCH  14  21
HETATM   21  C   UNL     1      -8.543   7.812  70.104  1.00  0.00    -0.139 C  
BRANCH  21  22
HETATM   22  O   UNL     1      -8.315   8.223  68.762  1.00  0.00    -0.122 OA 
BRANCH  22  23
HETATM   23  P   UNL     1      -8.170   9.785  68.462  1.00  0.00    -0.110 P  
HETATM   24  O   UNL     1      -7.533  10.625  69.517  1.00  0.00    -0.133 OA 
HETATM   25  O   UNL     1      -7.219   9.777  67.164  1.00  0.00    -0.086 OA 
BRANCH  23  26
HETATM   26  O   UNL     1      -9.546  10.286  67.869  1.00  0.00    -0.144 OA 
BRANCH  26  27
HETATM   27  P   UNL     1      -9.742  11.604  67.017  1.00  0.00    -0.191 P  
HETATM   28  O   UNL     1      -9.923  11.038  65.524  1.00  0.00    -0.230 OA 
HETATM   29  O   UNL     1      -8.650  12.619  67.037  1.00  0.00    -0.194 OA 
BRANCH  27  30
HETATM   30  O   UNL     1     -11.199  12.181  67.359  1.00  0.00    -0.264 OA 
BRANCH  30  31
HETATM   31  C   UNL     1     -12.072  12.619  66.324  1.00  0.00    -0.289 C  
BRANCH  31  32
HETATM   32  C   UNL     1     -12.040  14.127  66.098  1.00  0.00    -0.435 C  
HETATM   33  O   UNL     1     -11.180  14.782  67.051  1.00  0.00    -0.328 OA 
HETATM   34  C   UNL     1     -10.962  16.086  66.481  1.00  0.00    -0.080 C  
HETATM   35  H   UNL     1     -12.161  14.811  62.898  1.00  0.00     0.000 HD 
HETATM   36  C   UNL     1     -10.785  15.844  64.973  1.00  0.00    -0.404 C  
HETATM   37  C   UNL     1     -11.480  14.502  64.730  1.00  0.00    -0.408 C  
HETATM   38  H   UNL     1     -11.248  16.719  63.223  1.00  0.00     0.000 HD 
HETATM   39  O   UNL     1     -11.357  16.869  64.155  1.00  0.00    -1.208 OA 
HETATM   40  O   UNL     1     -12.509  14.577  63.750  1.00  0.00    -0.809 OA 
BRANCH  34  41
HETATM   41  N   UNL     1      -9.818  16.728  67.096  1.00  0.00    -0.252 NA 
HETATM   42  C   UNL     1      -8.779  16.141  67.760  1.00  0.00    -0.172 A  
HETATM   43  N   UNL     1      -7.884  17.026  68.153  1.00  0.00    -0.189 NA 
HETATM   44  C   UNL     1      -8.387  18.245  67.746  1.00  0.00    -0.255 A  
HETATM   45  C   UNL     1      -7.905  19.560  67.852  1.00  0.00    -0.295 A  
HETATM   46  N   UNL     1      -6.676  19.876  68.413  1.00  0.00    -0.287 NA 
HETATM   47  N   UNL     1      -8.676  20.570  67.385  1.00  0.00    -0.324 NA 
HETATM   48  H1  UNL     1      -6.326  20.831  68.490  1.00  0.00     0.000 HD 
HETATM   49  C   UNL     1      -9.853  20.262  66.797  1.00  0.00    -0.447 A  
HETATM   50  H2  UNL     1      -5.968  19.332  67.920  1.00  0.00     0.000 HD 
HETATM   51  N   UNL     1     -10.397  19.040  66.590  1.00  0.00    -0.398 NA 
HETATM   52  C   UNL     1      -9.607  18.082  67.109  1.00  0.00    -0.281 A  
ENDBRANCH  34  41
ENDBRANCH  31  32
ENDBRANCH  30  31
ENDBRANCH  27  30
ENDBRANCH  26  27
ENDBRANCH  23  26
ENDBRANCH  22  23
ENDBRANCH  21  22
ENDBRANCH  14  21
ENDBRANCH   8  12
ENDBRANCH   4   6
TORSDOF 11
ENDMDL
MODEL       50
REMARK 921   NORMALIZED FREE ENERGY PREDICTED BY IDOCK:   -6.91 KCAL/MOL
REMARK 922        TOTAL FREE ENERGY PREDICTED BY IDOCK:  -13.55 KCAL/MOL
REMARK 923 INTER-LIGAND FREE ENERGY PREDICTED BY IDOCK:  -11.54 KCAL/MOL
REMARK 924 INTRA-LIGAND FREE ENERGY PREDICTED BY IDOCK:   -2.01 KCAL/MOL
REMARK 927      BINDING AFFINITY PREDICTED BY RF-SCORE:    0.00 PKD
ROOT
HETATM    1  N   UNL     1     -12.489  10.615  71.084  1.00  0.00    -0.383 N  
HETATM    2  H1  UNL     1     -12.195  11.122  70.248  1.00  0.00     0.000 HD 
HETATM    3  H2  UNL     1     -13.215  11.008  71.683  1.00  0.00     0.000 HD 
HETATM    4  C   UNL     1     -11.927   9.429  71.406  1.00  0.00    -0.371 C  
HETATM    5  O   UNL     1     -12.281   8.818  72.414  1.00  0.00    -0.370 OA 
ENDROOT
BRANCH   4   6
HETATM    6  C   UNL     1     -10.871   8.925  70.499  1.00  0.00    -0.276 C  
HETATM    7  C   UNL     1      -9.881   9.786  70.196  1.00  0.00    -0.255 C  
HETATM    8  N   UNL     1      -8.782   9.452  69.410  1.00  0.00    -0.147 NA 
HETATM    9  C   UNL     1     -10.845   7.509  69.994  1.00  0.00    -0.260 C  
HETATM   10  C   UNL     1      -8.793   8.200  68.785  1.00  0.00    -0.138 C  
HETATM   11  C   UNL     1      -9.724   7.262  69.016  1.00  0.00    -0.152 C  
BRANCH   8  12
HETATM   12  C   UNL     1      -7.545  10.261  69.323  1.00  0.00    -0.125 C  
HETATM   13  O   UNL     1      -7.896  11.603  68.917  1.00  0.00    -0.118 OA 
HETATM   14  C   UNL     1      -7.859  11.646  67.473  1.00  0.00    -0.137 C  
HETATM   15  H   UNL     1      -4.507  10.152  68.033  1.00  0.00     0.000 HD 
HETATM   16  C   UNL     1      -6.932  10.525  67.010  1.00  0.00    -0.089 C  
HETATM   17  H   UNL     1      -5.252  10.361  65.979  1.00  0.00     0.000 HD 
HETATM   18  C   UNL     1      -6.469   9.860  68.302  1.00  0.00    -0.055 C  
HETATM   19  O   UNL     1      -5.829  11.059  66.268  1.00  0.00    -0.122 OA 
HETATM   20  O   UNL     1      -5.173  10.400  68.665  1.00  0.00    -0.039 OA 
BRANCH  14  21
HETATM   21  C   UNL     1      -9.277  11.502  66.898  1.00  0.00    -0.176 C  
BRANCH  21  22
HETATM   22  O   UNL     1      -9.416  12.231  65.684  1.00  0.00    -0.186 OA 
BRANCH  22  23
HETATM   23  P   UNL     1      -9.802  11.430  64.358  1.00  0.00    -0.249 P  
HETATM   24  O   UNL     1      -8.706  10.694  63.664  1.00  0.00    -0.176 OA 
HETATM   25  O   UNL     1     -10.864  10.363  64.923  1.00  0.00     0.056 OA 
BRANCH  23  26
HETATM   26  O   UNL     1     -10.710  12.376  63.477  1.00  0.00    -0.442 OA 
BRANCH  26  27
HETATM   27  P   UNL     1     -12.129  12.928  63.904  1.00  0.00    -0.497 P  
HETATM   28  O   UNL     1     -13.114  11.723  63.501  1.00  0.00    -0.617 OA 
HETATM   29  O   UNL     1     -12.607  14.192  63.276  1.00  0.00    -0.766 OA 
BRANCH  27  30
HETATM   30  O   UNL     1     -12.185  12.913  65.507  1.00  0.00    -0.435 OA 
BRANCH  30  31
HETATM   31  C   UNL     1     -12.481  14.099  66.237  1.00  0.00    -0.362 C  
BRANCH  31  32
HETATM   32  C   UNL     1     -11.469  14.404  67.337  1.00  0.00    -0.358 C  
HETATM   33  O   UNL     1     -10.575  15.465  66.949  1.00  0.00    -0.297 OA 
HETATM   34  C   UNL     1      -9.969  15.877  68.189  1.00  0.00    -0.222 C  
HETATM   35  H   UNL     1     -12.856  14.101  70.288  1.00  0.00     0.000 HD 
HETATM   36  C   UNL     1     -11.106  15.852  69.223  1.00  0.00    -0.312 C  
HETATM   37  C   UNL     1     -12.131  14.887  68.623  1.00  0.00    -0.170 C  
HETATM   38  H   UNL     1     -11.395  15.398  71.160  1.00  0.00     0.000 HD 
HETATM   39  O   UNL     1     -10.692  15.414  70.521  1.00  0.00    -0.311 OA 
HETATM   40  O   UNL     1     -12.444  13.800  69.487  1.00  0.00    -0.271 OA 
BRANCH  34  41
HETATM   41  N   UNL     1      -9.351  17.180  68.047  1.00  0.00    -0.248 NA 
HETATM   42  C   UNL     1      -9.864  18.295  67.446  1.00  0.00    -0.316 A  
HETATM   43  N   UNL     1      -9.046  19.324  67.540  1.00  0.00    -0.293 NA 
HETATM   44  C   UNL     1      -7.940  18.839  68.209  1.00  0.00    -0.318 A  
HETATM   45  C   UNL     1      -6.739  19.437  68.625  1.00  0.00    -0.294 A  
HETATM   46  N   UNL     1      -6.458  20.783  68.446  1.00  0.00    -0.278 NA 
HETATM   47  N   UNL     1      -5.809  18.662  69.231  1.00  0.00    -0.223 NA 
HETATM   48  H1  UNL     1      -5.585  21.217  68.749  1.00  0.00     0.000 HD 
HETATM   49  C   UNL     1      -6.098  17.360  69.447  1.00  0.00    -0.244 A  
HETATM   50  H2  UNL     1      -7.222  21.312  68.868  1.00  0.00     0.000 HD 
HETATM   51  N   UNL     1      -7.232  16.687  69.142  1.00  0.00    -0.226 NA 
HETATM   52  C   UNL     1      -8.101  17.496  68.509  1.00  0.00    -0.275 A  
ENDBRANCH  34  41
ENDBRANCH  31  32
ENDBRANCH  30  31
ENDBRANCH  27  30
ENDBRANCH  26  27
ENDBRANCH  23  26
ENDBRANCH  22  23
ENDBRANCH  21  22
ENDBRANCH  14  21
ENDBRANCH   8  12
ENDBRANCH   4   6
TORSDOF 11
ENDMDL
MODEL       51
REMARK 921   NORMALIZED FREE ENERGY PREDICTED BY IDOCK:   -6.90 KCAL/MOL
REMARK 922        TOTAL FREE ENERGY PREDICTED BY IDOCK:  -13.55 KCAL/MOL
REMARK 923 INTER-LIGAND FREE ENERGY PREDICTED BY IDOCK:  -10.21 KCAL/MOL
REMARK 924 INTRA-LIGAND FREE ENERGY PREDICTED BY IDOCK:   -3.34 KCAL/MOL
REMARK 927      BINDING AFFINITY PREDICTED BY RF-SCORE:    0.00 PKD
ROOT
HETATM    1  N   UNL     1     -11.535  14.719  67.306  1.00  0.00    -0.361 N  
HETATM    2  H1  UNL     1     -12.182  13.949  67.480  1.00  0.00     0.000 HD 
HETATM    3  H2  UNL     1     -11.489  15.498  67.963  1.00  0.00     0.000 HD 
HETATM    4  C   UNL     1     -10.739  14.718  66.214  1.00  0.00    -0.313 C  
HETATM    5  O   UNL     1      -9.959  15.647  66.003  1.00  0.00    -0.284 OA 
ENDROOT
BRANCH   4   6
HETATM    6  C   UNL     1     -10.869  13.563  65.297  1.00  0.00    -0.316 C  
HETATM    7  C   UNL     1      -9.806  12.742  65.215  1.00  0.00    -0.101 C  
HETATM    8  N   UNL     1      -9.786  11.579  64.449  1.00  0.00    -0.245 NA 
HETATM    9  C   UNL     1     -12.138  13.263  64.547  1.00  0.00    -0.461 C  
HETATM   10  C   UNL     1     -10.881  11.342  63.609  1.00  0.00    -0.384 C  
HETATM   11  C   UNL     1     -11.995  12.090  63.610  1.00  0.00    -0.612 C  
BRANCH   8  12
HETATM   12  C   UNL     1      -8.771  10.511  64.585  1.00  0.00    -0.183 C  
HETATM   13  O   UNL     1      -9.418   9.316  65.079  1.00  0.00    -0.209 OA 
HETATM   14  C   UNL     1      -9.366   9.356  66.523  1.00  0.00    -0.171 C  
HETATM   15  H   UNL     1      -5.769   9.986  65.857  1.00  0.00     0.000 HD 
HETATM   16  C   UNL     1      -8.196  10.256  66.909  1.00  0.00    -0.123 C  
HETATM   17  H   UNL     1      -6.505  10.087  67.922  1.00  0.00     0.000 HD 
HETATM   18  C   UNL     1      -7.613  10.712  65.575  1.00  0.00    -0.072 C  
HETATM   19  O   UNL     1      -7.234   9.527  67.681  1.00  0.00    -0.081 OA 
HETATM   20  O   UNL     1      -6.486   9.862  65.245  1.00  0.00    -0.087 OA 
BRANCH  14  21
HETATM   21  C   UNL     1     -10.701   9.864  67.091  1.00  0.00    -0.207 C  
BRANCH  21  22
HETATM   22  O   UNL     1     -10.546  10.335  68.424  1.00  0.00    -0.191 OA 
BRANCH  22  23
HETATM   23  P   UNL     1     -11.613  11.381  68.987  1.00  0.00    -0.371 P  
HETATM   24  O   UNL     1     -11.082  12.583  69.693  1.00  0.00    -0.086 OA 
HETATM   25  O   UNL     1     -12.344  11.856  67.636  1.00  0.00    -0.357 OA 
BRANCH  23  26
HETATM   26  O   UNL     1     -12.749  10.557  69.714  1.00  0.00    -0.158 OA 
BRANCH  26  27
HETATM   27  P   UNL     1     -12.899  10.405  71.281  1.00  0.00    -0.474 P  
HETATM   28  O   UNL     1     -13.963   9.209  71.421  1.00  0.00    -0.340 OA 
HETATM   29  O   UNL     1     -13.372  11.586  72.057  1.00  0.00    -0.476 OA 
BRANCH  27  30
HETATM   30  O   UNL     1     -11.544   9.743  71.828  1.00  0.00    -0.349 OA 
BRANCH  30  31
HETATM   31  C   UNL     1     -11.532   8.410  72.325  1.00  0.00    -0.384 C  
BRANCH  31  32
HETATM   32  C   UNL     1     -10.428   7.547  71.722  1.00  0.00    -0.193 C  
HETATM   33  O   UNL     1     -10.918   6.764  70.616  1.00  0.00    -0.240 OA 
HETATM   34  C   UNL     1      -9.721   6.328  69.944  1.00  0.00    -0.166 C  
HETATM   35  H   UNL     1      -7.568   9.143  71.773  1.00  0.00     0.000 HD 
HETATM   36  C   UNL     1      -8.776   7.540  69.973  1.00  0.00    -0.140 C  
HETATM   37  C   UNL     1      -9.283   8.377  71.150  1.00  0.00    -0.174 C  
HETATM   38  H   UNL     1      -6.816   7.941  70.170  1.00  0.00     0.000 HD 
HETATM   39  O   UNL     1      -7.400   7.192  70.152  1.00  0.00    -0.076 OA 
HETATM   40  O   UNL     1      -8.281   8.626  72.129  1.00  0.00    -0.285 OA 
BRANCH  34  41
HETATM   41  N   UNL     1     -10.025   5.870  68.604  1.00  0.00    -0.139 NA 
HETATM   42  C   UNL     1     -11.051   6.264  67.792  1.00  0.00    -0.258 A  
HETATM   43  N   UNL     1     -11.000   5.673  66.614  1.00  0.00    -0.209 NA 
HETATM   44  C   UNL     1      -9.904   4.837  66.683  1.00  0.00    -0.214 A  
HETATM   45  C   UNL     1      -9.316   3.957  65.760  1.00  0.00    -0.162 A  
HETATM   46  N   UNL     1      -9.774   3.801  64.460  1.00  0.00    -0.171 NA 
HETATM   47  N   UNL     1      -8.250   3.223  66.158  1.00  0.00    -0.092 NA 
HETATM   48  H1  UNL     1      -9.346   3.162  63.789  1.00  0.00     0.000 HD 
HETATM   49  C   UNL     1      -7.774   3.404  67.408  1.00  0.00    -0.078 A  
HETATM   50  H2  UNL     1      -9.789   4.726  64.030  1.00  0.00     0.000 HD 
HETATM   51  N   UNL     1      -8.218   4.254  68.363  1.00  0.00    -0.084 NA 
HETATM   52  C   UNL     1      -9.299   4.926  67.926  1.00  0.00    -0.128 A  
ENDBRANCH  34  41
ENDBRANCH  31  32
ENDBRANCH  30  31
ENDBRANCH  27  30
ENDBRANCH  26  27
ENDBRANCH  23  26
ENDBRANCH  22  23
ENDBRANCH  21  22
ENDBRANCH  14  21
ENDBRANCH   8  12
ENDBRANCH   4   6
TORSDOF 11
ENDMDL
MODEL       52
REMARK 921   NORMALIZED FREE ENERGY PREDICTED BY IDOCK:   -6.90 KCAL/MOL
REMARK 922        TOTAL FREE ENERGY PREDICTED BY IDOCK:  -13.54 KCAL/MOL
REMARK 923 INTER-LIGAND FREE ENERGY PREDICTED BY IDOCK:  -11.41 KCAL/MOL
REMARK 924 INTRA-LIGAND FREE ENERGY PREDICTED BY IDOCK:   -2.13 KCAL/MOL
REMARK 927      BINDING AFFINITY PREDICTED BY RF-SCORE:    0.00 PKD
ROOT
HETATM    1  N   UNL     1      -9.567  12.039  63.520  1.00  0.00    -0.582 N  
HETATM    2  H1  UNL     1      -8.796  12.561  63.939  1.00  0.00     0.000 HD 
HETATM    3  H2  UNL     1      -9.377  11.375  62.769  1.00  0.00     0.000 HD 
HETATM    4  C   UNL     1     -10.836  12.217  63.949  1.00  0.00    -0.412 C  
HETATM    5  O   UNL     1     -11.765  11.588  63.443  1.00  0.00    -0.355 OA 
ENDROOT
BRANCH   4   6
HETATM    6  C   UNL     1     -11.039  13.205  65.032  1.00  0.00    -0.322 C  
HETATM    7  C   UNL     1     -10.336  14.349  64.939  1.00  0.00    -0.389 C  
HETATM    8  N   UNL     1     -10.457  15.406  65.838  1.00  0.00    -0.319 NA 
HETATM    9  C   UNL     1     -12.031  12.996  66.144  1.00  0.00    -0.488 C  
HETATM   10  C   UNL     1     -11.244  15.195  66.976  1.00  0.00    -0.308 C  
HETATM   11  C   UNL     1     -11.991  14.098  67.172  1.00  0.00    -0.460 C  
BRANCH   8  12
HETATM   12  C   UNL     1      -9.946  16.772  65.590  1.00  0.00    -0.134 C  
HETATM   13  O   UNL     1      -8.518  16.780  65.814  1.00  0.00    -0.472 OA 
HETATM   14  C   UNL     1      -8.295  17.100  67.205  1.00  0.00    -0.192 C  
HETATM   15  H   UNL     1     -10.569  19.916  66.383  1.00  0.00     0.000 HD 
HETATM   16  C   UNL     1      -9.526  17.855  67.699  1.00  0.00    -0.260 C  
HETATM   17  H   UNL     1      -9.930  19.634  68.464  1.00  0.00     0.000 HD 
HETATM   18  C   UNL     1     -10.442  17.921  66.481  1.00  0.00    -0.313 C  
HETATM   19  O   UNL     1      -9.163  19.164  68.156  1.00  0.00    -0.303 OA 
HETATM   20  O   UNL     1     -10.262  19.205  65.832  1.00  0.00    -0.462 OA 
BRANCH  14  21
HETATM   21  C   UNL     1      -8.038  15.818  68.014  1.00  0.00    -0.140 C  
BRANCH  21  22
HETATM   22  O   UNL     1      -7.391  14.831  67.219  1.00  0.00    -0.195 OA 
BRANCH  22  23
HETATM   23  P   UNL     1      -7.334  13.333  67.770  1.00  0.00    -0.169 P  
HETATM   24  O   UNL     1      -6.062  12.891  68.413  1.00  0.00    -0.065 OA 
HETATM   25  O   UNL     1      -8.495  13.354  68.883  1.00  0.00     0.039 OA 
BRANCH  23  26
HETATM   26  O   UNL     1      -7.949  12.393  66.659  1.00  0.00    -0.019 OA 
BRANCH  26  27
HETATM   27  P   UNL     1      -7.717  10.832  66.559  1.00  0.00    -0.150 P  
HETATM   28  O   UNL     1      -6.114  10.712  66.550  1.00  0.00    -0.070 OA 
HETATM   29  O   UNL     1      -8.278  10.114  65.380  1.00  0.00    -0.139 OA 
BRANCH  27  30
HETATM   30  O   UNL     1      -8.114  10.200  67.979  1.00  0.00    -0.110 OA 
BRANCH  30  31
HETATM   31  C   UNL     1      -7.592   8.940  68.388  1.00  0.00    -0.091 C  
BRANCH  31  32
HETATM   32  C   UNL     1      -8.598   8.085  69.152  1.00  0.00    -0.137 C  
HETATM   33  O   UNL     1      -9.301   8.860  70.143  1.00  0.00    -0.162 OA 
HETATM   34  C   UNL     1     -10.433   8.039  70.485  1.00  0.00    -0.214 C  
HETATM   35  H   UNL     1      -9.983   5.886  67.159  1.00  0.00     0.000 HD 
HETATM   36  C   UNL     1     -10.916   7.440  69.154  1.00  0.00    -0.033 C  
HETATM   37  C   UNL     1      -9.684   7.511  68.249  1.00  0.00    -0.155 C  
HETATM   38  H   UNL     1     -11.686   5.725  68.444  1.00  0.00     0.000 HD 
HETATM   39  O   UNL     1     -11.388   6.095  69.266  1.00  0.00    -0.416 OA 
HETATM   40  O   UNL     1      -9.307   6.244  67.722  1.00  0.00    -0.116 OA 
BRANCH  34  41
HETATM   41  N   UNL     1     -11.447   8.822  71.162  1.00  0.00    -0.273 NA 
HETATM   42  C   UNL     1     -12.284   8.429  72.167  1.00  0.00    -0.374 A  
HETATM   43  N   UNL     1     -13.053   9.417  72.581  1.00  0.00    -0.286 NA 
HETATM   44  C   UNL     1     -12.713  10.490  71.783  1.00  0.00    -0.402 A  
HETATM   45  C   UNL     1     -13.158  11.821  71.733  1.00  0.00    -0.375 A  
HETATM   46  N   UNL     1     -14.095  12.344  72.614  1.00  0.00    -0.365 NA 
HETATM   47  N   UNL     1     -12.651  12.636  70.779  1.00  0.00    -0.270 NA 
HETATM   48  H1  UNL     1     -14.418  13.310  72.578  1.00  0.00     0.000 HD 
HETATM   49  C   UNL     1     -11.706  12.144  69.948  1.00  0.00    -0.287 A  
HETATM   50  H2  UNL     1     -13.750  12.174  73.560  1.00  0.00     0.000 HD 
HETATM   51  N   UNL     1     -11.162  10.906  69.931  1.00  0.00    -0.285 NA 
HETATM   52  C   UNL     1     -11.732  10.131  70.873  1.00  0.00    -0.378 A  
ENDBRANCH  34  41
ENDBRANCH  31  32
ENDBRANCH  30  31
ENDBRANCH  27  30
ENDBRANCH  26  27
ENDBRANCH  23  26
ENDBRANCH  22  23
ENDBRANCH  21  22
ENDBRANCH  14  21
ENDBRANCH   8  12
ENDBRANCH   4   6
TORSDOF 11
ENDMDL
MODEL       53
REMARK 921   NORMALIZED FREE ENERGY PREDICTED BY IDOCK:   -6.84 KCAL/MOL
REMARK 922        TOTAL FREE ENERGY PREDICTED BY IDOCK:  -13.44 KCAL/MOL
REMARK 923 INTER-LIGAND FREE ENERGY PREDICTED BY IDOCK:  -10.86 KCAL/MOL
REMARK 924 INTRA-LIGAND FREE ENERGY PREDICTED BY IDOCK:   -2.58 KCAL/MOL
REMARK 927      BINDING AFFINITY PREDICTED BY RF-SCORE:    0.00 PKD
ROOT
HETATM    1  N   UNL     1     -10.963  20.017  67.370  1.00  0.00    -0.149 N  
HETATM    2  H1  UNL     1     -10.715  20.324  68.311  1.00  0.00     0.000 HD 
HETATM    3  H2  UNL     1     -11.761  20.440  66.895  1.00  0.00     0.000 HD 
HETATM    4  C   UNL     1     -10.245  19.057  66.745  1.00  0.00    -0.396 C  
HETATM    5  O   UNL     1     -10.544  18.687  65.610  1.00  0.00    -0.610 OA 
ENDROOT
BRANCH   4   6
HETATM    6  C   UNL     1      -9.110  18.479  67.498  1.00  0.00    -0.289 C  
HETATM    7  C   UNL     1      -8.766  17.216  67.186  1.00  0.00    -0.212 C  
HETATM    8  N   UNL     1      -7.684  16.547  67.754  1.00  0.00    -0.149 NA 
HETATM    9  C   UNL     1      -8.321  19.269  68.506  1.00  0.00    -0.401 C  
HETATM   10  C   UNL     1      -7.020  17.180  68.812  1.00  0.00    -0.217 C  
HETATM   11  C   UNL     1      -7.274  18.437  69.205  1.00  0.00    -0.193 C  
BRANCH   8  12
HETATM   12  C   UNL     1      -7.100  15.300  67.213  1.00  0.00    -0.152 C  
HETATM   13  O   UNL     1      -8.174  14.415  66.825  1.00  0.00    -0.098 OA 
HETATM   14  C   UNL     1      -8.504  13.599  67.971  1.00  0.00    -0.174 C  
HETATM   15  H   UNL     1      -4.839  13.008  67.951  1.00  0.00     0.000 HD 
HETATM   16  C   UNL     1      -7.272  13.561  68.871  1.00  0.00    -0.070 C  
HETATM   17  H   UNL     1      -6.042  12.193  69.595  1.00  0.00     0.000 HD 
HETATM   18  C   UNL     1      -6.245  14.421  68.140  1.00  0.00    -0.139 C  
HETATM   19  O   UNL     1      -6.809  12.215  69.035  1.00  0.00    -0.097 OA 
HETATM   20  O   UNL     1      -5.368  13.553  67.378  1.00  0.00    -0.343 OA 
BRANCH  14  21
HETATM   21  C   UNL     1      -9.735  14.167  68.696  1.00  0.00    -0.196 C  
BRANCH  21  22
HETATM   22  O   UNL     1     -10.720  14.606  67.768  1.00  0.00    -0.258 OA 
BRANCH  22  23
HETATM   23  P   UNL     1     -11.537  13.503  66.952  1.00  0.00    -0.407 P  
HETATM   24  O   UNL     1     -11.721  12.172  67.601  1.00  0.00    -0.386 OA 
HETATM   25  O   UNL     1     -12.974  14.209  66.805  1.00  0.00     0.197 OA 
BRANCH  23  26
HETATM   26  O   UNL     1     -11.000  13.516  65.466  1.00  0.00    -0.284 OA 
BRANCH  26  27
HETATM   27  P   UNL     1     -11.787  12.959  64.212  1.00  0.00    -0.467 P  
HETATM   28  O   UNL     1     -12.240  14.301  63.453  1.00  0.00    -0.534 OA 
HETATM   29  O   UNL     1     -12.980  12.099  64.459  1.00  0.00    -0.677 OA 
BRANCH  27  30
HETATM   30  O   UNL     1     -10.704  12.330  63.210  1.00  0.00    -0.427 OA 
BRANCH  30  31
HETATM   31  C   UNL     1     -10.368  10.948  63.272  1.00  0.00    -0.179 C  
BRANCH  31  32
HETATM   32  C   UNL     1      -9.475  10.592  64.457  1.00  0.00    -0.276 C  
HETATM   33  O   UNL     1     -10.233   9.992  65.525  1.00  0.00    -0.280 OA 
HETATM   34  C   UNL     1      -9.230   9.386  66.362  1.00  0.00    -0.169 C  
HETATM   35  H   UNL     1      -6.550   9.550  63.414  1.00  0.00     0.000 HD 
HETATM   36  C   UNL     1      -8.210   8.771  65.390  1.00  0.00    -0.136 C  
HETATM   37  C   UNL     1      -8.408   9.564  64.096  1.00  0.00    -0.172 C  
HETATM   38  H   UNL     1      -6.225   8.487  65.242  1.00  0.00     0.000 HD 
HETATM   39  O   UNL     1      -6.856   8.866  65.843  1.00  0.00    -0.071 OA 
HETATM   40  O   UNL     1      -7.215  10.190  63.638  1.00  0.00    -0.133 OA 
BRANCH  34  41
HETATM   41  N   UNL     1      -9.829   8.414  67.254  1.00  0.00    -0.184 NA 
HETATM   42  C   UNL     1     -10.361   7.195  66.938  1.00  0.00    -0.279 A  
HETATM   43  N   UNL     1     -10.780   6.550  68.009  1.00  0.00    -0.253 NA 
HETATM   44  C   UNL     1     -10.531   7.407  69.061  1.00  0.00    -0.210 A  
HETATM   45  C   UNL     1     -10.736   7.302  70.446  1.00  0.00    -0.236 A  
HETATM   46  N   UNL     1     -11.243   6.163  71.056  1.00  0.00    -0.304 NA 
HETATM   47  N   UNL     1     -10.424   8.363  71.227  1.00  0.00    -0.207 NA 
HETATM   48  H1  UNL     1     -11.392   6.087  72.062  1.00  0.00     0.000 HD 
HETATM   49  C   UNL     1      -9.888   9.457  70.643  1.00  0.00    -0.276 A  
HETATM   50  H2  UNL     1     -10.652   5.380  70.776  1.00  0.00     0.000 HD 
HETATM   51  N   UNL     1      -9.596   9.656  69.337  1.00  0.00    -0.179 NA 
HETATM   52  C   UNL     1      -9.963   8.587  68.607  1.00  0.00    -0.184 A  
ENDBRANCH  34  41
ENDBRANCH  31  32
ENDBRANCH  30  31
ENDBRANCH  27  30
ENDBRANCH  26  27
ENDBRANCH  23  26
ENDBRANCH  22  23
ENDBRANCH  21  22
ENDBRANCH  14  21
ENDBRANCH   8  12
ENDBRANCH   4   6
TORSDOF 11
ENDMDL
MODEL       54
REMARK 921   NORMALIZED FREE ENERGY PREDICTED BY IDOCK:   -6.83 KCAL/MOL
REMARK 922        TOTAL FREE ENERGY PREDICTED BY IDOCK:  -13.43 KCAL/MOL
REMARK 923 INTER-LIGAND FREE ENERGY PREDICTED BY IDOCK:  -11.63 KCAL/MOL
REMARK 924 INTRA-LIGAND FREE ENERGY PREDICTED BY IDOCK:   -1.80 KCAL/MOL
REMARK 927      BINDING AFFINITY PREDICTED BY RF-SCORE:    0.00 PKD
ROOT
HETATM    1  N   UNL     1     -13.259  15.289  70.419  1.00  0.00    -0.693 N  
HETATM    2  H1  UNL     1     -13.197  15.249  69.402  1.00  0.00     0.000 HD 
HETATM    3  H2  UNL     1     -13.576  16.146  70.872  1.00  0.00     0.000 HD 
HETATM    4  C   UNL     1     -12.927  14.218  71.174  1.00  0.00    -0.353 C  
HETATM    5  O   UNL     1     -13.001  14.266  72.402  1.00  0.00    -0.360 OA 
ENDROOT
BRANCH   4   6
HETATM    6  C   UNL     1     -12.462  13.013  70.451  1.00  0.00    -0.266 C  
HETATM    7  C   UNL     1     -12.351  11.885  71.177  1.00  0.00    -0.198 C  
HETATM    8  N   UNL     1     -11.989  10.653  70.638  1.00  0.00    -0.337 NA 
HETATM    9  C   UNL     1     -12.198  13.009  68.970  1.00  0.00    -0.086 C  
HETATM   10  C   UNL     1     -11.578  10.631  69.300  1.00  0.00    -0.275 C  
HETATM   11  C   UNL     1     -11.650  11.691  68.482  1.00  0.00    -0.379 C  
BRANCH   8  12
HETATM   12  C   UNL     1     -12.164   9.358  71.333  1.00  0.00    -0.356 C  
HETATM   13  O   UNL     1     -11.004   9.116  72.160  1.00  0.00    -0.300 OA 
HETATM   14  C   UNL     1     -10.038   8.398  71.360  1.00  0.00    -0.215 C  
HETATM   15  H   UNL     1     -12.972   6.216  70.716  1.00  0.00     0.000 HD 
HETATM   16  C   UNL     1     -10.808   7.689  70.249  1.00  0.00    -0.246 C  
HETATM   17  H   UNL     1     -11.098   5.830  69.639  1.00  0.00     0.000 HD 
HETATM   18  C   UNL     1     -12.264   8.075  70.493  1.00  0.00     0.221 C  
HETATM   19  O   UNL     1     -10.619   6.271  70.331  1.00  0.00    -0.221 OA 
HETATM   20  O   UNL     1     -12.910   7.010  71.235  1.00  0.00    -0.377 OA 
BRANCH  14  21
HETATM   21  C   UNL     1      -8.978   9.363  70.807  1.00  0.00    -0.191 C  
BRANCH  21  22
HETATM   22  O   UNL     1      -8.093   8.698  69.914  1.00  0.00    -0.104 OA 
BRANCH  22  23
HETATM   23  P   UNL     1      -7.751   9.401  68.522  1.00  0.00    -0.085 P  
HETATM   24  O   UNL     1      -6.460   9.033  67.872  1.00  0.00    -0.055 OA 
HETATM   25  O   UNL     1      -8.961   8.888  67.595  1.00  0.00    -0.133 OA 
BRANCH  23  26
HETATM   26  O   UNL     1      -8.072  10.941  68.675  1.00  0.00    -0.127 OA 
BRANCH  26  27
HETATM   27  P   UNL     1      -7.000  12.102  68.620  1.00  0.00    -0.101 P  
HETATM   28  O   UNL     1      -6.552  12.100  67.077  1.00  0.00    -0.147 OA 
HETATM   29  O   UNL     1      -5.794  11.983  69.489  1.00  0.00    -0.072 OA 
BRANCH  27  30
HETATM   30  O   UNL     1      -7.791  13.490  68.760  1.00  0.00    -0.118 OA 
BRANCH  30  31
HETATM   31  C   UNL     1      -7.171  14.723  68.409  1.00  0.00    -0.114 C  
BRANCH  31  32
HETATM   32  C   UNL     1      -8.069  15.642  67.588  1.00  0.00    -0.150 C  
HETATM   33  O   UNL     1      -8.679  14.937  66.490  1.00  0.00    -0.254 OA 
HETATM   34  C   UNL     1      -9.749  15.806  66.072  1.00  0.00    -0.345 C  
HETATM   35  H   UNL     1      -9.609  17.779  69.535  1.00  0.00     0.000 HD 
HETATM   36  C   UNL     1     -10.358  16.352  67.374  1.00  0.00    -0.295 C  
HETATM   37  C   UNL     1      -9.233  16.202  68.400  1.00  0.00    -0.203 C  
HETATM   38  H   UNL     1     -11.161  18.052  68.087  1.00  0.00     0.000 HD 
HETATM   39  O   UNL     1     -10.785  17.714  67.282  1.00  0.00    -0.325 OA 
HETATM   40  O   UNL     1      -8.885  17.430  69.029  1.00  0.00    -0.191 OA 
BRANCH  34  41
HETATM   41  N   UNL     1     -10.702  15.086  65.252  1.00  0.00    -0.359 NA 
HETATM   42  C   UNL     1     -11.760  15.590  64.550  1.00  0.00    -0.253 A  
HETATM   43  N   UNL     1     -12.393  14.652  63.873  1.00  0.00    -0.744 NA 
HETATM   44  C   UNL     1     -11.725  13.483  64.179  1.00  0.00    -0.411 A  
HETATM   45  C   UNL     1     -11.901  12.150  63.772  1.00  0.00    -0.500 A  
HETATM   46  N   UNL     1     -12.863  11.755  62.853  1.00  0.00    -0.816 NA 
HETATM   47  N   UNL     1     -11.093  11.202  64.302  1.00  0.00    -0.229 NA 
HETATM   48  H1  UNL     1     -12.990  10.787  62.558  1.00  0.00     0.000 HD 
HETATM   49  C   UNL     1     -10.126  11.588  65.163  1.00  0.00    -0.268 A  
HETATM   50  H2  UNL     1     -12.726  12.315  62.011  1.00  0.00     0.000 HD 
HETATM   51  N   UNL     1      -9.826  12.837  65.587  1.00  0.00    -0.222 NA 
HETATM   52  C   UNL     1     -10.685  13.729  65.060  1.00  0.00    -0.382 A  
ENDBRANCH  34  41
ENDBRANCH  31  32
ENDBRANCH  30  31
ENDBRANCH  27  30
ENDBRANCH  26  27
ENDBRANCH  23  26
ENDBRANCH  22  23
ENDBRANCH  21  22
ENDBRANCH  14  21
ENDBRANCH   8  12
ENDBRANCH   4   6
TORSDOF 11
ENDMDL
MODEL       55
REMARK 921   NORMALIZED FREE ENERGY PREDICTED BY IDOCK:   -6.82 KCAL/MOL
REMARK 922        TOTAL FREE ENERGY PREDICTED BY IDOCK:  -13.40 KCAL/MOL
REMARK 923 INTER-LIGAND FREE ENERGY PREDICTED BY IDOCK:  -11.37 KCAL/MOL
REMARK 924 INTRA-LIGAND FREE ENERGY PREDICTED BY IDOCK:   -2.03 KCAL/MOL
REMARK 927      BINDING AFFINITY PREDICTED BY RF-SCORE:    0.00 PKD
ROOT
HETATM    1  N   UNL     1     -11.502   4.492  65.143  1.00  0.00    -0.851 N  
HETATM    2  H1  UNL     1     -11.810   4.988  65.979  1.00  0.00     0.000 HD 
HETATM    3  H2  UNL     1     -12.195   4.119  64.493  1.00  0.00     0.000 HD 
HETATM    4  C   UNL     1     -10.187   4.323  64.885  1.00  0.00    -0.175 C  
HETATM    5  O   UNL     1      -9.815   3.724  63.875  1.00  0.00    -0.154 OA 
ENDROOT
BRANCH   4   6
HETATM    6  C   UNL     1      -9.238   4.878  65.876  1.00  0.00    -0.155 C  
HETATM    7  C   UNL     1      -9.234   4.297  67.091  1.00  0.00    -0.150 C  
HETATM    8  N   UNL     1      -8.361   4.656  68.115  1.00  0.00    -0.094 NA 
HETATM    9  C   UNL     1      -8.268   5.978  65.542  1.00  0.00    -0.142 C  
HETATM   10  C   UNL     1      -7.553   5.780  67.908  1.00  0.00    -0.085 C  
HETATM   11  C   UNL     1      -7.471   6.433  66.739  1.00  0.00    -0.087 C  
BRANCH   8  12
HETATM   12  C   UNL     1      -8.122   3.842  69.327  1.00  0.00    -0.054 C  
HETATM   13  O   UNL     1      -9.370   3.695  70.041  1.00  0.00    -0.144 OA 
HETATM   14  C   UNL     1      -9.474   4.796  70.971  1.00  0.00    -0.164 C  
HETATM   15  H   UNL     1      -6.072   3.644  71.908  1.00  0.00     0.000 HD 
HETATM   16  C   UNL     1      -8.056   5.287  71.252  1.00  0.00    -0.114 C  
HETATM   17  H   UNL     1      -6.867   5.475  72.821  1.00  0.00     0.000 HD 
HETATM   18  C   UNL     1      -7.168   4.381  70.405  1.00  0.00    -0.048 C  
HETATM   19  O   UNL     1      -7.750   5.169  72.647  1.00  0.00    -0.095 OA 
HETATM   20  O   UNL     1      -6.661   3.311  71.242  1.00  0.00    -0.029 OA 
BRANCH  14  21
HETATM   21  C   UNL     1     -10.367   5.904  70.390  1.00  0.00    -0.231 C  
BRANCH  21  22
HETATM   22  O   UNL     1     -10.303   7.084  71.183  1.00  0.00    -0.206 OA 
BRANCH  22  23
HETATM   23  P   UNL     1     -11.092   7.108  72.571  1.00  0.00    -0.296 P  
HETATM   24  O   UNL     1     -11.737   5.836  73.010  1.00  0.00    -0.165 OA 
HETATM   25  O   UNL     1      -9.916   7.474  73.604  1.00  0.00    -0.312 OA 
BRANCH  23  26
HETATM   26  O   UNL     1     -11.980   8.415  72.592  1.00  0.00    -0.396 OA 
BRANCH  26  27
HETATM   27  P   UNL     1     -13.311   8.622  71.764  1.00  0.00    -0.379 P  
HETATM   28  O   UNL     1     -14.323   9.216  72.862  1.00  0.00    -0.519 OA 
HETATM   29  O   UNL     1     -13.925   7.428  71.115  1.00  0.00    -0.327 OA 
BRANCH  27  30
HETATM   30  O   UNL     1     -13.075   9.869  70.784  1.00  0.00    -0.300 OA 
BRANCH  30  31
HETATM   31  C   UNL     1     -12.988  11.194  71.296  1.00  0.00    -0.357 C  
BRANCH  31  32
HETATM   32  C   UNL     1     -12.015  12.081  70.526  1.00  0.00    -0.246 C  
HETATM   33  O   UNL     1     -11.792  11.581  69.193  1.00  0.00    -0.298 OA 
HETATM   34  C   UNL     1     -11.190  12.694  68.503  1.00  0.00    -0.279 C  
HETATM   35  H   UNL     1     -12.474  15.230  71.299  1.00  0.00     0.000 HD 
HETATM   36  C   UNL     1     -11.954  13.934  68.993  1.00  0.00    -0.364 C  
HETATM   37  C   UNL     1     -12.539  13.501  70.339  1.00  0.00    -0.197 C  
HETATM   38  H   UNL     1     -11.600  15.860  69.450  1.00  0.00     0.000 HD 
HETATM   39  O   UNL     1     -11.129  15.093  69.147  1.00  0.00    -0.232 OA 
HETATM   40  O   UNL     1     -12.148  14.346  71.415  1.00  0.00    -0.344 OA 
BRANCH  34  41
HETATM   41  N   UNL     1     -11.264  12.505  67.068  1.00  0.00    -0.284 NA 
HETATM   42  C   UNL     1     -12.028  13.191  66.167  1.00  0.00    -0.422 A  
HETATM   43  N   UNL     1     -11.812  12.785  64.931  1.00  0.00    -0.357 NA 
HETATM   44  C   UNL     1     -10.884  11.770  65.047  1.00  0.00    -0.295 A  
HETATM   45  C   UNL     1     -10.243  10.951  64.103  1.00  0.00    -0.359 A  
HETATM   46  N   UNL     1     -10.431  11.077  62.734  1.00  0.00    -0.786 NA 
HETATM   47  N   UNL     1      -9.400   9.990  64.549  1.00  0.00    -0.268 NA 
HETATM   48  H1  UNL     1      -9.965  10.482  62.049  1.00  0.00     0.000 HD 
HETATM   49  C   UNL     1      -9.179   9.895  65.878  1.00  0.00    -0.176 A  
HETATM   50  H2  UNL     1     -10.225  12.045  62.487  1.00  0.00     0.000 HD 
HETATM   51  N   UNL     1      -9.692  10.654  66.874  1.00  0.00    -0.175 NA 
HETATM   52  C   UNL     1     -10.551  11.562  66.376  1.00  0.00    -0.259 A  
ENDBRANCH  34  41
ENDBRANCH  31  32
ENDBRANCH  30  31
ENDBRANCH  27  30
ENDBRANCH  26  27
ENDBRANCH  23  26
ENDBRANCH  22  23
ENDBRANCH  21  22
ENDBRANCH  14  21
ENDBRANCH   8  12
ENDBRANCH   4   6
TORSDOF 11
ENDMDL
MODEL       56
REMARK 921   NORMALIZED FREE ENERGY PREDICTED BY IDOCK:   -6.81 KCAL/MOL
REMARK 922        TOTAL FREE ENERGY PREDICTED BY IDOCK:  -13.40 KCAL/MOL
REMARK 923 INTER-LIGAND FREE ENERGY PREDICTED BY IDOCK:  -11.35 KCAL/MOL
REMARK 924 INTRA-LIGAND FREE ENERGY PREDICTED BY IDOCK:   -2.05 KCAL/MOL
REMARK 927      BINDING AFFINITY PREDICTED BY RF-SCORE:    0.00 PKD
ROOT
HETATM    1  N   UNL     1      -6.077   6.767  69.667  1.00  0.00    -0.032 N  
HETATM    2  H1  UNL     1      -6.116   7.779  69.788  1.00  0.00     0.000 HD 
HETATM    3  H2  UNL     1      -5.440   6.366  68.978  1.00  0.00     0.000 HD 
HETATM    4  C   UNL     1      -6.860   5.951  70.407  1.00  0.00    -0.057 C  
HETATM    5  O   UNL     1      -6.813   4.730  70.260  1.00  0.00    -0.035 OA 
ENDROOT
BRANCH   4   6
HETATM    6  C   UNL     1      -7.770   6.602  71.377  1.00  0.00    -0.094 C  
HETATM    7  C   UNL     1      -8.935   7.065  70.886  1.00  0.00    -0.152 C  
HETATM    8  N   UNL     1      -9.927   7.646  71.672  1.00  0.00    -0.175 NA 
HETATM    9  C   UNL     1      -7.462   6.684  72.847  1.00  0.00    -0.088 C  
HETATM   10  C   UNL     1      -9.622   7.890  73.016  1.00  0.00    -0.276 C  
HETATM   11  C   UNL     1      -8.496   7.471  73.613  1.00  0.00    -0.229 C  
BRANCH   8  12
HETATM   12  C   UNL     1     -11.319   7.869  71.223  1.00  0.00    -0.260 C  
HETATM   13  O   UNL     1     -11.297   8.315  69.848  1.00  0.00    -0.105 OA 
HETATM   14  C   UNL     1     -11.215   9.758  69.857  1.00  0.00    -0.229 C  
HETATM   15  H   UNL     1     -14.095   9.386  72.169  1.00  0.00     0.000 HD 
HETATM   16  C   UNL     1     -11.771  10.235  71.196  1.00  0.00    -0.341 C  
HETATM   17  H   UNL     1     -13.251  11.384  71.829  1.00  0.00     0.000 HD 
HETATM   18  C   UNL     1     -12.158   8.950  71.923  1.00  0.00    -0.373 C  
HETATM   19  O   UNL     1     -12.905  11.087  70.995  1.00  0.00    -0.359 OA 
HETATM   20  O   UNL     1     -13.576   8.718  71.736  1.00  0.00    -0.370 OA 
BRANCH  14  21
HETATM   21  C   UNL     1      -9.763  10.212  69.636  1.00  0.00    -0.221 C  
BRANCH  21  22
HETATM   22  O   UNL     1      -9.546  10.598  68.285  1.00  0.00    -0.153 OA 
BRANCH  22  23
HETATM   23  P   UNL     1      -8.952   9.514  67.274  1.00  0.00    -0.130 P  
HETATM   24  O   UNL     1      -8.163   8.393  67.863  1.00  0.00    -0.124 OA 
HETATM   25  O   UNL     1     -10.293   8.915  66.619  1.00  0.00    -0.271 OA 
BRANCH  23  26
HETATM   26  O   UNL     1      -8.305  10.297  66.062  1.00  0.00    -0.132 OA 
BRANCH  26  27
HETATM   27  P   UNL     1      -8.251   9.776  64.570  1.00  0.00    -0.183 P  
HETATM   28  O   UNL     1      -8.262   8.179  64.751  1.00  0.00    -0.149 OA 
HETATM   29  O   UNL     1      -7.086  10.174  63.731  1.00  0.00    -0.129 OA 
BRANCH  27  30
HETATM   30  O   UNL     1      -9.683  10.071  63.910  1.00  0.00    -0.257 OA 
BRANCH  30  31
HETATM   31  C   UNL     1     -10.063  11.395  63.550  1.00  0.00    -0.395 C  
BRANCH  31  32
HETATM   32  C   UNL     1     -10.934  12.083  64.596  1.00  0.00    -0.317 C  
HETATM   33  O   UNL     1     -10.196  13.092  65.313  1.00  0.00    -0.292 OA 
HETATM   34  C   UNL     1     -11.219  13.877  65.955  1.00  0.00    -0.297 C  
HETATM   35  H   UNL     1     -13.998  12.426  63.490  1.00  0.00     0.000 HD 
HETATM   36  C   UNL     1     -12.342  14.007  64.914  1.00  0.00    -0.427 C  
HETATM   37  C   UNL     1     -12.120  12.816  63.978  1.00  0.00    -0.457 C  
HETATM   38  H   UNL     1     -14.351  14.052  64.835  1.00  0.00     0.000 HD 
HETATM   39  O   UNL     1     -13.656  13.972  65.479  1.00  0.00    -0.596 OA 
HETATM   40  O   UNL     1     -13.259  11.969  63.875  1.00  0.00    -0.705 OA 
BRANCH  34  41
HETATM   41  N   UNL     1     -10.687  15.154  66.386  1.00  0.00    -0.312 NA 
HETATM   42  C   UNL     1     -10.054  16.101  65.632  1.00  0.00    -0.337 A  
HETATM   43  N   UNL     1      -9.740  17.166  66.344  1.00  0.00    -0.281 NA 
HETATM   44  C   UNL     1     -10.168  16.877  67.624  1.00  0.00    -0.306 A  
HETATM   45  C   UNL     1     -10.137  17.602  68.826  1.00  0.00    -0.377 A  
HETATM   46  N   UNL     1      -9.650  18.898  68.921  1.00  0.00    -0.364 NA 
HETATM   47  N   UNL     1     -10.602  17.007  69.950  1.00  0.00    -0.072 NA 
HETATM   48  H1  UNL     1      -9.628  19.424  69.795  1.00  0.00     0.000 HD 
HETATM   49  C   UNL     1     -11.118  15.763  69.854  1.00  0.00    -0.331 A  
HETATM   50  H2  UNL     1     -10.157  19.463  68.239  1.00  0.00     0.000 HD 
HETATM   51  N   UNL     1     -11.251  14.989  68.751  1.00  0.00    -0.262 NA 
HETATM   52  C   UNL     1     -10.736  15.615  67.676  1.00  0.00    -0.302 A  
ENDBRANCH  34  41
ENDBRANCH  31  32
ENDBRANCH  30  31
ENDBRANCH  27  30
ENDBRANCH  26  27
ENDBRANCH  23  26
ENDBRANCH  22  23
ENDBRANCH  21  22
ENDBRANCH  14  21
ENDBRANCH   8  12
ENDBRANCH   4   6
TORSDOF 11
ENDMDL
MODEL       57
REMARK 921   NORMALIZED FREE ENERGY PREDICTED BY IDOCK:   -6.81 KCAL/MOL
REMARK 922        TOTAL FREE ENERGY PREDICTED BY IDOCK:  -13.39 KCAL/MOL
REMARK 923 INTER-LIGAND FREE ENERGY PREDICTED BY IDOCK:  -11.03 KCAL/MOL
REMARK 924 INTRA-LIGAND FREE ENERGY PREDICTED BY IDOCK:   -2.36 KCAL/MOL
REMARK 927      BINDING AFFINITY PREDICTED BY RF-SCORE:    0.00 PKD
ROOT
HETATM    1  N   UNL     1     -11.639   6.393  67.046  1.00  0.00    -0.590 N  
HETATM    2  H1  UNL     1     -11.256   6.501  66.107  1.00  0.00     0.000 HD 
HETATM    3  H2  UNL     1     -12.625   6.595  67.215  1.00  0.00     0.000 HD 
HETATM    4  C   UNL     1     -10.857   5.983  68.069  1.00  0.00    -0.287 C  
HETATM    5  O   UNL     1     -11.320   5.852  69.202  1.00  0.00    -0.298 OA 
ENDROOT
BRANCH   4   6
HETATM    6  C   UNL     1      -9.434   5.720  67.754  1.00  0.00    -0.116 C  
HETATM    7  C   UNL     1      -8.994   6.159  66.560  1.00  0.00    -0.139 C  
HETATM    8  N   UNL     1      -7.672   6.048  66.137  1.00  0.00    -0.100 NA 
HETATM    9  C   UNL     1      -8.496   5.069  68.733  1.00  0.00    -0.087 C  
HETATM   10  C   UNL     1      -6.799   5.307  66.941  1.00  0.00    -0.063 C  
HETATM   11  C   UNL     1      -7.126   4.827  68.150  1.00  0.00    -0.061 C  
BRANCH   8  12
HETATM   12  C   UNL     1      -7.102   6.789  64.990  1.00  0.00    -0.064 C  
HETATM   13  O   UNL     1      -5.958   7.544  65.448  1.00  0.00    -0.037 OA 
HETATM   14  C   UNL     1      -6.431   8.842  65.872  1.00  0.00    -0.057 C  
HETATM   15  H   UNL     1      -8.024   8.777  62.519  1.00  0.00     0.000 HD 
HETATM   16  C   UNL     1      -7.746   9.104  65.143  1.00  0.00    -0.104 C  
HETATM   17  H   UNL     1      -8.465  10.444  63.878  1.00  0.00     0.000 HD 
HETATM   18  C   UNL     1      -7.964   7.855  64.294  1.00  0.00    -0.130 C  
HETATM   19  O   UNL     1      -7.646  10.281  64.331  1.00  0.00    -0.148 OA 
HETATM   20  O   UNL     1      -7.492   8.118  62.949  1.00  0.00    -0.103 OA 
BRANCH  14  21
HETATM   21  C   UNL     1      -6.597   8.878  67.399  1.00  0.00    -0.061 C  
BRANCH  21  22
HETATM   22  O   UNL     1      -7.907   9.292  67.764  1.00  0.00    -0.092 OA 
BRANCH  22  23
HETATM   23  P   UNL     1      -8.060  10.468  68.834  1.00  0.00    -0.150 P  
HETATM   24  O   UNL     1      -7.360  10.296  70.140  1.00  0.00    -0.160 OA 
HETATM   25  O   UNL     1      -7.395  11.705  68.051  1.00  0.00    -0.080 OA 
BRANCH  23  26
HETATM   26  O   UNL     1      -9.586  10.877  68.878  1.00  0.00    -0.192 OA 
BRANCH  26  27
HETATM   27  P   UNL     1     -10.659  10.500  67.779  1.00  0.00    -0.285 P  
HETATM   28  O   UNL     1     -12.044  10.920  68.478  1.00  0.00    -0.545 OA 
HETATM   29  O   UNL     1     -10.736   9.080  67.333  1.00  0.00    -0.271 OA 
BRANCH  27  30
HETATM   30  O   UNL     1     -10.520  11.569  66.591  1.00  0.00    -0.221 OA 
BRANCH  30  31
HETATM   31  C   UNL     1     -11.659  11.982  65.844  1.00  0.00    -0.300 C  
BRANCH  31  32
HETATM   32  C   UNL     1     -11.805  13.497  65.745  1.00  0.00    -0.372 C  
HETATM   33  O   UNL     1     -10.894  14.171  66.635  1.00  0.00    -0.294 OA 
HETATM   34  C   UNL     1     -10.883  15.529  66.155  1.00  0.00    -0.295 C  
HETATM   35  H   UNL     1     -12.418  14.391  62.655  1.00  0.00     0.000 HD 
HETATM   36  C   UNL     1     -10.886  15.415  64.622  1.00  0.00    -0.258 C  
HETATM   37  C   UNL     1     -11.472  14.027  64.355  1.00  0.00    -0.344 C  
HETATM   38  H   UNL     1     -11.661  16.358  63.024  1.00  0.00     0.000 HD 
HETATM   39  O   UNL     1     -11.659  16.428  63.971  1.00  0.00    -1.071 OA 
HETATM   40  O   UNL     1     -12.625  14.061  63.521  1.00  0.00    -0.842 OA 
BRANCH  34  41
HETATM   41  N   UNL     1      -9.736  16.245  66.674  1.00  0.00    -0.238 NA 
HETATM   42  C   UNL     1      -8.555  15.729  67.129  1.00  0.00    -0.201 A  
HETATM   43  N   UNL     1      -7.711  16.676  67.488  1.00  0.00    -0.160 NA 
HETATM   44  C   UNL     1      -8.393  17.857  67.280  1.00  0.00    -0.225 A  
HETATM   45  C   UNL     1      -8.041  19.205  67.457  1.00  0.00    -0.273 A  
HETATM   46  N   UNL     1      -6.784  19.615  67.878  1.00  0.00    -0.235 NA 
HETATM   47  N   UNL     1      -8.973  20.154  67.205  1.00  0.00    -0.346 NA 
HETATM   48  H1  UNL     1      -6.528  20.594  68.006  1.00  0.00     0.000 HD 
HETATM   49  C   UNL     1     -10.184  19.762  66.752  1.00  0.00    -0.462 A  
HETATM   50  H2  UNL     1      -6.101  19.203  67.241  1.00  0.00     0.000 HD 
HETATM   51  N   UNL     1     -10.621  18.508  66.493  1.00  0.00    -0.379 NA 
HETATM   52  C   UNL     1      -9.668  17.608  66.799  1.00  0.00    -0.300 A  
ENDBRANCH  34  41
ENDBRANCH  31  32
ENDBRANCH  30  31
ENDBRANCH  27  30
ENDBRANCH  26  27
ENDBRANCH  23  26
ENDBRANCH  22  23
ENDBRANCH  21  22
ENDBRANCH  14  21
ENDBRANCH   8  12
ENDBRANCH   4   6
TORSDOF 11
ENDMDL
MODEL       58
REMARK 921   NORMALIZED FREE ENERGY PREDICTED BY IDOCK:   -6.80 KCAL/MOL
REMARK 922        TOTAL FREE ENERGY PREDICTED BY IDOCK:  -13.38 KCAL/MOL
REMARK 923 INTER-LIGAND FREE ENERGY PREDICTED BY IDOCK:  -11.03 KCAL/MOL
REMARK 924 INTRA-LIGAND FREE ENERGY PREDICTED BY IDOCK:   -2.35 KCAL/MOL
REMARK 927      BINDING AFFINITY PREDICTED BY RF-SCORE:    0.00 PKD
ROOT
HETATM    1  N   UNL     1      -9.867   3.854  64.632  1.00  0.00    -0.183 N  
HETATM    2  H1  UNL     1      -9.768   4.744  64.144  1.00  0.00     0.000 HD 
HETATM    3  H2  UNL     1     -10.480   3.134  64.249  1.00  0.00     0.000 HD 
HETATM    4  C   UNL     1      -9.194   3.616  65.779  1.00  0.00    -0.159 C  
HETATM    5  O   UNL     1      -9.313   2.542  66.368  1.00  0.00    -0.080 OA 
ENDROOT
BRANCH   4   6
HETATM    6  C   UNL     1      -8.332   4.710  66.284  1.00  0.00    -0.110 C  
HETATM    7  C   UNL     1      -8.854   5.484  67.253  1.00  0.00    -0.105 C  
HETATM    8  N   UNL     1      -8.155   6.513  67.879  1.00  0.00    -0.115 NA 
HETATM    9  C   UNL     1      -6.920   4.914  65.807  1.00  0.00    -0.063 C  
HETATM   10  C   UNL     1      -6.899   6.846  67.360  1.00  0.00    -0.076 C  
HETATM   11  C   UNL     1      -6.279   6.144  66.400  1.00  0.00    -0.037 C  
BRANCH   8  12
HETATM   12  C   UNL     1      -8.581   7.160  69.140  1.00  0.00    -0.133 C  
HETATM   13  O   UNL     1      -9.937   7.635  68.984  1.00  0.00    -0.172 OA 
HETATM   14  C   UNL     1      -9.871   8.987  68.475  1.00  0.00    -0.169 C  
HETATM   15  H   UNL     1      -7.546   9.395  71.340  1.00  0.00     0.000 HD 
HETATM   16  C   UNL     1      -8.508   9.551  68.867  1.00  0.00    -0.123 C  
HETATM   17  H   UNL     1      -7.814  11.062  69.938  1.00  0.00     0.000 HD 
HETATM   18  C   UNL     1      -7.829   8.412  69.620  1.00  0.00    -0.100 C  
HETATM   19  O   UNL     1      -8.663  10.711  69.695  1.00  0.00    -0.050 OA 
HETATM   20  O   UNL     1      -8.011   8.621  71.043  1.00  0.00    -0.105 OA 
BRANCH  14  21
HETATM   21  C   UNL     1     -10.088   8.996  66.954  1.00  0.00    -0.267 C  
BRANCH  21  22
HETATM   22  O   UNL     1     -11.098   9.927  66.585  1.00  0.00     0.053 OA 
BRANCH  22  23
HETATM   23  P   UNL     1     -10.658  11.265  65.834  1.00  0.00    -0.191 P  
HETATM   24  O   UNL     1      -9.425  11.948  66.324  1.00  0.00    -0.218 OA 
HETATM   25  O   UNL     1     -10.391  10.726  64.342  1.00  0.00    -0.353 OA 
BRANCH  23  26
HETATM   26  O   UNL     1     -11.952  12.154  65.645  1.00  0.00    -0.503 OA 
BRANCH  26  27
HETATM   27  P   UNL     1     -12.056  13.417  64.699  1.00  0.00    -0.427 P  
HETATM   28  O   UNL     1     -13.246  14.264  65.368  1.00  0.00    -0.688 OA 
HETATM   29  O   UNL     1     -12.355  13.189  63.257  1.00  0.00    -0.712 OA 
BRANCH  27  30
HETATM   30  O   UNL     1     -10.767  14.330  64.979  1.00  0.00    -0.369 OA 
BRANCH  30  31
HETATM   31  C   UNL     1     -10.890  15.740  65.130  1.00  0.00    -0.428 C  
BRANCH  31  32
HETATM   32  C   UNL     1     -10.394  16.251  66.479  1.00  0.00    -0.307 C  
HETATM   33  O   UNL     1     -11.353  15.993  67.524  1.00  0.00    -0.200 OA 
HETATM   34  C   UNL     1     -10.599  16.173  68.737  1.00  0.00    -0.279 C  
HETATM   35  H   UNL     1      -7.159  15.821  66.750  1.00  0.00     0.000 HD 
HETATM   36  C   UNL     1      -9.226  15.539  68.458  1.00  0.00    -0.197 C  
HETATM   37  C   UNL     1      -9.112  15.560  66.932  1.00  0.00    -0.241 C  
HETATM   38  H   UNL     1      -7.287  15.852  68.886  1.00  0.00     0.000 HD 
HETATM   39  O   UNL     1      -8.135  16.243  69.059  1.00  0.00    -0.224 OA 
HETATM   40  O   UNL     1      -7.957  16.251  66.469  1.00  0.00    -0.264 OA 
BRANCH  34  41
HETATM   41  N   UNL     1     -11.288  15.572  69.861  1.00  0.00    -0.285 NA 
HETATM   42  C   UNL     1     -11.727  16.181  71.003  1.00  0.00    -0.367 A  
HETATM   43  N   UNL     1     -12.358  15.338  71.798  1.00  0.00    -0.328 NA 
HETATM   44  C   UNL     1     -12.296  14.123  71.147  1.00  0.00    -0.372 A  
HETATM   45  C   UNL     1     -12.787  12.845  71.463  1.00  0.00    -0.282 A  
HETATM   46  N   UNL     1     -13.540  12.579  72.598  1.00  0.00    -0.617 NA 
HETATM   47  N   UNL     1     -12.511  11.821  70.622  1.00  0.00    -0.307 NA 
HETATM   48  H1  UNL     1     -13.897  11.652  72.827  1.00  0.00     0.000 HD 
HETATM   49  C   UNL     1     -11.816  12.085  69.494  1.00  0.00    -0.326 A  
HETATM   50  H2  UNL     1     -14.337  13.217  72.590  1.00  0.00     0.000 HD 
HETATM   51  N   UNL     1     -11.340  13.273  69.056  1.00  0.00    -0.270 NA 
HETATM   52  C   UNL     1     -11.608  14.243  69.950  1.00  0.00    -0.276 A  
ENDBRANCH  34  41
ENDBRANCH  31  32
ENDBRANCH  30  31
ENDBRANCH  27  30
ENDBRANCH  26  27
ENDBRANCH  23  26
ENDBRANCH  22  23
ENDBRANCH  21  22
ENDBRANCH  14  21
ENDBRANCH   8  12
ENDBRANCH   4   6
TORSDOF 11
ENDMDL
MODEL       59
REMARK 921   NORMALIZED FREE ENERGY PREDICTED BY IDOCK:   -6.78 KCAL/MOL
REMARK 922        TOTAL FREE ENERGY PREDICTED BY IDOCK:  -13.34 KCAL/MOL
REMARK 923 INTER-LIGAND FREE ENERGY PREDICTED BY IDOCK:  -11.57 KCAL/MOL
REMARK 924 INTRA-LIGAND FREE ENERGY PREDICTED BY IDOCK:   -1.76 KCAL/MOL
REMARK 927      BINDING AFFINITY PREDICTED BY RF-SCORE:    0.00 PKD
ROOT
HETATM    1  N   UNL     1      -9.744  18.292  68.776  1.00  0.00    -0.344 N  
HETATM    2  H1  UNL     1     -10.572  18.335  69.370  1.00  0.00     0.000 HD 
HETATM    3  H2  UNL     1      -9.148  19.114  68.681  1.00  0.00     0.000 HD 
HETATM    4  C   UNL     1      -9.426  17.157  68.115  1.00  0.00    -0.269 C  
HETATM    5  O   UNL     1      -8.426  17.104  67.399  1.00  0.00    -0.188 OA 
ENDROOT
BRANCH   4   6
HETATM    6  C   UNL     1     -10.342  16.007  68.289  1.00  0.00    -0.261 C  
HETATM    7  C   UNL     1     -11.035  15.624  67.201  1.00  0.00    -0.270 C  
HETATM    8  N   UNL     1     -11.890  14.525  67.178  1.00  0.00    -0.402 NA 
HETATM    9  C   UNL     1     -10.449  15.245  69.582  1.00  0.00    -0.279 C  
HETATM   10  C   UNL     1     -12.147  13.883  68.395  1.00  0.00    -0.291 C  
HETATM   11  C   UNL     1     -11.512  14.176  69.540  1.00  0.00    -0.334 C  
BRANCH   8  12
HETATM   12  C   UNL     1     -12.409  13.902  65.940  1.00  0.00    -0.483 C  
HETATM   13  O   UNL     1     -12.292  12.466  66.059  1.00  0.00    -0.627 OA 
HETATM   14  C   UNL     1     -10.997  12.089  65.540  1.00  0.00    -0.298 C  
HETATM   15  H   UNL     1     -12.138  14.130  62.657  1.00  0.00     0.000 HD 
HETATM   16  C   UNL     1     -10.558  13.188  64.576  1.00  0.00    -0.406 C  
HETATM   17  H   UNL     1     -10.091  13.339  62.660  1.00  0.00     0.000 HD 
HETATM   18  C   UNL     1     -11.701  14.198  64.609  1.00  0.00    -0.417 C  
HETATM   19  O   UNL     1     -10.364  12.655  63.260  1.00  0.00    -0.308 OA 
HETATM   20  O   UNL     1     -12.576  13.947  63.481  1.00  0.00    -0.842 OA 
BRANCH  14  21
HETATM   21  C   UNL     1      -9.996  11.891  66.690  1.00  0.00    -0.199 C  
BRANCH  21  22
HETATM   22  O   UNL     1      -8.792  11.292  66.226  1.00  0.00    -0.183 OA 
BRANCH  22  23
HETATM   23  P   UNL     1      -8.816   9.742  65.845  1.00  0.00    -0.169 P  
HETATM   24  O   UNL     1      -9.986   8.943  66.311  1.00  0.00    -0.282 OA 
HETATM   25  O   UNL     1      -8.842   9.805  64.238  1.00  0.00    -0.196 OA 
BRANCH  23  26
HETATM   26  O   UNL     1      -7.377   9.157  66.136  1.00  0.00    -0.092 OA 
BRANCH  26  27
HETATM   27  P   UNL     1      -6.589   9.321  67.498  1.00  0.00    -0.064 P  
HETATM   28  O   UNL     1      -7.674  10.025  68.452  1.00  0.00    -0.083 OA 
HETATM   29  O   UNL     1      -5.335  10.127  67.489  1.00  0.00    -0.038 OA 
BRANCH  27  30
HETATM   30  O   UNL     1      -6.441   7.860  68.142  1.00  0.00    -0.051 OA 
BRANCH  30  31
HETATM   31  C   UNL     1      -7.454   6.876  67.961  1.00  0.00    -0.099 C  
BRANCH  31  32
HETATM   32  C   UNL     1      -8.035   6.353  69.271  1.00  0.00    -0.110 C  
HETATM   33  O   UNL     1      -8.692   7.402  70.009  1.00  0.00    -0.139 OA 
HETATM   34  C   UNL     1      -9.488   6.695  70.979  1.00  0.00    -0.164 C  
HETATM   35  H   UNL     1      -9.203   3.319  68.877  1.00  0.00     0.000 HD 
HETATM   36  C   UNL     1     -10.067   5.488  70.225  1.00  0.00    -0.237 C  
HETATM   37  C   UNL     1      -9.104   5.288  69.052  1.00  0.00    -0.115 C  
HETATM   38  H   UNL     1     -10.512   3.555  70.553  1.00  0.00     0.000 HD 
HETATM   39  O   UNL     1     -10.154   4.301  71.019  1.00  0.00    -0.178 OA 
HETATM   40  O   UNL     1      -8.538   3.983  69.013  1.00  0.00    -0.079 OA 
BRANCH  34  41
HETATM   41  N   UNL     1     -10.504   7.564  71.537  1.00  0.00    -0.204 NA 
HETATM   42  C   UNL     1     -11.116   7.473  72.755  1.00  0.00    -0.366 A  
HETATM   43  N   UNL     1     -11.964   8.462  72.954  1.00  0.00    -0.214 NA 
HETATM   44  C   UNL     1     -11.916   9.211  71.796  1.00  0.00    -0.379 A  
HETATM   45  C   UNL     1     -12.568  10.387  71.392  1.00  0.00    -0.434 A  
HETATM   46  N   UNL     1     -13.439  11.093  72.210  1.00  0.00    -0.527 NA 
HETATM   47  N   UNL     1     -12.339  10.856  70.143  1.00  0.00    -0.324 NA 
HETATM   48  H1  UNL     1     -13.913  11.947  71.917  1.00  0.00     0.000 HD 
HETATM   49  C   UNL     1     -11.457  10.197  69.360  1.00  0.00    -0.142 A  
HETATM   50  H2  UNL     1     -12.940  11.304  73.075  1.00  0.00     0.000 HD 
HETATM   51  N   UNL     1     -10.732   9.093  69.653  1.00  0.00    -0.230 NA 
HETATM   52  C   UNL     1     -11.031   8.651  70.888  1.00  0.00    -0.253 A  
ENDBRANCH  34  41
ENDBRANCH  31  32
ENDBRANCH  30  31
ENDBRANCH  27  30
ENDBRANCH  26  27
ENDBRANCH  23  26
ENDBRANCH  22  23
ENDBRANCH  21  22
ENDBRANCH  14  21
ENDBRANCH   8  12
ENDBRANCH   4   6
TORSDOF 11
ENDMDL
MODEL       60
REMARK 921   NORMALIZED FREE ENERGY PREDICTED BY IDOCK:   -6.76 KCAL/MOL
REMARK 922        TOTAL FREE ENERGY PREDICTED BY IDOCK:  -13.30 KCAL/MOL
REMARK 923 INTER-LIGAND FREE ENERGY PREDICTED BY IDOCK:  -10.95 KCAL/MOL
REMARK 924 INTRA-LIGAND FREE ENERGY PREDICTED BY IDOCK:   -2.36 KCAL/MOL
REMARK 927      BINDING AFFINITY PREDICTED BY RF-SCORE:    0.00 PKD
ROOT
HETATM    1  N   UNL     1     -13.665  15.492  70.630  1.00  0.00    -0.846 N  
HETATM    2  H1  UNL     1     -14.290  15.403  69.828  1.00  0.00     0.000 HD 
HETATM    3  H2  UNL     1     -13.929  16.093  71.411  1.00  0.00     0.000 HD 
HETATM    4  C   UNL     1     -12.492  14.822  70.670  1.00  0.00    -0.345 C  
HETATM    5  O   UNL     1     -11.739  14.930  71.638  1.00  0.00    -0.349 OA 
ENDROOT
BRANCH   4   6
HETATM    6  C   UNL     1     -12.167  13.980  69.497  1.00  0.00    -0.355 C  
HETATM    7  C   UNL     1     -11.978  14.624  68.331  1.00  0.00    -0.254 C  
HETATM    8  N   UNL     1     -11.606  13.989  67.149  1.00  0.00    -0.351 NA 
HETATM    9  C   UNL     1     -11.978  12.491  69.597  1.00  0.00    -0.339 C  
HETATM   10  C   UNL     1     -11.576  12.590  67.152  1.00  0.00    -0.368 C  
HETATM   11  C   UNL     1     -11.743  11.844  68.255  1.00  0.00    -0.385 C  
BRANCH   8  12
HETATM   12  C   UNL     1     -11.091  14.692  65.953  1.00  0.00    -0.338 C  
HETATM   13  O   UNL     1      -9.813  14.122  65.594  1.00  0.00    -0.304 OA 
HETATM   14  C   UNL     1      -8.790  14.862  66.298  1.00  0.00    -0.073 C  
HETATM   15  H   UNL     1     -10.587  17.748  64.806  1.00  0.00     0.000 HD 
HETATM   16  C   UNL     1      -9.369  16.236  66.623  1.00  0.00    -0.248 C  
HETATM   17  H   UNL     1      -8.947  18.125  66.215  1.00  0.00     0.000 HD 
HETATM   18  C   UNL     1     -10.784  16.195  66.053  1.00  0.00    -0.241 C  
HETATM   19  O   UNL     1      -8.586  17.270  66.012  1.00  0.00    -0.492 OA 
HETATM   20  O   UNL     1     -10.777  16.819  64.745  1.00  0.00    -0.726 OA 
BRANCH  14  21
HETATM   21  C   UNL     1      -8.354  14.102  67.560  1.00  0.00    -0.185 C  
BRANCH  21  22
HETATM   22  O   UNL     1      -8.039  12.748  67.262  1.00  0.00    -0.178 OA 
BRANCH  22  23
HETATM   23  P   UNL     1      -6.516  12.282  67.376  1.00  0.00    -0.129 P  
HETATM   24  O   UNL     1      -5.503  13.332  67.685  1.00  0.00    -0.218 OA 
HETATM   25  O   UNL     1      -6.585  11.251  68.609  1.00  0.00    -0.058 OA 
BRANCH  23  26
HETATM   26  O   UNL     1      -6.217  11.325  66.153  1.00  0.00    -0.115 OA 
BRANCH  26  27
HETATM   27  P   UNL     1      -7.022  10.007  65.814  1.00  0.00    -0.124 P  
HETATM   28  O   UNL     1      -6.862   9.894  64.219  1.00  0.00    -0.116 OA 
HETATM   29  O   UNL     1      -8.468   9.957  66.175  1.00  0.00    -0.122 OA 
BRANCH  27  30
HETATM   30  O   UNL     1      -6.155   8.768  66.349  1.00  0.00    -0.057 OA 
BRANCH  30  31
HETATM   31  C   UNL     1      -6.321   7.467  65.795  1.00  0.00    -0.042 C  
BRANCH  31  32
HETATM   32  C   UNL     1      -7.355   6.621  66.530  1.00  0.00    -0.074 C  
HETATM   33  O   UNL     1      -7.781   7.255  67.752  1.00  0.00    -0.108 OA 
HETATM   34  C   UNL     1      -8.986   6.550  68.105  1.00  0.00    -0.116 C  
HETATM   35  H   UNL     1      -9.343   5.130  64.396  1.00  0.00     0.000 HD 
HETATM   36  C   UNL     1      -9.731   6.331  66.778  1.00  0.00    -0.156 C  
HETATM   37  C   UNL     1      -8.630   6.419  65.718  1.00  0.00    -0.148 C  
HETATM   38  H   UNL     1     -10.872   4.940  65.881  1.00  0.00     0.000 HD 
HETATM   39  O   UNL     1     -10.412   5.076  66.701  1.00  0.00    -0.264 OA 
HETATM   40  O   UNL     1      -8.549   5.256  64.901  1.00  0.00    -0.147 OA 
BRANCH  34  41
HETATM   41  N   UNL     1      -9.754   7.305  69.074  1.00  0.00    -0.151 NA 
HETATM   42  C   UNL     1     -10.077   8.633  69.044  1.00  0.00    -0.199 A  
HETATM   43  N   UNL     1     -10.828   8.979  70.071  1.00  0.00    -0.232 NA 
HETATM   44  C   UNL     1     -10.971   7.824  70.812  1.00  0.00    -0.252 A  
HETATM   45  C   UNL     1     -11.660   7.532  72.001  1.00  0.00    -0.287 A  
HETATM   46  N   UNL     1     -12.436   8.462  72.678  1.00  0.00    -0.587 NA 
HETATM   47  N   UNL     1     -11.563   6.283  72.513  1.00  0.00    -0.263 NA 
HETATM   48  H1  UNL     1     -12.936   8.250  73.541  1.00  0.00     0.000 HD 
HETATM   49  C   UNL     1     -10.846   5.362  71.833  1.00  0.00    -0.186 A  
HETATM   50  H2  UNL     1     -13.118   8.830  72.014  1.00  0.00     0.000 HD 
HETATM   51  N   UNL     1     -10.186   5.507  70.660  1.00  0.00    -0.224 NA 
HETATM   52  C   UNL     1     -10.285   6.775  70.221  1.00  0.00    -0.195 A  
ENDBRANCH  34  41
ENDBRANCH  31  32
ENDBRANCH  30  31
ENDBRANCH  27  30
ENDBRANCH  26  27
ENDBRANCH  23  26
ENDBRANCH  22  23
ENDBRANCH  21  22
ENDBRANCH  14  21
ENDBRANCH   8  12
ENDBRANCH   4   6
TORSDOF 11
ENDMDL
MODEL       61
REMARK 921   NORMALIZED FREE ENERGY PREDICTED BY IDOCK:   -6.75 KCAL/MOL
REMARK 922        TOTAL FREE ENERGY PREDICTED BY IDOCK:  -13.30 KCAL/MOL
REMARK 923 INTER-LIGAND FREE ENERGY PREDICTED BY IDOCK:  -10.91 KCAL/MOL
REMARK 924 INTRA-LIGAND FREE ENERGY PREDICTED BY IDOCK:   -2.39 KCAL/MOL
REMARK 927      BINDING AFFINITY PREDICTED BY RF-SCORE:    0.00 PKD
ROOT
HETATM    1  N   UNL     1      -9.485  12.064  65.619  1.00  0.00    -0.381 N  
HETATM    2  H1  UNL     1      -8.856  12.292  66.389  1.00  0.00     0.000 HD 
HETATM    3  H2  UNL     1     -10.069  12.794  65.210  1.00  0.00     0.000 HD 
HETATM    4  C   UNL     1      -9.555  10.804  65.135  1.00  0.00    -0.245 C  
HETATM    5  O   UNL     1     -10.315  10.528  64.206  1.00  0.00    -0.332 OA 
ENDROOT
BRANCH   4   6
HETATM    6  C   UNL     1      -8.690   9.793  65.784  1.00  0.00    -0.160 C  
HETATM    7  C   UNL     1      -8.951   8.505  65.491  1.00  0.00    -0.132 C  
HETATM    8  N   UNL     1      -8.195   7.437  65.967  1.00  0.00    -0.123 NA 
HETATM    9  C   UNL     1      -7.530  10.165  66.665  1.00  0.00    -0.106 C  
HETATM   10  C   UNL     1      -7.207   7.720  66.917  1.00  0.00    -0.089 C  
HETATM   11  C   UNL     1      -6.859   8.963  67.281  1.00  0.00    -0.077 C  
BRANCH   8  12
HETATM   12  C   UNL     1      -8.260   6.064  65.420  1.00  0.00    -0.141 C  
HETATM   13  O   UNL     1      -9.647   5.706  65.226  1.00  0.00     0.143 OA 
HETATM   14  C   UNL     1     -10.115   5.092  66.448  1.00  0.00    -0.239 C  
HETATM   15  H   UNL     1      -7.062   3.035  65.969  1.00  0.00     0.000 HD 
HETATM   16  C   UNL     1      -8.892   4.541  67.175  1.00  0.00    -0.109 C  
HETATM   17  H   UNL     1      -8.243   2.780  67.801  1.00  0.00     0.000 HD 
HETATM   18  C   UNL     1      -7.719   4.902  66.268  1.00  0.00    -0.092 C  
HETATM   19  O   UNL     1      -9.005   3.123  67.348  1.00  0.00    -0.129 OA 
HETATM   20  O   UNL     1      -7.397   3.754  65.444  1.00  0.00    -0.070 OA 
BRANCH  14  21
HETATM   21  C   UNL     1     -10.885   6.114  67.300  1.00  0.00    -0.352 C  
BRANCH  21  22
HETATM   22  O   UNL     1     -10.998   5.678  68.649  1.00  0.00    -0.199 OA 
BRANCH  22  23
HETATM   23  P   UNL     1     -10.740   6.740  69.813  1.00  0.00    -0.290 P  
HETATM   24  O   UNL     1     -11.845   6.961  70.790  1.00  0.00    -0.348 OA 
HETATM   25  O   UNL     1      -9.494   6.078  70.584  1.00  0.00    -0.165 OA 
BRANCH  23  26
HETATM   26  O   UNL     1     -10.089   8.020  69.154  1.00  0.00    -0.190 OA 
BRANCH  26  27
HETATM   27  P   UNL     1     -10.316   9.507  69.642  1.00  0.00    -0.253 P  
HETATM   28  O   UNL     1      -8.830   9.986  70.024  1.00  0.00    -0.192 OA 
HETATM   29  O   UNL     1     -11.226   9.733  70.801  1.00  0.00    -0.293 OA 
BRANCH  27  30
HETATM   30  O   UNL     1     -10.652  10.389  68.344  1.00  0.00    -0.183 OA 
BRANCH  30  31
HETATM   31  C   UNL     1     -11.632  11.420  68.397  1.00  0.00    -0.315 C  
BRANCH  31  32
HETATM   32  C   UNL     1     -11.091  12.747  68.920  1.00  0.00    -0.262 C  
HETATM   33  O   UNL     1     -10.609  13.577  67.845  1.00  0.00    -0.240 OA 
HETATM   34  C   UNL     1     -10.503  14.884  68.440  1.00  0.00    -0.243 C  
HETATM   35  H   UNL     1     -12.888  13.801  71.447  1.00  0.00     0.000 HD 
HETATM   36  C   UNL     1     -11.747  15.024  69.333  1.00  0.00    -0.326 C  
HETATM   37  C   UNL     1     -12.161  13.579  69.620  1.00  0.00    -0.306 C  
HETATM   38  H   UNL     1     -12.272  15.821  71.103  1.00  0.00     0.000 HD 
HETATM   39  O   UNL     1     -11.504  15.735  70.550  1.00  0.00    -0.316 OA 
HETATM   40  O   UNL     1     -12.222  13.283  71.011  1.00  0.00    -0.340 OA 
BRANCH  34  41
HETATM   41  N   UNL     1     -10.416  15.906  67.416  1.00  0.00    -0.300 NA 
HETATM   42  C   UNL     1     -10.532  15.754  66.063  1.00  0.00    -0.338 A  
HETATM   43  N   UNL     1     -10.444  16.908  65.430  1.00  0.00    -0.642 NA 
HETATM   44  C   UNL     1     -10.234  17.843  66.423  1.00  0.00    -0.372 A  
HETATM   45  C   UNL     1     -10.072  19.238  66.401  1.00  0.00    -0.429 A  
HETATM   46  N   UNL     1     -10.151  19.994  65.241  1.00  0.00    -0.232 NA 
HETATM   47  N   UNL     1      -9.826  19.877  67.569  1.00  0.00    -0.380 NA 
HETATM   48  H1  UNL     1     -10.034  21.008  65.226  1.00  0.00     0.000 HD 
HETATM   49  C   UNL     1      -9.794  19.150  68.707  1.00  0.00    -0.439 A  
HETATM   50  H2  UNL     1     -11.048  19.786  64.803  1.00  0.00     0.000 HD 
HETATM   51  N   UNL     1      -9.986  17.819  68.862  1.00  0.00    -0.352 NA 
HETATM   52  C   UNL     1     -10.185  17.233  67.666  1.00  0.00    -0.333 A  
ENDBRANCH  34  41
ENDBRANCH  31  32
ENDBRANCH  30  31
ENDBRANCH  27  30
ENDBRANCH  26  27
ENDBRANCH  23  26
ENDBRANCH  22  23
ENDBRANCH  21  22
ENDBRANCH  14  21
ENDBRANCH   8  12
ENDBRANCH   4   6
TORSDOF 11
ENDMDL
MODEL       62
REMARK 921   NORMALIZED FREE ENERGY PREDICTED BY IDOCK:   -6.75 KCAL/MOL
REMARK 922        TOTAL FREE ENERGY PREDICTED BY IDOCK:  -13.29 KCAL/MOL
REMARK 923 INTER-LIGAND FREE ENERGY PREDICTED BY IDOCK:  -11.19 KCAL/MOL
REMARK 924 INTRA-LIGAND FREE ENERGY PREDICTED BY IDOCK:   -2.11 KCAL/MOL
REMARK 927      BINDING AFFINITY PREDICTED BY RF-SCORE:    0.00 PKD
ROOT
HETATM    1  N   UNL     1     -11.936  16.483  72.155  1.00  0.00    -0.636 N  
HETATM    2  H1  UNL     1     -11.099  16.805  71.668  1.00  0.00     0.000 HD 
HETATM    3  H2  UNL     1     -12.182  16.889  73.057  1.00  0.00     0.000 HD 
HETATM    4  C   UNL     1     -12.723  15.525  71.617  1.00  0.00    -0.434 C  
HETATM    5  O   UNL     1     -13.733  15.137  72.204  1.00  0.00    -0.390 OA 
ENDROOT
BRANCH   4   6
HETATM    6  C   UNL     1     -12.298  14.971  70.311  1.00  0.00    -0.392 C  
HETATM    7  C   UNL     1     -11.910  15.862  69.380  1.00  0.00    -0.316 C  
HETATM    8  N   UNL     1     -11.424  15.506  68.125  1.00  0.00    -0.341 NA 
HETATM    9  C   UNL     1     -12.224  13.492  70.045  1.00  0.00    -0.381 C  
HETATM   10  C   UNL     1     -11.487  14.153  67.771  1.00  0.00    -0.325 C  
HETATM   11  C   UNL     1     -11.852  13.178  68.617  1.00  0.00    -0.363 C  
BRANCH   8  12
HETATM   12  C   UNL     1     -10.706  16.429  67.219  1.00  0.00    -0.257 C  
HETATM   13  O   UNL     1      -9.381  15.904  66.976  1.00  0.00    -0.207 OA 
HETATM   14  C   UNL     1      -8.504  16.442  67.991  1.00  0.00    -0.183 C  
HETATM   15  H   UNL     1     -10.016  19.639  66.863  1.00  0.00     0.000 HD 
HETATM   16  C   UNL     1      -9.138  17.735  68.498  1.00  0.00    -0.282 C  
HETATM   17  H   UNL     1      -8.657  19.651  68.586  1.00  0.00     0.000 HD 
HETATM   18  C   UNL     1     -10.427  17.864  67.692  1.00  0.00    -0.397 C  
HETATM   19  O   UNL     1      -8.263  18.846  68.271  1.00  0.00    -0.304 OA 
HETATM   20  O   UNL     1     -10.189  18.751  66.571  1.00  0.00    -0.362 OA 
BRANCH  14  21
HETATM   21  C   UNL     1      -8.299  15.416  69.118  1.00  0.00    -0.242 C  
BRANCH  21  22
HETATM   22  O   UNL     1      -8.326  14.087  68.613  1.00  0.00    -0.153 OA 
BRANCH  22  23
HETATM   23  P   UNL     1      -6.951  13.279  68.533  1.00  0.00    -0.119 P  
HETATM   24  O   UNL     1      -6.128  13.455  67.301  1.00  0.00    -0.330 OA 
HETATM   25  O   UNL     1      -6.144  13.888  69.784  1.00  0.00    -0.115 OA 
BRANCH  23  26
HETATM   26  O   UNL     1      -7.239  11.799  69.006  1.00  0.00    -0.110 OA 
BRANCH  26  27
HETATM   27  P   UNL     1      -8.165  10.767  68.245  1.00  0.00    -0.136 P  
HETATM   28  O   UNL     1      -7.106   9.734  67.619  1.00  0.00    -0.086 OA 
HETATM   29  O   UNL     1      -9.053  11.286  67.166  1.00  0.00    -0.154 OA 
BRANCH  27  30
HETATM   30  O   UNL     1      -8.911   9.884  69.358  1.00  0.00    -0.160 OA 
BRANCH  30  31
HETATM   31  C   UNL     1     -10.145  10.312  69.923  1.00  0.00    -0.171 C  
BRANCH  31  32
HETATM   32  C   UNL     1     -11.163   9.186  70.081  1.00  0.00    -0.187 C  
HETATM   33  O   UNL     1     -10.528   7.956  70.480  1.00  0.00    -0.208 OA 
HETATM   34  C   UNL     1     -11.619   7.139  70.946  1.00  0.00    -0.311 C  
HETATM   35  H   UNL     1     -13.966  10.342  71.320  1.00  0.00     0.000 HD 
HETATM   36  C   UNL     1     -12.534   8.095  71.729  1.00  0.00    -0.330 C  
HETATM   37  C   UNL     1     -12.192   9.477  71.168  1.00  0.00    -0.338 C  
HETATM   38  H   UNL     1     -14.493   8.404  72.058  1.00  0.00     0.000 HD 
HETATM   39  O   UNL     1     -13.928   7.813  71.574  1.00  0.00    -0.380 OA 
HETATM   40  O   UNL     1     -13.325  10.161  70.643  1.00  0.00    -0.310 OA 
BRANCH  34  41
HETATM   41  N   UNL     1     -11.126   6.035  71.744  1.00  0.00    -0.268 NA 
HETATM   42  C   UNL     1     -11.273   5.835  73.087  1.00  0.00    -0.207 A  
HETATM   43  N   UNL     1     -10.734   4.696  73.476  1.00  0.00    -0.235 NA 
HETATM   44  C   UNL     1     -10.189   4.152  72.331  1.00  0.00    -0.170 A  
HETATM   45  C   UNL     1      -9.496   2.956  72.079  1.00  0.00    -0.127 A  
HETATM   46  N   UNL     1      -9.257   1.997  73.052  1.00  0.00    -0.069 NA 
HETATM   47  N   UNL     1      -9.037   2.728  70.826  1.00  0.00    -0.107 NA 
HETATM   48  H1  UNL     1      -8.754   1.128  72.869  1.00  0.00     0.000 HD 
HETATM   49  C   UNL     1      -9.306   3.639  69.866  1.00  0.00    -0.176 A  
HETATM   50  H2  UNL     1     -10.159   1.745  73.459  1.00  0.00     0.000 HD 
HETATM   51  N   UNL     1     -10.004   4.794  69.973  1.00  0.00    -0.233 NA 
HETATM   52  C   UNL     1     -10.400   4.986  71.245  1.00  0.00    -0.185 A  
ENDBRANCH  34  41
ENDBRANCH  31  32
ENDBRANCH  30  31
ENDBRANCH  27  30
ENDBRANCH  26  27
ENDBRANCH  23  26
ENDBRANCH  22  23
ENDBRANCH  21  22
ENDBRANCH  14  21
ENDBRANCH   8  12
ENDBRANCH   4   6
TORSDOF 11
ENDMDL
MODEL       63
REMARK 921   NORMALIZED FREE ENERGY PREDICTED BY IDOCK:   -6.74 KCAL/MOL
REMARK 922        TOTAL FREE ENERGY PREDICTED BY IDOCK:  -13.28 KCAL/MOL
REMARK 923 INTER-LIGAND FREE ENERGY PREDICTED BY IDOCK:  -10.67 KCAL/MOL
REMARK 924 INTRA-LIGAND FREE ENERGY PREDICTED BY IDOCK:   -2.61 KCAL/MOL
REMARK 927      BINDING AFFINITY PREDICTED BY RF-SCORE:    0.00 PKD
ROOT
HETATM    1  N   UNL     1     -13.365  11.757  72.330  1.00  0.00    -0.545 N  
HETATM    2  H1  UNL     1     -13.095  12.712  72.093  1.00  0.00     0.000 HD 
HETATM    3  H2  UNL     1     -14.047  11.595  73.071  1.00  0.00     0.000 HD 
HETATM    4  C   UNL     1     -12.831  10.704  71.672  1.00  0.00    -0.465 C  
HETATM    5  O   UNL     1     -13.157   9.552  71.958  1.00  0.00    -0.381 OA 
ENDROOT
BRANCH   4   6
HETATM    6  C   UNL     1     -11.838  11.013  70.618  1.00  0.00    -0.434 C  
HETATM    7  C   UNL     1     -11.866  12.261  70.116  1.00  0.00    -0.272 C  
HETATM    8  N   UNL     1     -10.963  12.732  69.167  1.00  0.00    -0.182 NA 
HETATM    9  C   UNL     1     -10.795  10.024  70.174  1.00  0.00    -0.365 C  
HETATM   10  C   UNL     1     -10.079  11.804  68.604  1.00  0.00    -0.189 C  
HETATM   11  C   UNL     1      -9.959  10.538  69.028  1.00  0.00    -0.223 C  
BRANCH   8  12
HETATM   12  C   UNL     1     -10.774  14.162  68.837  1.00  0.00    -0.256 C  
HETATM   13  O   UNL     1     -11.948  14.637  68.141  1.00  0.00    -0.313 OA 
HETATM   14  C   UNL     1     -11.734  14.426  66.727  1.00  0.00    -0.397 C  
HETATM   15  H   UNL     1      -8.558  16.198  67.475  1.00  0.00     0.000 HD 
HETATM   16  C   UNL     1     -10.225  14.370  66.501  1.00  0.00    -0.274 C  
HETATM   17  H   UNL     1      -8.872  15.374  65.465  1.00  0.00     0.000 HD 
HETATM   18  C   UNL     1      -9.627  14.558  67.892  1.00  0.00    -0.217 C  
HETATM   19  O   UNL     1      -9.811  15.409  65.606  1.00  0.00    -0.339 OA 
HETATM   20  O   UNL     1      -9.267  15.952  68.059  1.00  0.00    -0.191 OA 
BRANCH  14  21
HETATM   21  C   UNL     1     -12.438  13.141  66.266  1.00  0.00    -0.140 C  
BRANCH  21  22
HETATM   22  O   UNL     1     -12.652  13.149  64.859  1.00  0.00    -0.560 OA 
BRANCH  22  23
HETATM   23  P   UNL     1     -11.831  12.115  63.962  1.00  0.00    -0.448 P  
HETATM   24  O   UNL     1     -12.561  11.455  62.841  1.00  0.00    -0.062 OA 
HETATM   25  O   UNL     1     -10.686  13.062  63.345  1.00  0.00    -0.106 OA 
BRANCH  23  26
HETATM   26  O   UNL     1     -11.009  11.184  64.939  1.00  0.00    -0.234 OA 
BRANCH  26  27
HETATM   27  P   UNL     1      -9.643  10.473  64.581  1.00  0.00    -0.344 P  
HETATM   28  O   UNL     1      -8.560  11.375  65.353  1.00  0.00    -0.022 OA 
HETATM   29  O   UNL     1      -9.266  10.364  63.143  1.00  0.00    -0.235 OA 
BRANCH  27  30
HETATM   30  O   UNL     1      -9.598   9.089  65.391  1.00  0.00    -0.191 OA 
BRANCH  30  31
HETATM   31  C   UNL     1      -8.599   8.113  65.114  1.00  0.00    -0.071 C  
BRANCH  31  32
HETATM   32  C   UNL     1      -8.578   6.964  66.117  1.00  0.00    -0.143 C  
HETATM   33  O   UNL     1      -8.973   7.406  67.430  1.00  0.00    -0.122 OA 
HETATM   34  C   UNL     1      -9.267   6.183  68.132  1.00  0.00    -0.117 C  
HETATM   35  H   UNL     1      -9.563   4.183  64.695  1.00  0.00     0.000 HD 
HETATM   36  C   UNL     1      -9.998   5.296  67.111  1.00  0.00    -0.184 C  
HETATM   37  C   UNL     1      -9.559   5.854  65.755  1.00  0.00     0.129 C  
HETATM   38  H   UNL     1     -10.125   3.359  66.588  1.00  0.00     0.000 HD 
HETATM   39  O   UNL     1      -9.673   3.907  67.219  1.00  0.00    -0.204 OA 
HETATM   40  O   UNL     1      -8.952   4.874  64.920  1.00  0.00    -0.153 OA 
BRANCH  34  41
HETATM   41  N   UNL     1     -10.050   6.452  69.322  1.00  0.00    -0.165 NA 
HETATM   42  C   UNL     1     -11.398   6.308  69.494  1.00  0.00    -0.404 A  
HETATM   43  N   UNL     1     -11.770   6.602  70.724  1.00  0.00    -0.374 NA 
HETATM   44  C   UNL     1     -10.608   6.981  71.366  1.00  0.00    -0.217 A  
HETATM   45  C   UNL     1     -10.336   7.393  72.680  1.00  0.00    -0.244 A  
HETATM   46  N   UNL     1     -11.301   7.451  73.675  1.00  0.00    -0.450 NA 
HETATM   47  N   UNL     1      -9.069   7.753  72.994  1.00  0.00    -0.186 NA 
HETATM   48  H1  UNL     1     -11.103   7.750  74.630  1.00  0.00     0.000 HD 
HETATM   49  C   UNL     1      -8.117   7.655  72.041  1.00  0.00    -0.101 A  
HETATM   50  H2  UNL     1     -11.737   6.529  73.730  1.00  0.00     0.000 HD 
HETATM   51  N   UNL     1      -8.245   7.225  70.764  1.00  0.00    -0.111 NA 
HETATM   52  C   UNL     1      -9.529   6.920  70.499  1.00  0.00    -0.169 A  
ENDBRANCH  34  41
ENDBRANCH  31  32
ENDBRANCH  30  31
ENDBRANCH  27  30
ENDBRANCH  26  27
ENDBRANCH  23  26
ENDBRANCH  22  23
ENDBRANCH  21  22
ENDBRANCH  14  21
ENDBRANCH   8  12
ENDBRANCH   4   6
TORSDOF 11
ENDMDL
MODEL       64
REMARK 921   NORMALIZED FREE ENERGY PREDICTED BY IDOCK:   -6.74 KCAL/MOL
REMARK 922        TOTAL FREE ENERGY PREDICTED BY IDOCK:  -13.28 KCAL/MOL
REMARK 923 INTER-LIGAND FREE ENERGY PREDICTED BY IDOCK:  -11.54 KCAL/MOL
REMARK 924 INTRA-LIGAND FREE ENERGY PREDICTED BY IDOCK:   -1.74 KCAL/MOL
REMARK 927      BINDING AFFINITY PREDICTED BY RF-SCORE:    0.00 PKD
ROOT
HETATM    1  N   UNL     1      -9.276   2.269  69.370  1.00  0.00    -0.119 N  
HETATM    2  H1  UNL     1     -10.097   1.823  69.781  1.00  0.00     0.000 HD 
HETATM    3  H2  UNL     1      -8.735   1.774  68.661  1.00  0.00     0.000 HD 
HETATM    4  C   UNL     1      -8.898   3.508  69.755  1.00  0.00    -0.090 C  
HETATM    5  O   UNL     1      -7.908   4.046  69.260  1.00  0.00    -0.056 OA 
ENDROOT
BRANCH   4   6
HETATM    6  C   UNL     1      -9.721   4.161  70.799  1.00  0.00    -0.266 C  
HETATM    7  C   UNL     1     -10.432   5.236  70.413  1.00  0.00    -0.251 C  
HETATM    8  N   UNL     1     -11.303   5.927  71.253  1.00  0.00    -0.225 NA 
HETATM    9  C   UNL     1      -9.830   3.622  72.199  1.00  0.00    -0.240 C  
HETATM   10  C   UNL     1     -11.316   5.564  72.604  1.00  0.00    -0.291 C  
HETATM   11  C   UNL     1     -10.653   4.509  73.099  1.00  0.00    -0.284 C  
BRANCH   8  12
HETATM   12  C   UNL     1     -12.317   6.896  70.782  1.00  0.00    -0.262 C  
HETATM   13  O   UNL     1     -11.646   7.964  70.077  1.00  0.00    -0.046 OA 
HETATM   14  C   UNL     1     -11.318   8.988  71.043  1.00  0.00    -0.297 C  
HETATM   15  H   UNL     1     -14.914   8.613  71.884  1.00  0.00     0.000 HD 
HETATM   16  C   UNL     1     -12.285   8.833  72.214  1.00  0.00    -0.358 C  
HETATM   17  H   UNL     1     -13.662   9.928  73.117  1.00  0.00     0.000 HD 
HETATM   18  C   UNL     1     -13.163   7.647  71.824  1.00  0.00    -0.318 C  
HETATM   19  O   UNL     1     -13.060  10.025  72.388  1.00  0.00    -0.351 OA 
HETATM   20  O   UNL     1     -14.391   8.149  71.241  1.00  0.00    -0.361 OA 
BRANCH  14  21
HETATM   21  C   UNL     1      -9.851   8.859  71.481  1.00  0.00    -0.314 C  
BRANCH  21  22
HETATM   22  O   UNL     1      -9.123   8.015  70.597  1.00  0.00    -0.149 OA 
BRANCH  22  23
HETATM   23  P   UNL     1      -8.025   8.680  69.647  1.00  0.00    -0.101 P  
HETATM   24  O   UNL     1      -6.865   9.345  70.308  1.00  0.00    -0.058 OA 
HETATM   25  O   UNL     1      -7.492   7.403  68.827  1.00  0.00    -0.096 OA 
BRANCH  23  26
HETATM   26  O   UNL     1      -8.792   9.499  68.534  1.00  0.00    -0.123 OA 
BRANCH  26  27
HETATM   27  P   UNL     1      -8.422   9.509  66.997  1.00  0.00    -0.128 P  
HETATM   28  O   UNL     1      -9.381   8.368  66.395  1.00  0.00    -0.184 OA 
HETATM   29  O   UNL     1      -7.009   9.225  66.615  1.00  0.00    -0.079 OA 
BRANCH  27  30
HETATM   30  O   UNL     1      -9.028  10.854  66.368  1.00  0.00    -0.164 OA 
BRANCH  30  31
HETATM   31  C   UNL     1      -9.971  10.802  65.303  1.00  0.00    -0.282 C  
BRANCH  31  32
HETATM   32  C   UNL     1     -11.141  11.766  65.479  1.00  0.00    -0.280 C  
HETATM   33  O   UNL     1     -11.115  12.392  66.776  1.00  0.00    -0.259 OA 
HETATM   34  C   UNL     1     -12.013  13.510  66.638  1.00  0.00    -0.404 C  
HETATM   35  H   UNL     1     -11.789  13.305  62.661  1.00  0.00     0.000 HD 
HETATM   36  C   UNL     1     -11.729  14.086  65.241  1.00  0.00    -0.346 C  
HETATM   37  C   UNL     1     -11.105  12.915  64.477  1.00  0.00    -0.342 C  
HETATM   38  H   UNL     1     -12.723  14.923  63.706  1.00  0.00     0.000 HD 
HETATM   39  O   UNL     1     -12.898  14.567  64.570  1.00  0.00    -0.613 OA 
HETATM   40  O   UNL     1     -11.811  12.589  63.285  1.00  0.00    -0.482 OA 
BRANCH  34  41
HETATM   41  N   UNL     1     -11.804  14.467  67.705  1.00  0.00    -0.372 NA 
HETATM   42  C   UNL     1     -11.376  15.761  67.605  1.00  0.00    -0.194 A  
HETATM   43  N   UNL     1     -11.343  16.359  68.780  1.00  0.00    -0.318 NA 
HETATM   44  C   UNL     1     -11.743  15.394  69.682  1.00  0.00    -0.338 A  
HETATM   45  C   UNL     1     -11.926  15.407  71.074  1.00  0.00    -0.359 A  
HETATM   46  N   UNL     1     -11.753  16.542  71.854  1.00  0.00    -0.615 NA 
HETATM   47  N   UNL     1     -12.286  14.256  71.689  1.00  0.00    -0.338 NA 
HETATM   48  H1  UNL     1     -11.886  16.551  72.865  1.00  0.00     0.000 HD 
HETATM   49  C   UNL     1     -12.499  13.160  70.928  1.00  0.00    -0.323 A  
HETATM   50  H2  UNL     1     -12.349  17.273  71.463  1.00  0.00     0.000 HD 
HETATM   51  N   UNL     1     -12.408  13.038  69.584  1.00  0.00    -0.127 NA 
HETATM   52  C   UNL     1     -12.008  14.199  69.034  1.00  0.00    -0.340 A  
ENDBRANCH  34  41
ENDBRANCH  31  32
ENDBRANCH  30  31
ENDBRANCH  27  30
ENDBRANCH  26  27
ENDBRANCH  23  26
ENDBRANCH  22  23
ENDBRANCH  21  22
ENDBRANCH  14  21
ENDBRANCH   8  12
ENDBRANCH   4   6
TORSDOF 11
ENDMDL
MODEL       65
REMARK 921   NORMALIZED FREE ENERGY PREDICTED BY IDOCK:   -6.74 KCAL/MOL
REMARK 922        TOTAL FREE ENERGY PREDICTED BY IDOCK:  -13.28 KCAL/MOL
REMARK 923 INTER-LIGAND FREE ENERGY PREDICTED BY IDOCK:  -10.82 KCAL/MOL
REMARK 924 INTRA-LIGAND FREE ENERGY PREDICTED BY IDOCK:   -2.46 KCAL/MOL
REMARK 927      BINDING AFFINITY PREDICTED BY RF-SCORE:    0.00 PKD
ROOT
HETATM    1  N   UNL     1      -6.859  16.496  66.685  1.00  0.00    -0.191 N  
HETATM    2  H1  UNL     1      -7.449  17.322  66.581  1.00  0.00     0.000 HD 
HETATM    3  H2  UNL     1      -5.879  16.538  66.405  1.00  0.00     0.000 HD 
HETATM    4  C   UNL     1      -7.361  15.348  67.191  1.00  0.00    -0.168 C  
HETATM    5  O   UNL     1      -6.649  14.352  67.316  1.00  0.00    -0.283 OA 
ENDROOT
BRANCH   4   6
HETATM    6  C   UNL     1      -8.794  15.356  67.564  1.00  0.00    -0.190 C  
HETATM    7  C   UNL     1      -9.677  15.285  66.551  1.00  0.00    -0.268 C  
HETATM    8  N   UNL     1     -11.056  15.219  66.732  1.00  0.00    -0.309 NA 
HETATM    9  C   UNL     1      -9.257  15.364  68.995  1.00  0.00    -0.235 C  
HETATM   10  C   UNL     1     -11.543  15.386  68.034  1.00  0.00    -0.292 C  
HETATM   11  C   UNL     1     -10.758  15.462  69.118  1.00  0.00    -0.246 C  
BRANCH   8  12
HETATM   12  C   UNL     1     -12.015  14.827  65.676  1.00  0.00    -0.164 C  
HETATM   13  O   UNL     1     -12.816  13.726  66.161  1.00  0.00    -0.349 OA 
HETATM   14  C   UNL     1     -12.137  12.501  65.804  1.00  0.00    -0.378 C  
HETATM   15  H   UNL     1     -12.115  14.103  62.456  1.00  0.00     0.000 HD 
HETATM   16  C   UNL     1     -11.240  12.812  64.609  1.00  0.00    -0.319 C  
HETATM   17  H   UNL     1     -11.051  12.204  62.737  1.00  0.00     0.000 HD 
HETATM   18  C   UNL     1     -11.471  14.297  64.340  1.00  0.00    -0.310 C  
HETATM   19  O   UNL     1     -11.609  12.010  63.481  1.00  0.00    -0.439 OA 
HETATM   20  O   UNL     1     -12.452  14.431  63.282  1.00  0.00    -0.633 OA 
BRANCH  14  21
HETATM   21  C   UNL     1     -11.340  11.962  67.003  1.00  0.00    -0.329 C  
BRANCH  21  22
HETATM   22  O   UNL     1     -12.187  11.272  67.914  1.00  0.00    -0.570 OA 
BRANCH  22  23
HETATM   23  P   UNL     1     -11.673  11.055  69.410  1.00  0.00    -0.355 P  
HETATM   24  O   UNL     1     -10.210  10.833  69.603  1.00  0.00    -0.180 OA 
HETATM   25  O   UNL     1     -12.078  12.452  70.096  1.00  0.00    -0.335 OA 
BRANCH  23  26
HETATM   26  O   UNL     1     -12.658  10.037  70.110  1.00  0.00    -0.083 OA 
BRANCH  26  27
HETATM   27  P   UNL     1     -12.910   9.943  71.668  1.00  0.00    -0.482 P  
HETATM   28  O   UNL     1     -14.070   8.836  71.774  1.00  0.00    -0.405 OA 
HETATM   29  O   UNL     1     -13.335  11.179  72.385  1.00  0.00    -0.262 OA 
BRANCH  27  30
HETATM   30  O   UNL     1     -11.644   9.197  72.312  1.00  0.00    -0.293 OA 
BRANCH  30  31
HETATM   31  C   UNL     1     -11.724   7.830  72.703  1.00  0.00    -0.309 C  
BRANCH  31  32
HETATM   32  C   UNL     1     -10.886   6.900  71.832  1.00  0.00    -0.229 C  
HETATM   33  O   UNL     1     -10.376   7.584  70.671  1.00  0.00    -0.206 OA 
HETATM   34  C   UNL     1      -9.334   6.715  70.187  1.00  0.00    -0.158 C  
HETATM   35  H   UNL     1      -9.168   4.824  73.694  1.00  0.00     0.000 HD 
HETATM   36  C   UNL     1      -8.615   6.206  71.447  1.00  0.00    -0.128 C  
HETATM   37  C   UNL     1      -9.654   6.370  72.558  1.00  0.00    -0.152 C  
HETATM   38  H   UNL     1      -7.738   4.531  72.129  1.00  0.00     0.000 HD 
HETATM   39  O   UNL     1      -8.182   4.846  71.351  1.00  0.00    -0.106 OA 
HETATM   40  O   UNL     1      -9.935   5.154  73.241  1.00  0.00    -0.154 OA 
BRANCH  34  41
HETATM   41  N   UNL     1      -8.460   7.425  69.275  1.00  0.00    -0.135 NA 
HETATM   42  C   UNL     1      -7.117   7.648  69.398  1.00  0.00    -0.075 A  
HETATM   43  N   UNL     1      -6.630   8.293  68.356  1.00  0.00    -0.058 NA 
HETATM   44  C   UNL     1      -7.718   8.519  67.537  1.00  0.00    -0.098 A  
HETATM   45  C   UNL     1      -7.856   9.141  66.285  1.00  0.00    -0.103 A  
HETATM   46  N   UNL     1      -6.785   9.651  65.566  1.00  0.00    -0.080 NA 
HETATM   47  N   UNL     1      -9.097   9.251  65.754  1.00  0.00    -0.193 NA 
HETATM   48  H1  UNL     1      -6.886  10.102  64.657  1.00  0.00     0.000 HD 
HETATM   49  C   UNL     1     -10.137   8.717  66.430  1.00  0.00    -0.243 A  
HETATM   50  H2  UNL     1      -6.107   8.896  65.457  1.00  0.00     0.000 HD 
HETATM   51  N   UNL     1     -10.122   8.053  67.609  1.00  0.00    -0.193 NA 
HETATM   52  C   UNL     1      -8.873   8.010  68.107  1.00  0.00    -0.132 A  
ENDBRANCH  34  41
ENDBRANCH  31  32
ENDBRANCH  30  31
ENDBRANCH  27  30
ENDBRANCH  26  27
ENDBRANCH  23  26
ENDBRANCH  22  23
ENDBRANCH  21  22
ENDBRANCH  14  21
ENDBRANCH   8  12
ENDBRANCH   4   6
TORSDOF 11
ENDMDL
MODEL       66
REMARK 921   NORMALIZED FREE ENERGY PREDICTED BY IDOCK:   -6.69 KCAL/MOL
REMARK 922        TOTAL FREE ENERGY PREDICTED BY IDOCK:  -13.20 KCAL/MOL
REMARK 923 INTER-LIGAND FREE ENERGY PREDICTED BY IDOCK:  -11.40 KCAL/MOL
REMARK 924 INTRA-LIGAND FREE ENERGY PREDICTED BY IDOCK:   -1.80 KCAL/MOL
REMARK 927      BINDING AFFINITY PREDICTED BY RF-SCORE:    0.00 PKD
ROOT
HETATM    1  N   UNL     1     -13.649   8.651  72.783  1.00  0.00    -0.726 N  
HETATM    2  H1  UNL     1     -13.999   7.749  73.106  1.00  0.00     0.000 HD 
HETATM    3  H2  UNL     1     -14.188   9.497  72.971  1.00  0.00     0.000 HD 
HETATM    4  C   UNL     1     -12.481   8.739  72.110  1.00  0.00    -0.393 C  
HETATM    5  O   UNL     1     -12.059   9.828  71.720  1.00  0.00    -0.390 OA 
ENDROOT
BRANCH   4   6
HETATM    6  C   UNL     1     -11.760   7.470  71.861  1.00  0.00    -0.320 C  
HETATM    7  C   UNL     1     -11.713   7.048  70.584  1.00  0.00    -0.338 C  
HETATM    8  N   UNL     1     -11.024   5.911  70.171  1.00  0.00    -0.344 NA 
HETATM    9  C   UNL     1     -11.046   6.717  72.951  1.00  0.00    -0.277 C  
HETATM   10  C   UNL     1     -10.481   5.091  71.167  1.00  0.00    -0.135 C  
HETATM   11  C   UNL     1     -10.465   5.412  72.469  1.00  0.00    -0.262 C  
BRANCH   8  12
HETATM   12  C   UNL     1     -10.694   5.604  68.762  1.00  0.00    -0.197 C  
HETATM   13  O   UNL     1      -9.311   5.192  68.687  1.00  0.00    -0.115 OA 
HETATM   14  C   UNL     1      -8.512   6.376  68.471  1.00  0.00    -0.119 C  
HETATM   15  H   UNL     1     -10.967   6.896  65.735  1.00  0.00     0.000 HD 
HETATM   16  C   UNL     1      -9.420   7.424  67.832  1.00  0.00    -0.140 C  
HETATM   17  H   UNL     1      -9.484   8.460  66.149  1.00  0.00     0.000 HD 
HETATM   18  C   UNL     1     -10.775   6.732  67.720  1.00  0.00    -0.268 C  
HETATM   19  O   UNL     1      -8.918   7.808  66.546  1.00  0.00    -0.145 OA 
HETATM   20  O   UNL     1     -10.917   6.199  66.379  1.00  0.00    -0.149 OA 
BRANCH  14  21
HETATM   21  C   UNL     1      -7.908   6.864  69.797  1.00  0.00    -0.115 C  
BRANCH  21  22
HETATM   22  O   UNL     1      -7.808   8.282  69.825  1.00  0.00    -0.096 OA 
BRANCH  22  23
HETATM   23  P   UNL     1      -7.412   8.986  71.203  1.00  0.00    -0.004 P  
HETATM   24  O   UNL     1      -8.458   9.043  72.264  1.00  0.00    -0.356 OA 
HETATM   25  O   UNL     1      -6.210   8.046  71.712  1.00  0.00    -0.038 OA 
BRANCH  23  26
HETATM   26  O   UNL     1      -6.662  10.332  70.852  1.00  0.00    -0.340 OA 
BRANCH  26  27
HETATM   27  P   UNL     1      -6.739  11.078  69.460  1.00  0.00    -0.119 P  
HETATM   28  O   UNL     1      -6.086  10.013  68.450  1.00  0.00    -0.045 OA 
HETATM   29  O   UNL     1      -6.037  12.387  69.326  1.00  0.00    -0.080 OA 
BRANCH  27  30
HETATM   30  O   UNL     1      -8.280  11.096  69.013  1.00  0.00    -0.137 OA 
BRANCH  30  31
HETATM   31  C   UNL     1      -8.672  11.663  67.768  1.00  0.00    -0.152 C  
BRANCH  31  32
HETATM   32  C   UNL     1      -9.905  12.556  67.868  1.00  0.00    -0.207 C  
HETATM   33  O   UNL     1      -9.574  13.938  67.633  1.00  0.00    -0.206 OA 
HETATM   34  C   UNL     1     -10.848  14.562  67.385  1.00  0.00    -0.291 C  
HETATM   35  H   UNL     1     -12.532  11.021  66.656  1.00  0.00     0.000 HD 
HETATM   36  C   UNL     1     -11.628  13.557  66.521  1.00  0.00    -0.359 C  
HETATM   37  C   UNL     1     -10.961  12.213  66.823  1.00  0.00    -0.280 C  
HETATM   38  H   UNL     1     -13.509  12.889  66.284  1.00  0.00     0.000 HD 
HETATM   39  O   UNL     1     -13.027  13.509  66.817  1.00  0.00     0.189 OA 
HETATM   40  O   UNL     1     -11.874  11.235  67.306  1.00  0.00    -0.562 OA 
BRANCH  34  41
HETATM   41  N   UNL     1     -10.670  15.850  66.746  1.00  0.00    -0.311 NA 
HETATM   42  C   UNL     1     -10.719  16.143  65.412  1.00  0.00    -0.358 A  
HETATM   43  N   UNL     1     -10.557  17.432  65.187  1.00  0.00    -0.589 NA 
HETATM   44  C   UNL     1     -10.368  17.991  66.434  1.00  0.00    -0.379 A  
HETATM   45  C   UNL     1     -10.156  19.310  66.867  1.00  0.00    -0.374 A  
HETATM   46  N   UNL     1     -10.146  20.400  66.009  1.00  0.00    -0.566 NA 
HETATM   47  N   UNL     1      -9.950  19.531  68.187  1.00  0.00    -0.392 NA 
HETATM   48  H1  UNL     1      -9.993  21.358  66.323  1.00  0.00     0.000 HD 
HETATM   49  C   UNL     1     -10.004  18.479  69.032  1.00  0.00    -0.285 A  
HETATM   50  H2  UNL     1     -11.026  20.387  65.491  1.00  0.00     0.000 HD 
HETATM   51  N   UNL     1     -10.251  17.179  68.744  1.00  0.00    -0.314 NA 
HETATM   52  C   UNL     1     -10.407  17.015  67.418  1.00  0.00    -0.319 A  
ENDBRANCH  34  41
ENDBRANCH  31  32
ENDBRANCH  30  31
ENDBRANCH  27  30
ENDBRANCH  26  27
ENDBRANCH  23  26
ENDBRANCH  22  23
ENDBRANCH  21  22
ENDBRANCH  14  21
ENDBRANCH   8  12
ENDBRANCH   4   6
TORSDOF 11
ENDMDL
MODEL       67
REMARK 921   NORMALIZED FREE ENERGY PREDICTED BY IDOCK:   -6.69 KCAL/MOL
REMARK 922        TOTAL FREE ENERGY PREDICTED BY IDOCK:  -13.20 KCAL/MOL
REMARK 923 INTER-LIGAND FREE ENERGY PREDICTED BY IDOCK:  -11.81 KCAL/MOL
REMARK 924 INTRA-LIGAND FREE ENERGY PREDICTED BY IDOCK:   -1.38 KCAL/MOL
REMARK 927      BINDING AFFINITY PREDICTED BY RF-SCORE:    0.00 PKD
ROOT
HETATM    1  N   UNL     1     -11.569   7.446  72.920  1.00  0.00    -0.581 N  
HETATM    2  H1  UNL     1     -11.757   8.312  72.414  1.00  0.00     0.000 HD 
HETATM    3  H2  UNL     1     -11.872   7.351  73.889  1.00  0.00     0.000 HD 
HETATM    4  C   UNL     1     -10.923   6.422  72.319  1.00  0.00    -0.254 C  
HETATM    5  O   UNL     1     -10.696   5.377  72.929  1.00  0.00    -0.217 OA 
ENDROOT
BRANCH   4   6
HETATM    6  C   UNL     1     -10.500   6.633  70.916  1.00  0.00    -0.249 C  
HETATM    7  C   UNL     1      -9.571   7.584  70.708  1.00  0.00    -0.166 C  
HETATM    8  N   UNL     1      -9.020   7.866  69.460  1.00  0.00    -0.142 NA 
HETATM    9  C   UNL     1     -11.012   5.790  69.780  1.00  0.00    -0.397 C  
HETATM   10  C   UNL     1      -9.579   7.222  68.350  1.00  0.00    -0.139 C  
HETATM   11  C   UNL     1     -10.505   6.256  68.438  1.00  0.00    -0.273 C  
BRANCH   8  12
HETATM   12  C   UNL     1      -7.794   8.668  69.254  1.00  0.00    -0.101 C  
HETATM   13  O   UNL     1      -8.027  10.006  69.747  1.00  0.00    -0.155 OA 
HETATM   14  C   UNL     1      -8.555  10.789  68.653  1.00  0.00    -0.151 C  
HETATM   15  H   UNL     1      -5.585   9.402  66.912  1.00  0.00     0.000 HD 
HETATM   16  C   UNL     1      -8.106  10.119  67.358  1.00  0.00    -0.114 C  
HETATM   17  H   UNL     1      -7.028  10.598  65.771  1.00  0.00     0.000 HD 
HETATM   18  C   UNL     1      -7.299   8.908  67.819  1.00  0.00    -0.085 C  
HETATM   19  O   UNL     1      -7.308  11.016  66.577  1.00  0.00    -0.138 OA 
HETATM   20  O   UNL     1      -5.891   9.252  67.799  1.00  0.00    -0.045 OA 
BRANCH  14  21
HETATM   21  C   UNL     1     -10.086  10.887  68.756  1.00  0.00    -0.194 C  
BRANCH  21  22
HETATM   22  O   UNL     1     -10.528  10.646  70.086  1.00  0.00    -0.144 OA 
BRANCH  22  23
HETATM   23  P   UNL     1     -12.045  10.980  70.453  1.00  0.00    -0.402 P  
HETATM   24  O   UNL     1     -13.075  10.701  69.410  1.00  0.00     0.073 OA 
HETATM   25  O   UNL     1     -12.299  10.002  71.704  1.00  0.00    -0.378 OA 
BRANCH  23  26
HETATM   26  O   UNL     1     -12.068  12.408  71.130  1.00  0.00    -0.133 OA 
BRANCH  26  27
HETATM   27  P   UNL     1     -12.395  13.762  70.382  1.00  0.00    -0.291 P  
HETATM   28  O   UNL     1     -11.122  14.678  70.734  1.00  0.00    -0.118 OA 
HETATM   29  O   UNL     1     -13.645  14.484  70.754  1.00  0.00    -0.253 OA 
BRANCH  27  30
HETATM   30  O   UNL     1     -12.219  13.494  68.811  1.00  0.00    -0.317 OA 
BRANCH  30  31
HETATM   31  C   UNL     1     -11.119  14.046  68.095  1.00  0.00    -0.260 C  
BRANCH  31  32
HETATM   32  C   UNL     1     -11.516  15.169  67.142  1.00  0.00    -0.250 C  
HETATM   33  O   UNL     1     -11.010  16.441  67.590  1.00  0.00    -0.308 OA 
HETATM   34  C   UNL     1     -11.130  17.288  66.431  1.00  0.00     0.435 C  
HETATM   35  H   UNL     1     -11.463  14.113  64.042  1.00  0.00     0.000 HD 
HETATM   36  C   UNL     1     -10.713  16.407  65.242  1.00  0.00    -0.295 C  
HETATM   37  C   UNL     1     -10.939  14.979  65.743  1.00  0.00    -0.350 C  
HETATM   38  H   UNL     1     -11.211  16.110  63.317  1.00  0.00     0.000 HD 
HETATM   39  O   UNL     1     -11.468  16.655  64.052  1.00  0.00    -1.192 OA 
HETATM   40  O   UNL     1     -11.822  14.231  64.913  1.00  0.00    -0.369 OA 
BRANCH  34  41
HETATM   41  N   UNL     1     -10.311  18.475  66.579  1.00  0.00    -0.396 NA 
HETATM   42  C   UNL     1     -10.709  19.734  66.931  1.00  0.00    -0.421 A  
HETATM   43  N   UNL     1      -9.689  20.565  67.014  1.00  0.00    -0.438 NA 
HETATM   44  C   UNL     1      -8.586  19.810  66.671  1.00  0.00    -0.335 A  
HETATM   45  C   UNL     1      -7.216  20.109  66.582  1.00  0.00    -0.260 A  
HETATM   46  N   UNL     1      -6.685  21.349  66.905  1.00  0.00    -0.756 NA 
HETATM   47  N   UNL     1      -6.371  19.139  66.158  1.00  0.00    -0.181 NA 
HETATM   48  H1  UNL     1      -5.690  21.565  66.840  1.00  0.00     0.000 HD 
HETATM   49  C   UNL     1      -6.878  17.918  65.885  1.00  0.00    -0.280 A  
HETATM   50  H2  UNL     1      -6.982  21.568  67.857  1.00  0.00     0.000 HD 
HETATM   51  N   UNL     1      -8.161  17.497  65.984  1.00  0.00    -0.528 NA 
HETATM   52  C   UNL     1      -8.958  18.511  66.369  1.00  0.00    -0.266 A  
ENDBRANCH  34  41
ENDBRANCH  31  32
ENDBRANCH  30  31
ENDBRANCH  27  30
ENDBRANCH  26  27
ENDBRANCH  23  26
ENDBRANCH  22  23
ENDBRANCH  21  22
ENDBRANCH  14  21
ENDBRANCH   8  12
ENDBRANCH   4   6
TORSDOF 11
ENDMDL
MODEL       68
REMARK 921   NORMALIZED FREE ENERGY PREDICTED BY IDOCK:   -6.68 KCAL/MOL
REMARK 922        TOTAL FREE ENERGY PREDICTED BY IDOCK:  -13.18 KCAL/MOL
REMARK 923 INTER-LIGAND FREE ENERGY PREDICTED BY IDOCK:  -10.91 KCAL/MOL
REMARK 924 INTRA-LIGAND FREE ENERGY PREDICTED BY IDOCK:   -2.28 KCAL/MOL
REMARK 927      BINDING AFFINITY PREDICTED BY RF-SCORE:    0.00 PKD
ROOT
HETATM    1  N   UNL     1      -7.622  10.294  65.241  1.00  0.00    -0.145 N  
HETATM    2  H1  UNL     1      -6.954  10.456  65.994  1.00  0.00     0.000 HD 
HETATM    3  H2  UNL     1      -7.939  11.077  64.669  1.00  0.00     0.000 HD 
HETATM    4  C   UNL     1      -8.093   9.052  64.991  1.00  0.00    -0.137 C  
HETATM    5  O   UNL     1      -8.900   8.856  64.082  1.00  0.00    -0.115 OA 
ENDROOT
BRANCH   4   6
HETATM    6  C   UNL     1      -7.601   7.965  65.868  1.00  0.00    -0.083 C  
HETATM    7  C   UNL     1      -8.535   7.150  66.391  1.00  0.00    -0.130 C  
HETATM    8  N   UNL     1      -8.238   6.044  67.184  1.00  0.00    -0.106 NA 
HETATM    9  C   UNL     1      -6.137   7.721  66.111  1.00  0.00    -0.038 C  
HETATM   10  C   UNL     1      -6.904   5.869  67.571  1.00  0.00    -0.060 C  
HETATM   11  C   UNL     1      -5.891   6.617  67.108  1.00  0.00    -0.014 C  
BRANCH   8  12
HETATM   12  C   UNL     1      -9.201   4.967  67.504  1.00  0.00    -0.120 C  
HETATM   13  O   UNL     1     -10.411   5.566  68.022  1.00  0.00    -0.185 OA 
HETATM   14  C   UNL     1     -10.267   5.673  69.456  1.00  0.00    -0.250 C  
HETATM   15  H   UNL     1      -9.373   2.087  69.110  1.00  0.00     0.000 HD 
HETATM   16  C   UNL     1      -9.243   4.626  69.888  1.00  0.00    -0.125 C  
HETATM   17  H   UNL     1      -9.194   3.046  71.076  1.00  0.00     0.000 HD 
HETATM   18  C   UNL     1      -8.832   3.942  68.588  1.00  0.00    -0.109 C  
HETATM   19  O   UNL     1      -9.831   3.698  70.808  1.00  0.00    -0.176 OA 
HETATM   20  O   UNL     1      -9.600   2.721  68.440  1.00  0.00    -0.181 OA 
BRANCH  14  21
HETATM   21  C   UNL     1      -9.839   7.097  69.845  1.00  0.00    -0.174 C  
BRANCH  21  22
HETATM   22  O   UNL     1     -10.932   7.833  70.383  1.00  0.00    -0.246 OA 
BRANCH  22  23
HETATM   23  P   UNL     1     -10.707   8.639  71.742  1.00  0.00    -0.362 P  
HETATM   24  O   UNL     1     -11.011   7.924  73.016  1.00  0.00    -0.393 OA 
HETATM   25  O   UNL     1      -9.128   8.938  71.683  1.00  0.00    -0.248 OA 
BRANCH  23  26
HETATM   26  O   UNL     1     -11.331  10.078  71.552  1.00  0.00    -0.301 OA 
BRANCH  26  27
HETATM   27  P   UNL     1     -12.828  10.370  71.135  1.00  0.00    -0.435 P  
HETATM   28  O   UNL     1     -13.177  11.698  71.971  1.00  0.00    -0.501 OA 
HETATM   29  O   UNL     1     -13.851   9.322  71.415  1.00  0.00    -0.350 OA 
BRANCH  27  30
HETATM   30  O   UNL     1     -12.807  10.898  69.620  1.00  0.00    -0.197 OA 
BRANCH  30  31
HETATM   31  C   UNL     1     -12.144  12.110  69.278  1.00  0.00    -0.178 C  
BRANCH  31  32
HETATM   32  C   UNL     1     -11.896  12.266  67.781  1.00  0.00    -0.273 C  
HETATM   33  O   UNL     1     -12.095  13.628  67.355  1.00  0.00    -0.380 OA 
HETATM   34  C   UNL     1     -11.469  13.679  66.059  1.00  0.00    -0.324 C  
HETATM   35  H   UNL     1      -9.430  10.338  66.820  1.00  0.00     0.000 HD 
HETATM   36  C   UNL     1     -10.181  12.851  66.200  1.00  0.00    -0.278 C  
HETATM   37  C   UNL     1     -10.463  11.928  67.387  1.00  0.00    -0.217 C  
HETATM   38  H   UNL     1      -9.060  11.581  65.117  1.00  0.00     0.000 HD 
HETATM   39  O   UNL     1      -9.855  12.093  65.031  1.00  0.00    -0.239 OA 
HETATM   40  O   UNL     1     -10.322  10.548  67.065  1.00  0.00    -0.215 OA 
BRANCH  34  41
HETATM   41  N   UNL     1     -11.227  15.052  65.663  1.00  0.00    -0.341 NA 
HETATM   42  C   UNL     1     -11.622  15.680  64.516  1.00  0.00    -0.262 A  
HETATM   43  N   UNL     1     -11.267  16.950  64.504  1.00  0.00    -1.066 NA 
HETATM   44  C   UNL     1     -10.586  17.140  65.690  1.00  0.00    -0.179 A  
HETATM   45  C   UNL     1      -9.975  18.264  66.269  1.00  0.00    -0.357 A  
HETATM   46  N   UNL     1      -9.998  19.525  65.692  1.00  0.00    -0.384 NA 
HETATM   47  N   UNL     1      -9.329  18.110  67.449  1.00  0.00    -0.253 NA 
HETATM   48  H1  UNL     1      -9.555  20.341  66.113  1.00  0.00     0.000 HD 
HETATM   49  C   UNL     1      -9.341  16.894  68.036  1.00  0.00    -0.238 A  
HETATM   50  H2  UNL     1     -10.976  19.764  65.524  1.00  0.00     0.000 HD 
HETATM   51  N   UNL     1      -9.936  15.757  67.606  1.00  0.00    -0.237 NA 
HETATM   52  C   UNL     1     -10.526  15.960  66.413  1.00  0.00    -0.308 A  
ENDBRANCH  34  41
ENDBRANCH  31  32
ENDBRANCH  30  31
ENDBRANCH  27  30
ENDBRANCH  26  27
ENDBRANCH  23  26
ENDBRANCH  22  23
ENDBRANCH  21  22
ENDBRANCH  14  21
ENDBRANCH   8  12
ENDBRANCH   4   6
TORSDOF 11
ENDMDL
MODEL       69
REMARK 921   NORMALIZED FREE ENERGY PREDICTED BY IDOCK:   -6.67 KCAL/MOL
REMARK 922        TOTAL FREE ENERGY PREDICTED BY IDOCK:  -13.16 KCAL/MOL
REMARK 923 INTER-LIGAND FREE ENERGY PREDICTED BY IDOCK:  -11.35 KCAL/MOL
REMARK 924 INTRA-LIGAND FREE ENERGY PREDICTED BY IDOCK:   -1.81 KCAL/MOL
REMARK 927      BINDING AFFINITY PREDICTED BY RF-SCORE:    0.00 PKD
ROOT
HETATM    1  N   UNL     1     -10.565  11.557  67.208  1.00  0.00    -0.218 N  
HETATM    2  H1  UNL     1     -10.689  10.887  67.968  1.00  0.00     0.000 HD 
HETATM    3  H2  UNL     1     -11.079  12.438  67.223  1.00  0.00     0.000 HD 
HETATM    4  C   UNL     1      -9.728  11.289  66.181  1.00  0.00    -0.220 C  
HETATM    5  O   UNL     1      -9.578  12.097  65.264  1.00  0.00    -0.182 OA 
ENDROOT
BRANCH   4   6
HETATM    6  C   UNL     1      -9.026   9.986  66.218  1.00  0.00    -0.170 C  
HETATM    7  C   UNL     1      -9.724   8.943  66.703  1.00  0.00    -0.237 C  
HETATM    8  N   UNL     1      -9.235   7.641  66.748  1.00  0.00    -0.151 NA 
HETATM    9  C   UNL     1      -7.635   9.801  65.676  1.00  0.00    -0.109 C  
HETATM   10  C   UNL     1      -7.891   7.446  66.407  1.00  0.00    -0.102 C  
HETATM   11  C   UNL     1      -7.103   8.409  65.908  1.00  0.00    -0.072 C  
BRANCH   8  12
HETATM   12  C   UNL     1     -10.075   6.444  66.975  1.00  0.00    -0.174 C  
HETATM   13  O   UNL     1     -10.866   6.652  68.167  1.00  0.00    -0.244 OA 
HETATM   14  C   UNL     1     -10.103   6.158  69.290  1.00  0.00    -0.174 C  
HETATM   15  H   UNL     1      -9.847   3.153  67.126  1.00  0.00     0.000 HD 
HETATM   16  C   UNL     1      -9.116   5.128  68.749  1.00  0.00    -0.114 C  
HETATM   17  H   UNL     1      -8.728   3.206  69.013  1.00  0.00     0.000 HD 
HETATM   18  C   UNL     1      -9.387   5.097  67.248  1.00  0.00    -0.122 C  
HETATM   19  O   UNL     1      -9.343   3.847  69.351  1.00  0.00    -0.145 OA 
HETATM   20  O   UNL     1     -10.272   3.986  66.957  1.00  0.00     0.001 OA 
BRANCH  14  21
HETATM   21  C   UNL     1      -9.396   7.318  70.008  1.00  0.00    -0.154 C  
BRANCH  21  22
HETATM   22  O   UNL     1     -10.331   8.147  70.688  1.00  0.00    -0.196 OA 
BRANCH  22  23
HETATM   23  P   UNL     1     -10.843   7.688  72.129  1.00  0.00    -0.291 P  
HETATM   24  O   UNL     1     -11.188   6.247  72.303  1.00  0.00    -0.254 OA 
HETATM   25  O   UNL     1      -9.567   8.028  73.048  1.00  0.00    -0.248 OA 
BRANCH  23  26
HETATM   26  O   UNL     1     -11.904   8.752  72.619  1.00  0.00    -0.284 OA 
BRANCH  26  27
HETATM   27  P   UNL     1     -13.220   9.148  71.837  1.00  0.00    -0.479 P  
HETATM   28  O   UNL     1     -14.364   8.965  72.951  1.00  0.00    -0.548 OA 
HETATM   29  O   UNL     1     -13.577   8.360  70.623  1.00  0.00     0.408 OA 
BRANCH  27  30
HETATM   30  O   UNL     1     -13.185  10.736  71.618  1.00  0.00    -0.413 OA 
BRANCH  30  31
HETATM   31  C   UNL     1     -12.734  11.294  70.388  1.00  0.00    -0.130 C  
BRANCH  31  32
HETATM   32  C   UNL     1     -12.057  12.652  70.549  1.00  0.00    -0.275 C  
HETATM   33  O   UNL     1     -11.550  13.138  69.291  1.00  0.00    -0.281 OA 
HETATM   34  C   UNL     1     -11.306  14.536  69.534  1.00  0.00    -0.275 C  
HETATM   35  H   UNL     1     -13.645  14.469  72.763  1.00  0.00     0.000 HD 
HETATM   36  C   UNL     1     -12.493  15.012  70.387  1.00  0.00    -0.356 C  
HETATM   37  C   UNL     1     -13.019  13.730  71.037  1.00  0.00    -0.253 C  
HETATM   38  H   UNL     1     -12.870  16.271  71.908  1.00  0.00     0.000 HD 
HETATM   39  O   UNL     1     -12.137  15.977  71.381  1.00  0.00    -0.426 OA 
HETATM   40  O   UNL     1     -13.046  13.797  72.459  1.00  0.00    -0.433 OA 
BRANCH  34  41
HETATM   41  N   UNL     1     -11.174  15.257  68.284  1.00  0.00    -0.299 NA 
HETATM   42  C   UNL     1     -10.590  16.473  68.070  1.00  0.00    -0.328 A  
HETATM   43  N   UNL     1     -10.607  16.809  66.795  1.00  0.00    -0.253 NA 
HETATM   44  C   UNL     1     -11.260  15.770  66.163  1.00  0.00     0.029 A  
HETATM   45  C   UNL     1     -11.584  15.525  64.818  1.00  0.00    -0.256 A  
HETATM   46  N   UNL     1     -11.217  16.370  63.781  1.00  0.00    -1.158 NA 
HETATM   47  N   UNL     1     -12.290  14.409  64.518  1.00  0.00    -0.611 NA 
HETATM   48  H1  UNL     1     -11.452  16.191  62.805  1.00  0.00     0.000 HD 
HETATM   49  C   UNL     1     -12.610  13.562  65.520  1.00  0.00    -0.481 A  
HETATM   50  H2  UNL     1     -10.205  16.492  63.832  1.00  0.00     0.000 HD 
HETATM   51  N   UNL     1     -12.311  13.661  66.836  1.00  0.00    -0.330 NA 
HETATM   52  C   UNL     1     -11.646  14.805  67.079  1.00  0.00    -0.339 A  
ENDBRANCH  34  41
ENDBRANCH  31  32
ENDBRANCH  30  31
ENDBRANCH  27  30
ENDBRANCH  26  27
ENDBRANCH  23  26
ENDBRANCH  22  23
ENDBRANCH  21  22
ENDBRANCH  14  21
ENDBRANCH   8  12
ENDBRANCH   4   6
TORSDOF 11
ENDMDL
MODEL       70
REMARK 921   NORMALIZED FREE ENERGY PREDICTED BY IDOCK:   -6.66 KCAL/MOL
REMARK 922        TOTAL FREE ENERGY PREDICTED BY IDOCK:  -13.15 KCAL/MOL
REMARK 923 INTER-LIGAND FREE ENERGY PREDICTED BY IDOCK:  -11.01 KCAL/MOL
REMARK 924 INTRA-LIGAND FREE ENERGY PREDICTED BY IDOCK:   -2.13 KCAL/MOL
REMARK 927      BINDING AFFINITY PREDICTED BY RF-SCORE:    0.00 PKD
ROOT
HETATM    1  N   UNL     1      -6.738  21.137  63.829  1.00  0.00    -0.398 N  
HETATM    2  H1  UNL     1      -7.436  21.647  64.371  1.00  0.00     0.000 HD 
HETATM    3  H2  UNL     1      -6.511  21.443  62.883  1.00  0.00     0.000 HD 
HETATM    4  C   UNL     1      -6.112  20.059  64.350  1.00  0.00    -0.264 C  
HETATM    5  O   UNL     1      -5.270  19.443  63.696  1.00  0.00    -0.201 OA 
ENDROOT
BRANCH   4   6
HETATM    6  C   UNL     1      -6.501  19.662  65.723  1.00  0.00    -0.248 C  
HETATM    7  C   UNL     1      -6.312  18.370  66.048  1.00  0.00    -0.227 C  
HETATM    8  N   UNL     1      -6.566  17.848  67.314  1.00  0.00    -0.166 NA 
HETATM    9  C   UNL     1      -7.008  20.649  66.738  1.00  0.00    -0.343 C  
HETATM   10  C   UNL     1      -7.191  18.688  68.243  1.00  0.00    -0.260 C  
HETATM   11  C   UNL     1      -7.423  19.991  68.030  1.00  0.00    -0.324 C  
BRANCH   8  12
HETATM   12  C   UNL     1      -6.079  16.532  67.784  1.00  0.00    -0.134 C  
HETATM   13  O   UNL     1      -6.530  15.514  66.862  1.00  0.00    -0.226 OA 
HETATM   14  C   UNL     1      -7.818  15.046  67.321  1.00  0.00    -0.211 C  
HETATM   15  H   UNL     1      -5.960  14.678  70.514  1.00  0.00     0.000 HD 
HETATM   16  C   UNL     1      -7.897  15.338  68.817  1.00  0.00    -0.154 C  
HETATM   17  H   UNL     1      -8.123  14.306  70.490  1.00  0.00     0.000 HD 
HETATM   18  C   UNL     1      -6.565  16.005  69.144  1.00  0.00    -0.164 C  
HETATM   19  O   UNL     1      -8.073  14.124  69.558  1.00  0.00     0.228 OA 
HETATM   20  O   UNL     1      -5.660  15.004  69.673  1.00  0.00    -0.094 OA 
BRANCH  14  21
HETATM   21  C   UNL     1      -8.947  15.730  66.536  1.00  0.00    -0.306 C  
BRANCH  21  22
HETATM   22  O   UNL     1     -10.223  15.266  66.960  1.00  0.00    -0.252 OA 
BRANCH  22  23
HETATM   23  P   UNL     1     -11.179  14.583  65.879  1.00  0.00    -0.338 P  
HETATM   24  O   UNL     1     -12.641  14.569  66.176  1.00  0.00    -0.286 OA 
HETATM   25  O   UNL     1     -10.923  15.509  64.590  1.00  0.00    -0.409 OA 
BRANCH  23  26
HETATM   26  O   UNL     1     -10.513  13.215  65.451  1.00  0.00    -0.284 OA 
BRANCH  26  27
HETATM   27  P   UNL     1     -11.101  12.218  64.373  1.00  0.00    -0.390 P  
HETATM   28  O   UNL     1      -9.923  12.140  63.283  1.00  0.00    -0.396 OA 
HETATM   29  O   UNL     1     -12.379  12.587  63.700  1.00  0.00    -0.525 OA 
BRANCH  27  30
HETATM   30  O   UNL     1     -11.085  10.751  65.022  1.00  0.00     0.012 OA 
BRANCH  30  31
HETATM   31  C   UNL     1      -9.867  10.027  65.159  1.00  0.00    -0.318 C  
BRANCH  31  32
HETATM   32  C   UNL     1      -9.531   9.672  66.604  1.00  0.00    -0.170 C  
HETATM   33  O   UNL     1     -10.305  10.458  67.532  1.00  0.00    -0.197 OA 
HETATM   34  C   UNL     1     -10.162   9.757  68.782  1.00  0.00    -0.194 C  
HETATM   35  H   UNL     1      -8.949   6.462  66.891  1.00  0.00     0.000 HD 
HETATM   36  C   UNL     1     -10.244   8.265  68.420  1.00  0.00    -0.209 C  
HETATM   37  C   UNL     1      -9.855   8.221  66.941  1.00  0.00    -0.247 C  
HETATM   38  H   UNL     1      -9.427   6.514  68.976  1.00  0.00     0.000 HD 
HETATM   39  O   UNL     1      -9.377   7.436  69.200  1.00  0.00    -0.147 OA 
HETATM   40  O   UNL     1      -8.747   7.366  66.682  1.00  0.00    -0.123 OA 
BRANCH  34  41
HETATM   41  N   UNL     1     -11.182  10.176  69.722  1.00  0.00    -0.259 NA 
HETATM   42  C   UNL     1     -11.903   9.399  70.584  1.00  0.00    -0.207 A  
HETATM   43  N   UNL     1     -12.718  10.119  71.330  1.00  0.00    -0.372 NA 
HETATM   44  C   UNL     1     -12.532  11.419  70.905  1.00  0.00    -0.379 A  
HETATM   45  C   UNL     1     -13.090  12.644  71.308  1.00  0.00    -0.145 A  
HETATM   46  N   UNL     1     -13.996  12.759  72.353  1.00  0.00    -0.522 NA 
HETATM   47  N   UNL     1     -12.729  13.767  70.645  1.00  0.00    -0.293 NA 
HETATM   48  H1  UNL     1     -14.401  13.649  72.646  1.00  0.00     0.000 HD 
HETATM   49  C   UNL     1     -11.814  13.665  69.657  1.00  0.00    -0.335 A  
HETATM   50  H2  UNL     1     -13.566  12.336  73.176  1.00  0.00     0.000 HD 
HETATM   51  N   UNL     1     -11.170  12.559  69.216  1.00  0.00    -0.225 NA 
HETATM   52  C   UNL     1     -11.598  11.471  69.883  1.00  0.00    -0.308 A  
ENDBRANCH  34  41
ENDBRANCH  31  32
ENDBRANCH  30  31
ENDBRANCH  27  30
ENDBRANCH  26  27
ENDBRANCH  23  26
ENDBRANCH  22  23
ENDBRANCH  21  22
ENDBRANCH  14  21
ENDBRANCH   8  12
ENDBRANCH   4   6
TORSDOF 11
ENDMDL
MODEL       71
REMARK 921   NORMALIZED FREE ENERGY PREDICTED BY IDOCK:   -6.63 KCAL/MOL
REMARK 922        TOTAL FREE ENERGY PREDICTED BY IDOCK:  -13.09 KCAL/MOL
REMARK 923 INTER-LIGAND FREE ENERGY PREDICTED BY IDOCK:  -11.58 KCAL/MOL
REMARK 924 INTRA-LIGAND FREE ENERGY PREDICTED BY IDOCK:   -1.52 KCAL/MOL
REMARK 927      BINDING AFFINITY PREDICTED BY RF-SCORE:    0.00 PKD
ROOT
HETATM    1  N   UNL     1      -6.490  16.884  66.899  1.00  0.00    -0.197 N  
HETATM    2  H1  UNL     1      -5.914  16.198  67.387  1.00  0.00     0.000 HD 
HETATM    3  H2  UNL     1      -6.092  17.789  66.646  1.00  0.00     0.000 HD 
HETATM    4  C   UNL     1      -7.775  16.609  66.583  1.00  0.00    -0.281 C  
HETATM    5  O   UNL     1      -8.470  17.437  65.995  1.00  0.00    -0.503 OA 
ENDROOT
BRANCH   4   6
HETATM    6  C   UNL     1      -8.291  15.283  66.993  1.00  0.00    -0.267 C  
HETATM    7  C   UNL     1      -9.608  15.071  66.812  1.00  0.00    -0.245 C  
HETATM    8  N   UNL     1     -10.240  13.861  67.085  1.00  0.00    -0.256 NA 
HETATM    9  C   UNL     1      -7.397  14.191  67.512  1.00  0.00    -0.193 C  
HETATM   10  C   UNL     1      -9.484  12.869  67.720  1.00  0.00    -0.202 C  
HETATM   11  C   UNL     1      -8.166  12.968  67.946  1.00  0.00    -0.166 C  
BRANCH   8  12
HETATM   12  C   UNL     1     -11.594  13.504  66.608  1.00  0.00    -0.363 C  
HETATM   13  O   UNL     1     -11.570  12.144  66.118  1.00  0.00    -0.364 OA 
HETATM   14  C   UNL     1     -11.239  12.191  64.712  1.00  0.00    -0.323 C  
HETATM   15  H   UNL     1     -14.010  14.661  64.676  1.00  0.00     0.000 HD 
HETATM   16  C   UNL     1     -11.630  13.575  64.201  1.00  0.00    -0.376 C  
HETATM   17  H   UNL     1     -12.852  14.331  62.841  1.00  0.00     0.000 HD 
HETATM   18  C   UNL     1     -12.194  14.286  65.428  1.00  0.00    -0.405 C  
HETATM   19  O   UNL     1     -12.609  13.469  63.159  1.00  0.00    -0.762 OA 
HETATM   20  O   UNL     1     -13.639  14.178  65.406  1.00  0.00    -0.568 OA 
BRANCH  14  21
HETATM   21  C   UNL     1      -9.745  11.897  64.505  1.00  0.00    -0.107 C  
BRANCH  21  22
HETATM   22  O   UNL     1      -9.554  10.679  63.795  1.00  0.00    -0.253 OA 
BRANCH  22  23
HETATM   23  P   UNL     1      -8.552   9.596  64.405  1.00  0.00    -0.219 P  
HETATM   24  O   UNL     1      -7.633   8.906  63.454  1.00  0.00    -0.103 OA 
HETATM   25  O   UNL     1      -7.676  10.496  65.410  1.00  0.00    -0.149 OA 
BRANCH  23  26
HETATM   26  O   UNL     1      -9.379   8.688  65.400  1.00  0.00    -0.117 OA 
BRANCH  26  27
HETATM   27  P   UNL     1      -8.882   7.313  66.001  1.00  0.00    -0.048 P  
HETATM   28  O   UNL     1      -7.861   7.777  67.151  1.00  0.00    -0.109 OA 
HETATM   29  O   UNL     1      -8.199   6.354  65.086  1.00  0.00    -0.136 OA 
BRANCH  27  30
HETATM   30  O   UNL     1     -10.101   6.689  66.836  1.00  0.00    -0.170 OA 
BRANCH  30  31
HETATM   31  C   UNL     1      -9.906   5.555  67.675  1.00  0.00    -0.144 C  
BRANCH  31  32
HETATM   32  C   UNL     1      -9.692   5.915  69.142  1.00  0.00    -0.140 C  
HETATM   33  O   UNL     1     -10.355   7.148  69.483  1.00  0.00    -0.202 OA 
HETATM   34  C   UNL     1     -10.383   7.140  70.922  1.00  0.00    -0.201 C  
HETATM   35  H   UNL     1      -9.682   3.215  70.995  1.00  0.00     0.000 HD 
HETATM   36  C   UNL     1     -10.707   5.688  71.312  1.00  0.00    -0.244 C  
HETATM   37  C   UNL     1     -10.274   4.873  70.091  1.00  0.00    -0.240 C  
HETATM   38  H   UNL     1     -10.225   4.346  72.729  1.00  0.00     0.000 HD 
HETATM   39  O   UNL     1     -10.025   5.243  72.488  1.00  0.00    -0.163 OA 
HETATM   40  O   UNL     1      -9.320   3.864  70.405  1.00  0.00    -0.128 OA 
BRANCH  34  41
HETATM   41  N   UNL     1     -11.352   8.095  71.420  1.00  0.00    -0.252 NA 
HETATM   42  C   UNL     1     -12.239   7.939  72.448  1.00  0.00    -0.247 A  
HETATM   43  N   UNL     1     -12.943   9.034  72.660  1.00  0.00    -0.360 NA 
HETATM   44  C   UNL     1     -12.507   9.927  71.703  1.00  0.00    -0.415 A  
HETATM   45  C   UNL     1     -12.853  11.257  71.412  1.00  0.00    -0.410 A  
HETATM   46  N   UNL     1     -13.768  11.986  72.157  1.00  0.00    -0.343 NA 
HETATM   47  N   UNL     1     -12.266  11.859  70.351  1.00  0.00    -0.338 NA 
HETATM   48  H1  UNL     1     -14.020  12.952  71.946  1.00  0.00     0.000 HD 
HETATM   49  C   UNL     1     -11.341  11.168  69.649  1.00  0.00    -0.294 A  
HETATM   50  H2  UNL     1     -13.459  11.958  73.130  1.00  0.00     0.000 HD 
HETATM   51  N   UNL     1     -10.888   9.911  69.863  1.00  0.00    -0.258 NA 
HETATM   52  C   UNL     1     -11.534   9.351  70.902  1.00  0.00    -0.316 A  
ENDBRANCH  34  41
ENDBRANCH  31  32
ENDBRANCH  30  31
ENDBRANCH  27  30
ENDBRANCH  26  27
ENDBRANCH  23  26
ENDBRANCH  22  23
ENDBRANCH  21  22
ENDBRANCH  14  21
ENDBRANCH   8  12
ENDBRANCH   4   6
TORSDOF 11
ENDMDL
MODEL       72
REMARK 921   NORMALIZED FREE ENERGY PREDICTED BY IDOCK:   -6.62 KCAL/MOL
REMARK 922        TOTAL FREE ENERGY PREDICTED BY IDOCK:  -13.07 KCAL/MOL
REMARK 923 INTER-LIGAND FREE ENERGY PREDICTED BY IDOCK:  -11.47 KCAL/MOL
REMARK 924 INTRA-LIGAND FREE ENERGY PREDICTED BY IDOCK:   -1.60 KCAL/MOL
REMARK 927      BINDING AFFINITY PREDICTED BY RF-SCORE:    0.00 PKD
ROOT
HETATM    1  N   UNL     1      -9.420  21.063  66.795  1.00  0.00    -0.513 N  
HETATM    2  H1  UNL     1     -10.219  21.118  67.427  1.00  0.00     0.000 HD 
HETATM    3  H2  UNL     1      -9.181  21.866  66.213  1.00  0.00     0.000 HD 
HETATM    4  C   UNL     1      -8.672  19.940  66.722  1.00  0.00    -0.343 C  
HETATM    5  O   UNL     1      -7.708  19.874  65.961  1.00  0.00    -0.319 OA 
ENDROOT
BRANCH   4   6
HETATM    6  C   UNL     1      -9.084  18.810  67.586  1.00  0.00    -0.304 C  
HETATM    7  C   UNL     1      -8.395  17.663  67.440  1.00  0.00    -0.210 C  
HETATM    8  N   UNL     1      -8.612  16.527  68.216  1.00  0.00    -0.194 NA 
HETATM    9  C   UNL     1     -10.159  18.938  68.630  1.00  0.00    -0.447 C  
HETATM   10  C   UNL     1      -9.707  16.544  69.088  1.00  0.00    -0.241 C  
HETATM   11  C   UNL     1     -10.460  17.630  69.317  1.00  0.00    -0.026 C  
BRANCH   8  12
HETATM   12  C   UNL     1      -7.678  15.383  68.295  1.00  0.00    -0.115 C  
HETATM   13  O   UNL     1      -7.554  14.794  66.981  1.00  0.00    -0.145 OA 
HETATM   14  C   UNL     1      -8.572  13.776  66.859  1.00  0.00    -0.109 C  
HETATM   15  H   UNL     1      -7.111  12.667  70.086  1.00  0.00     0.000 HD 
HETATM   16  C   UNL     1      -8.938  13.330  68.273  1.00  0.00    -0.176 C  
HETATM   17  H   UNL     1      -8.902  11.655  69.324  1.00  0.00     0.000 HD 
HETATM   18  C   UNL     1      -8.052  14.181  69.178  1.00  0.00     0.132 C  
HETATM   19  O   UNL     1      -8.675  11.932  68.444  1.00  0.00    -0.173 OA 
HETATM   20  O   UNL     1      -6.880  13.410  69.541  1.00  0.00    -0.053 OA 
BRANCH  14  21
HETATM   21  C   UNL     1      -9.786  14.322  66.091  1.00  0.00    -0.316 C  
BRANCH  21  22
HETATM   22  O   UNL     1     -10.964  13.588  66.402  1.00  0.00    -0.291 OA 
BRANCH  22  23
HETATM   23  P   UNL     1     -11.505  12.535  65.330  1.00  0.00    -0.361 P  
HETATM   24  O   UNL     1     -12.913  12.698  64.865  1.00  0.00    -0.830 OA 
HETATM   25  O   UNL     1     -10.517  12.801  64.089  1.00  0.00    -0.385 OA 
BRANCH  23  26
HETATM   26  O   UNL     1     -11.063  11.096  65.811  1.00  0.00    -0.155 OA 
BRANCH  26  27
HETATM   27  P   UNL     1      -9.933  10.220  65.135  1.00  0.00    -0.219 P  
HETATM   28  O   UNL     1      -8.584  10.945  65.620  1.00  0.00    -0.178 OA 
HETATM   29  O   UNL     1      -9.931  10.105  63.648  1.00  0.00    -0.152 OA 
BRANCH  27  30
HETATM   30  O   UNL     1      -9.886   8.819  65.914  1.00  0.00    -0.225 OA 
BRANCH  30  31
HETATM   31  C   UNL     1      -8.644   8.187  66.204  1.00  0.00    -0.139 C  
BRANCH  31  32
HETATM   32  C   UNL     1      -8.406   7.970  67.695  1.00  0.00    -0.128 C  
HETATM   33  O   UNL     1      -9.561   8.344  68.471  1.00  0.00    -0.146 OA 
HETATM   34  C   UNL     1      -9.326   7.736  69.756  1.00  0.00    -0.153 C  
HETATM   35  H   UNL     1      -6.602   5.281  68.189  1.00  0.00     0.000 HD 
HETATM   36  C   UNL     1      -8.732   6.352  69.446  1.00  0.00    -0.129 C  
HETATM   37  C   UNL     1      -8.149   6.506  68.039  1.00  0.00    -0.113 C  
HETATM   38  H   UNL     1      -7.357   5.084  70.182  1.00  0.00     0.000 HD 
HETATM   39  O   UNL     1      -7.724   5.939  70.373  1.00  0.00    -0.091 OA 
HETATM   40  O   UNL     1      -6.762   6.192  67.975  1.00  0.00    -0.059 OA 
BRANCH  34  41
HETATM   41  N   UNL     1     -10.553   7.675  70.524  1.00  0.00    -0.222 NA 
HETATM   42  C   UNL     1     -11.168   6.570  71.041  1.00  0.00    -0.309 A  
HETATM   43  N   UNL     1     -12.249   6.886  71.727  1.00  0.00    -0.342 NA 
HETATM   44  C   UNL     1     -12.348   8.259  71.622  1.00  0.00    -0.315 A  
HETATM   45  C   UNL     1     -13.264   9.191  72.135  1.00  0.00    -0.458 A  
HETATM   46  N   UNL     1     -14.319   8.843  72.967  1.00  0.00    -1.154 NA 
HETATM   47  N   UNL     1     -13.113  10.495  71.802  1.00  0.00    -0.460 NA 
HETATM   48  H1  UNL     1     -14.984   9.521  73.340  1.00  0.00     0.000 HD 
HETATM   49  C   UNL     1     -12.062  10.844  71.030  1.00  0.00    -0.320 A  
HETATM   50  H2  UNL     1     -13.925   8.335  73.760  1.00  0.00     0.000 HD 
HETATM   51  N   UNL     1     -11.090  10.051  70.522  1.00  0.00    -0.311 NA 
HETATM   52  C   UNL     1     -11.314   8.766  70.851  1.00  0.00    -0.275 A  
ENDBRANCH  34  41
ENDBRANCH  31  32
ENDBRANCH  30  31
ENDBRANCH  27  30
ENDBRANCH  26  27
ENDBRANCH  23  26
ENDBRANCH  22  23
ENDBRANCH  21  22
ENDBRANCH  14  21
ENDBRANCH   8  12
ENDBRANCH   4   6
TORSDOF 11
ENDMDL
MODEL       73
REMARK 921   NORMALIZED FREE ENERGY PREDICTED BY IDOCK:   -6.59 KCAL/MOL
REMARK 922        TOTAL FREE ENERGY PREDICTED BY IDOCK:  -13.02 KCAL/MOL
REMARK 923 INTER-LIGAND FREE ENERGY PREDICTED BY IDOCK:  -10.75 KCAL/MOL
REMARK 924 INTRA-LIGAND FREE ENERGY PREDICTED BY IDOCK:   -2.27 KCAL/MOL
REMARK 927      BINDING AFFINITY PREDICTED BY RF-SCORE:    0.00 PKD
ROOT
HETATM    1  N   UNL     1      -9.370  10.441  69.655  1.00  0.00    -0.399 N  
HETATM    2  H1  UNL     1      -9.928   9.604  69.824  1.00  0.00     0.000 HD 
HETATM    3  H2  UNL     1      -9.798  11.361  69.757  1.00  0.00     0.000 HD 
HETATM    4  C   UNL     1      -8.071  10.345  69.297  1.00  0.00    -0.157 C  
HETATM    5  O   UNL     1      -7.398  11.355  69.093  1.00  0.00    -0.116 OA 
ENDROOT
BRANCH   4   6
HETATM    6  C   UNL     1      -7.520   8.978  69.155  1.00  0.00    -0.072 C  
HETATM    7  C   UNL     1      -8.412   7.990  68.956  1.00  0.00    -0.130 C  
HETATM    8  N   UNL     1      -8.057   6.661  68.741  1.00  0.00    -0.118 NA 
HETATM    9  C   UNL     1      -6.042   8.697  69.153  1.00  0.00    -0.043 C  
HETATM   10  C   UNL     1      -6.707   6.323  68.890  1.00  0.00    -0.060 C  
HETATM   11  C   UNL     1      -5.732   7.222  69.085  1.00  0.00    -0.019 C  
BRANCH   8  12
HETATM   12  C   UNL     1      -8.978   5.630  68.213  1.00  0.00    -0.114 C  
HETATM   13  O   UNL     1     -10.254   5.762  68.880  1.00  0.00    -0.168 OA 
HETATM   14  C   UNL     1     -10.219   4.929  70.060  1.00  0.00    -0.243 C  
HETATM   15  H   UNL     1      -9.099   2.387  67.597  1.00  0.00     0.000 HD 
HETATM   16  C   UNL     1      -9.171   3.845  69.819  1.00  0.00    -0.143 C  
HETATM   17  H   UNL     1      -9.116   1.870  69.730  1.00  0.00     0.000 HD 
HETATM   18  C   UNL     1      -8.629   4.148  68.425  1.00  0.00    -0.094 C  
HETATM   19  O   UNL     1      -9.769   2.545  69.880  1.00  0.00    -0.052 OA 
HETATM   20  O   UNL     1      -9.314   3.304  67.466  1.00  0.00    -0.190 OA 
BRANCH  14  21
HETATM   21  C   UNL     1      -9.903   5.775  71.303  1.00  0.00    -0.179 C  
BRANCH  21  22
HETATM   22  O   UNL     1     -10.286   7.132  71.112  1.00  0.00    -0.203 OA 
BRANCH  22  23
HETATM   23  P   UNL     1     -11.579   7.670  71.879  1.00  0.00    -0.312 P  
HETATM   24  O   UNL     1     -12.841   6.891  71.716  1.00  0.00    -0.362 OA 
HETATM   25  O   UNL     1     -11.107   7.573  73.414  1.00  0.00    -0.344 OA 
BRANCH  23  26
HETATM   26  O   UNL     1     -11.656   9.231  71.647  1.00  0.00    -0.348 OA 
BRANCH  26  27
HETATM   27  P   UNL     1     -12.993  10.068  71.539  1.00  0.00    -0.478 P  
HETATM   28  O   UNL     1     -13.955   9.337  72.598  1.00  0.00    -0.438 OA 
HETATM   29  O   UNL     1     -13.671  10.136  70.213  1.00  0.00     0.205 OA 
BRANCH  27  30
HETATM   30  O   UNL     1     -12.722  11.492  72.226  1.00  0.00    -0.023 OA 
BRANCH  30  31
HETATM   31  C   UNL     1     -13.203  12.693  71.632  1.00  0.00    -0.298 C  
BRANCH  31  32
HETATM   32  C   UNL     1     -12.193  13.359  70.703  1.00  0.00    -0.350 C  
HETATM   33  O   UNL     1     -12.151  12.706  69.419  1.00  0.00    -0.264 OA 
HETATM   34  C   UNL     1     -11.472  13.653  68.572  1.00  0.00    -0.312 C  
HETATM   35  H   UNL     1     -12.175  16.601  71.164  1.00  0.00     0.000 HD 
HETATM   36  C   UNL     1     -12.025  15.029  68.980  1.00  0.00    -0.264 C  
HETATM   37  C   UNL     1     -12.544  14.812  70.403  1.00  0.00    -0.346 C  
HETATM   38  H   UNL     1     -11.388  16.923  69.201  1.00  0.00     0.000 HD 
HETATM   39  O   UNL     1     -11.047  16.073  68.948  1.00  0.00    -0.287 OA 
HETATM   40  O   UNL     1     -11.956  15.696  71.351  1.00  0.00    -0.338 OA 
BRANCH  34  41
HETATM   41  N   UNL     1     -11.692  13.339  67.175  1.00  0.00    -0.356 NA 
HETATM   42  C   UNL     1     -12.522  13.967  66.290  1.00  0.00    -0.409 A  
HETATM   43  N   UNL     1     -12.440  13.444  65.083  1.00  0.00    -0.505 NA 
HETATM   44  C   UNL     1     -11.533  12.410  65.205  1.00  0.00    -0.334 A  
HETATM   45  C   UNL     1     -11.010  11.487  64.285  1.00  0.00    -0.341 A  
HETATM   46  N   UNL     1     -11.329  11.494  62.934  1.00  0.00    -0.680 NA 
HETATM   47  N   UNL     1     -10.154  10.540  64.736  1.00  0.00    -0.338 NA 
HETATM   48  H1  UNL     1     -10.949  10.823  62.266  1.00  0.00     0.000 HD 
HETATM   49  C   UNL     1      -9.806  10.557  66.041  1.00  0.00    -0.222 A  
HETATM   50  H2  UNL     1     -11.121  12.428  62.578  1.00  0.00     0.000 HD 
HETATM   51  N   UNL     1     -10.198  11.421  67.006  1.00  0.00    -0.207 NA 
HETATM   52  C   UNL     1     -11.076  12.312  66.509  1.00  0.00    -0.299 A  
ENDBRANCH  34  41
ENDBRANCH  31  32
ENDBRANCH  30  31
ENDBRANCH  27  30
ENDBRANCH  26  27
ENDBRANCH  23  26
ENDBRANCH  22  23
ENDBRANCH  21  22
ENDBRANCH  14  21
ENDBRANCH   8  12
ENDBRANCH   4   6
TORSDOF 11
ENDMDL
MODEL       74
REMARK 921   NORMALIZED FREE ENERGY PREDICTED BY IDOCK:   -6.59 KCAL/MOL
REMARK 922        TOTAL FREE ENERGY PREDICTED BY IDOCK:  -13.02 KCAL/MOL
REMARK 923 INTER-LIGAND FREE ENERGY PREDICTED BY IDOCK:  -10.57 KCAL/MOL
REMARK 924 INTRA-LIGAND FREE ENERGY PREDICTED BY IDOCK:   -2.45 KCAL/MOL
REMARK 927      BINDING AFFINITY PREDICTED BY RF-SCORE:    0.00 PKD
ROOT
HETATM    1  N   UNL     1      -6.438  10.673  68.006  1.00  0.00    -0.062 N  
HETATM    2  H1  UNL     1      -6.078  11.387  68.639  1.00  0.00     0.000 HD 
HETATM    3  H2  UNL     1      -6.036   9.735  68.023  1.00  0.00     0.000 HD 
HETATM    4  C   UNL     1      -7.443  10.953  67.147  1.00  0.00    -0.109 C  
HETATM    5  O   UNL     1      -7.877  10.091  66.383  1.00  0.00    -0.109 OA 
ENDROOT
BRANCH   4   6
HETATM    6  C   UNL     1      -7.969  12.337  67.168  1.00  0.00    -0.161 C  
HETATM    7  C   UNL     1      -8.767  12.689  66.143  1.00  0.00     0.309 C  
HETATM    8  N   UNL     1      -9.394  13.929  66.044  1.00  0.00    -0.110 NA 
HETATM    9  C   UNL     1      -7.702  13.288  68.302  1.00  0.00    -0.141 C  
HETATM   10  C   UNL     1      -9.048  14.902  66.988  1.00  0.00    -0.237 C  
HETATM   11  C   UNL     1      -8.268  14.663  68.052  1.00  0.00    -0.145 C  
BRANCH   8  12
HETATM   12  C   UNL     1     -10.506  14.227  65.114  1.00  0.00    -0.411 C  
HETATM   13  O   UNL     1     -11.622  14.741  65.875  1.00  0.00    -0.348 OA 
HETATM   14  C   UNL     1     -12.438  13.615  66.270  1.00  0.00    -0.366 C  
HETATM   15  H   UNL     1     -12.211  12.846  62.645  1.00  0.00     0.000 HD 
HETATM   16  C   UNL     1     -12.163  12.487  65.279  1.00  0.00    -0.433 C  
HETATM   17  H   UNL     1     -13.195  11.409  63.981  1.00  0.00     0.000 HD 
HETATM   18  C   UNL     1     -11.134  13.072  64.317  1.00  0.00    -0.385 C  
HETATM   19  O   UNL     1     -13.366  12.112  64.598  1.00  0.00    -0.608 OA 
HETATM   20  O   UNL     1     -11.822  13.560  63.138  1.00  0.00    -0.235 OA 
BRANCH  14  21
HETATM   21  C   UNL     1     -12.121  13.207  67.717  1.00  0.00    -0.215 C  
BRANCH  21  22
HETATM   22  O   UNL     1     -12.026  11.793  67.843  1.00  0.00    -0.575 OA 
BRANCH  22  23
HETATM   23  P   UNL     1     -11.493  11.190  69.222  1.00  0.00    -0.354 P  
HETATM   24  O   UNL     1     -10.152  10.535  69.206  1.00  0.00    -0.213 OA 
HETATM   25  O   UNL     1     -11.415  12.506  70.142  1.00  0.00    -0.130 OA 
BRANCH  23  26
HETATM   26  O   UNL     1     -12.683  10.386  69.882  1.00  0.00    -0.156 OA 
BRANCH  26  27
HETATM   27  P   UNL     1     -12.878  10.167  71.436  1.00  0.00    -0.488 P  
HETATM   28  O   UNL     1     -14.094   9.117  71.496  1.00  0.00    -0.320 OA 
HETATM   29  O   UNL     1     -13.203  11.354  72.276  1.00  0.00    -0.415 OA 
BRANCH  27  30
HETATM   30  O   UNL     1     -11.632   9.300  71.955  1.00  0.00    -0.356 OA 
BRANCH  30  31
HETATM   31  C   UNL     1     -11.835   8.085  72.668  1.00  0.00    -0.321 C  
BRANCH  31  32
HETATM   32  C   UNL     1     -11.072   6.901  72.081  1.00  0.00    -0.243 C  
HETATM   33  O   UNL     1     -11.489   6.625  70.730  1.00  0.00    -0.309 OA 
HETATM   34  C   UNL     1     -10.446   5.777  70.213  1.00  0.00    -0.280 C  
HETATM   35  H   UNL     1      -7.967   6.909  73.124  1.00  0.00     0.000 HD 
HETATM   36  C   UNL     1      -9.136   6.370  70.755  1.00  0.00    -0.151 C  
HETATM   37  C   UNL     1      -9.571   7.159  71.993  1.00  0.00    -0.143 C  
HETATM   38  H   UNL     1      -7.347   5.752  71.434  1.00  0.00     0.000 HD 
HETATM   39  O   UNL     1      -8.157   5.385  71.099  1.00  0.00    -0.106 OA 
HETATM   40  O   UNL     1      -8.901   6.748  73.179  1.00  0.00    -0.123 OA 
BRANCH  34  41
HETATM   41  N   UNL     1     -10.498   5.729  68.766  1.00  0.00    -0.228 NA 
HETATM   42  C   UNL     1     -11.021   6.656  67.910  1.00  0.00    -0.257 A  
HETATM   43  N   UNL     1     -10.857   6.309  66.649  1.00  0.00    -0.267 NA 
HETATM   44  C   UNL     1     -10.221   5.085  66.697  1.00  0.00    -0.263 A  
HETATM   45  C   UNL     1      -9.763   4.208  65.701  1.00  0.00    -0.204 A  
HETATM   46  N   UNL     1      -9.850   4.486  64.344  1.00  0.00    -0.357 NA 
HETATM   47  N   UNL     1      -9.211   3.031  66.080  1.00  0.00    -0.138 NA 
HETATM   48  H1  UNL     1      -9.517   3.849  63.620  1.00  0.00     0.000 HD 
HETATM   49  C   UNL     1      -9.085   2.776  67.401  1.00  0.00    -0.177 A  
HETATM   50  H2  UNL     1      -9.394   5.386  64.189  1.00  0.00     0.000 HD 
HETATM   51  N   UNL     1      -9.436   3.559  68.447  1.00  0.00    -0.168 NA 
HETATM   52  C   UNL     1     -10.014   4.693  68.010  1.00  0.00    -0.066 A  
ENDBRANCH  34  41
ENDBRANCH  31  32
ENDBRANCH  30  31
ENDBRANCH  27  30
ENDBRANCH  26  27
ENDBRANCH  23  26
ENDBRANCH  22  23
ENDBRANCH  21  22
ENDBRANCH  14  21
ENDBRANCH   8  12
ENDBRANCH   4   6
TORSDOF 11
ENDMDL
MODEL       75
REMARK 921   NORMALIZED FREE ENERGY PREDICTED BY IDOCK:   -6.58 KCAL/MOL
REMARK 922        TOTAL FREE ENERGY PREDICTED BY IDOCK:  -13.02 KCAL/MOL
REMARK 923 INTER-LIGAND FREE ENERGY PREDICTED BY IDOCK:  -10.48 KCAL/MOL
REMARK 924 INTRA-LIGAND FREE ENERGY PREDICTED BY IDOCK:   -2.54 KCAL/MOL
REMARK 927      BINDING AFFINITY PREDICTED BY RF-SCORE:    0.00 PKD
ROOT
HETATM    1  N   UNL     1      -8.468  11.164  62.544  1.00  0.00    -0.461 N  
HETATM    2  H1  UNL     1      -7.531  11.513  62.342  1.00  0.00     0.000 HD 
HETATM    3  H2  UNL     1      -9.212  11.290  61.858  1.00  0.00     0.000 HD 
HETATM    4  C   UNL     1      -8.735  10.538  63.711  1.00  0.00    -0.180 C  
HETATM    5  O   UNL     1      -9.866  10.118  63.955  1.00  0.00    -0.290 OA 
ENDROOT
BRANCH   4   6
HETATM    6  C   UNL     1      -7.612  10.402  64.666  1.00  0.00    -0.047 C  
HETATM    7  C   UNL     1      -7.846  10.811  65.927  1.00  0.00    -0.131 C  
HETATM    8  N   UNL     1      -6.919  10.695  66.960  1.00  0.00    -0.090 NA 
HETATM    9  C   UNL     1      -6.299   9.773  64.288  1.00  0.00    -0.117 C  
HETATM   10  C   UNL     1      -5.630  10.267  66.623  1.00  0.00    -0.048 C  
HETATM   11  C   UNL     1      -5.285   9.832  65.403  1.00  0.00    -0.048 C  
BRANCH   8  12
HETATM   12  C   UNL     1      -7.251  10.839  68.395  1.00  0.00    -0.085 C  
HETATM   13  O   UNL     1      -8.107  11.992  68.560  1.00  0.00    -0.151 OA 
HETATM   14  C   UNL     1      -7.256  13.139  68.785  1.00  0.00    -0.085 C  
HETATM   15  H   UNL     1      -5.799  10.897  71.360  1.00  0.00     0.000 HD 
HETATM   16  C   UNL     1      -5.932  12.619  69.338  1.00  0.00    -0.101 C  
HETATM   17  H   UNL     1      -4.856  12.843  70.983  1.00  0.00     0.000 HD 
HETATM   18  C   UNL     1      -6.115  11.105  69.395  1.00  0.00    -0.071 C  
HETATM   19  O   UNL     1      -5.680  13.167  70.638  1.00  0.00    -0.167 OA 
HETATM   20  O   UNL     1      -6.501  10.732  70.741  1.00  0.00    -0.348 OA 
BRANCH  14  21
HETATM   21  C   UNL     1      -7.069  13.930  67.481  1.00  0.00    -0.158 C  
BRANCH  21  22
HETATM   22  O   UNL     1      -7.719  15.193  67.548  1.00  0.00    -0.148 OA 
BRANCH  22  23
HETATM   23  P   UNL     1      -7.034  16.353  68.406  1.00  0.00    -0.159 P  
HETATM   24  O   UNL     1      -6.788  16.077  69.851  1.00  0.00    -0.145 OA 
HETATM   25  O   UNL     1      -5.617  16.512  67.662  1.00  0.00    -0.120 OA 
BRANCH  23  26
HETATM   26  O   UNL     1      -7.761  17.708  68.041  1.00  0.00    -0.218 OA 
BRANCH  26  27
HETATM   27  P   UNL     1      -8.702  17.925  66.789  1.00  0.00    -0.262 P  
HETATM   28  O   UNL     1      -7.760  17.498  65.559  1.00  0.00    -0.383 OA 
HETATM   29  O   UNL     1      -9.245  19.293  66.549  1.00  0.00    -0.322 OA 
BRANCH  27  30
HETATM   30  O   UNL     1      -9.806  16.762  66.814  1.00  0.00    -0.254 OA 
BRANCH  30  31
HETATM   31  C   UNL     1     -10.521  16.408  65.635  1.00  0.00    -0.347 C  
BRANCH  31  32
HETATM   32  C   UNL     1     -10.862  14.924  65.553  1.00  0.00    -0.356 C  
HETATM   33  O   UNL     1     -10.614  14.258  66.806  1.00  0.00    -0.275 OA 
HETATM   34  C   UNL     1     -11.325  13.011  66.681  1.00  0.00    -0.325 C  
HETATM   35  H   UNL     1     -13.496  14.455  63.664  1.00  0.00     0.000 HD 
HETATM   36  C   UNL     1     -12.646  13.367  65.979  1.00  0.00    -0.296 C  
HETATM   37  C   UNL     1     -12.337  14.678  65.252  1.00  0.00    -0.215 C  
HETATM   38  H   UNL     1     -13.911  12.588  64.625  1.00  0.00     0.000 HD 
HETATM   39  O   UNL     1     -13.095  12.369  65.059  1.00  0.00    -0.678 OA 
HETATM   40  O   UNL     1     -12.578  14.608  63.852  1.00  0.00    -0.834 OA 
BRANCH  34  41
HETATM   41  N   UNL     1     -11.514  12.399  67.981  1.00  0.00    -0.299 NA 
HETATM   42  C   UNL     1     -11.977  12.981  69.127  1.00  0.00    -0.271 A  
HETATM   43  N   UNL     1     -12.065  12.114  70.117  1.00  0.00    -0.319 NA 
HETATM   44  C   UNL     1     -11.609  10.923  69.588  1.00  0.00    -0.322 A  
HETATM   45  C   UNL     1     -11.468   9.633  70.125  1.00  0.00    -0.189 A  
HETATM   46  N   UNL     1     -11.851   9.301  71.417  1.00  0.00    -0.331 NA 
HETATM   47  N   UNL     1     -10.931   8.665  69.346  1.00  0.00    -0.096 NA 
HETATM   48  H1  UNL     1     -11.748   8.363  71.806  1.00  0.00     0.000 HD 
HETATM   49  C   UNL     1     -10.598   8.974  68.074  1.00  0.00    -0.186 A  
HETATM   50  H2  UNL     1     -12.830   9.568  71.521  1.00  0.00     0.000 HD 
HETATM   51  N   UNL     1     -10.735  10.157  67.431  1.00  0.00    -0.277 NA 
HETATM   52  C   UNL     1     -11.235  11.088  68.265  1.00  0.00    -0.277 A  
ENDBRANCH  34  41
ENDBRANCH  31  32
ENDBRANCH  30  31
ENDBRANCH  27  30
ENDBRANCH  26  27
ENDBRANCH  23  26
ENDBRANCH  22  23
ENDBRANCH  21  22
ENDBRANCH  14  21
ENDBRANCH   8  12
ENDBRANCH   4   6
TORSDOF 11
ENDMDL
MODEL       76
REMARK 921   NORMALIZED FREE ENERGY PREDICTED BY IDOCK:   -6.54 KCAL/MOL
REMARK 922        TOTAL FREE ENERGY PREDICTED BY IDOCK:  -12.95 KCAL/MOL
REMARK 923 INTER-LIGAND FREE ENERGY PREDICTED BY IDOCK:  -11.38 KCAL/MOL
REMARK 924 INTRA-LIGAND FREE ENERGY PREDICTED BY IDOCK:   -1.57 KCAL/MOL
REMARK 927      BINDING AFFINITY PREDICTED BY RF-SCORE:    0.00 PKD
ROOT
HETATM    1  N   UNL     1     -11.341   4.352  65.198  1.00  0.00    -0.881 N  
HETATM    2  H1  UNL     1     -11.716   5.027  65.866  1.00  0.00     0.000 HD 
HETATM    3  H2  UNL     1     -11.979   3.819  64.607  1.00  0.00     0.000 HD 
HETATM    4  C   UNL     1     -10.008   4.157  65.088  1.00  0.00    -0.210 C  
HETATM    5  O   UNL     1      -9.556   3.343  64.283  1.00  0.00    -0.136 OA 
ENDROOT
BRANCH   4   6
HETATM    6  C   UNL     1      -9.142   4.954  65.987  1.00  0.00    -0.139 C  
HETATM    7  C   UNL     1      -8.776   4.366  67.141  1.00  0.00    -0.105 C  
HETATM    8  N   UNL     1      -7.916   4.953  68.066  1.00  0.00    -0.086 NA 
HETATM    9  C   UNL     1      -8.627   6.317  65.614  1.00  0.00    -0.143 C  
HETATM   10  C   UNL     1      -7.539   6.282  67.842  1.00  0.00    -0.102 C  
HETATM   11  C   UNL     1      -7.842   6.964  66.728  1.00  0.00    -0.107 C  
BRANCH   8  12
HETATM   12  C   UNL     1      -7.255   4.219  69.168  1.00  0.00    -0.051 C  
HETATM   13  O   UNL     1      -8.268   3.555  69.957  1.00  0.00    -0.052 OA 
HETATM   14  C   UNL     1      -8.681   4.469  70.998  1.00  0.00    -0.113 C  
HETATM   15  H   UNL     1      -5.016   4.667  71.554  1.00  0.00     0.000 HD 
HETATM   16  C   UNL     1      -7.534   5.451  71.218  1.00  0.00    -0.093 C  
HETATM   17  H   UNL     1      -6.342   5.984  72.704  1.00  0.00     0.000 HD 
HETATM   18  C   UNL     1      -6.466   5.016  70.219  1.00  0.00    -0.031 C  
HETATM   19  O   UNL     1      -7.056   5.372  72.567  1.00  0.00    -0.082 OA 
HETATM   20  O   UNL     1      -5.504   4.175  70.904  1.00  0.00    -0.007 OA 
BRANCH  14  21
HETATM   21  C   UNL     1      -9.985   5.178  70.601  1.00  0.00    -0.226 C  
BRANCH  21  22
HETATM   22  O   UNL     1     -10.054   6.481  71.167  1.00  0.00    -0.183 OA 
BRANCH  22  23
HETATM   23  P   UNL     1     -11.011   6.712  72.424  1.00  0.00    -0.267 P  
HETATM   24  O   UNL     1     -12.007   5.643  72.727  1.00  0.00    -0.226 OA 
HETATM   25  O   UNL     1      -9.950   6.785  73.630  1.00  0.00    -0.206 OA 
BRANCH  23  26
HETATM   26  O   UNL     1     -11.544   8.198  72.351  1.00  0.00    -0.350 OA 
BRANCH  26  27
HETATM   27  P   UNL     1     -12.851   8.658  71.590  1.00  0.00    -0.334 P  
HETATM   28  O   UNL     1     -13.819   9.113  72.789  1.00  0.00    -0.430 OA 
HETATM   29  O   UNL     1     -13.552   7.658  70.735  1.00  0.00     0.064 OA 
BRANCH  27  30
HETATM   30  O   UNL     1     -12.514  10.045  70.857  1.00  0.00    -0.312 OA 
BRANCH  30  31
HETATM   31  C   UNL     1     -13.016  11.278  71.362  1.00  0.00    -0.379 C  
BRANCH  31  32
HETATM   32  C   UNL     1     -12.198  12.490  70.928  1.00  0.00    -0.181 C  
HETATM   33  O   UNL     1     -11.973  12.490  69.505  1.00  0.00    -0.303 OA 
HETATM   34  C   UNL     1     -11.548  13.836  69.221  1.00  0.00    -0.312 C  
HETATM   35  H   UNL     1     -13.020  15.120  72.698  1.00  0.00     0.000 HD 
HETATM   36  C   UNL     1     -12.441  14.734  70.094  1.00  0.00    -0.309 C  
HETATM   37  C   UNL     1     -12.907  13.808  71.221  1.00  0.00    -0.357 C  
HETATM   38  H   UNL     1     -12.315  16.432  71.162  1.00  0.00     0.000 HD 
HETATM   39  O   UNL     1     -11.764  15.878  70.622  1.00  0.00    -0.343 OA 
HETATM   40  O   UNL     1     -12.579  14.299  72.516  1.00  0.00    -0.299 OA 
BRANCH  34  41
HETATM   41  N   UNL     1     -11.661  14.120  67.805  1.00  0.00    -0.353 NA 
HETATM   42  C   UNL     1     -12.311  13.392  66.849  1.00  0.00    -0.207 A  
HETATM   43  N   UNL     1     -12.248  13.969  65.665  1.00  0.00    -0.418 NA 
HETATM   44  C   UNL     1     -11.498  15.110  65.865  1.00  0.00    -0.159 A  
HETATM   45  C   UNL     1     -11.089  16.145  65.008  1.00  0.00    -0.294 A  
HETATM   46  N   UNL     1     -11.455  16.215  63.672  1.00  0.00    -1.126 NA 
HETATM   47  N   UNL     1     -10.297  17.122  65.509  1.00  0.00    -0.631 NA 
HETATM   48  H1  UNL     1     -11.158  16.967  63.050  1.00  0.00     0.000 HD 
HETATM   49  C   UNL     1      -9.976  17.081  66.820  1.00  0.00    -0.295 A  
HETATM   50  H2  UNL     1     -12.474  16.174  63.633  1.00  0.00     0.000 HD 
HETATM   51  N   UNL     1     -10.349  16.173  67.751  1.00  0.00    -0.275 NA 
HETATM   52  C   UNL     1     -11.099  15.207  67.188  1.00  0.00    -0.335 A  
ENDBRANCH  34  41
ENDBRANCH  31  32
ENDBRANCH  30  31
ENDBRANCH  27  30
ENDBRANCH  26  27
ENDBRANCH  23  26
ENDBRANCH  22  23
ENDBRANCH  21  22
ENDBRANCH  14  21
ENDBRANCH   8  12
ENDBRANCH   4   6
TORSDOF 11
ENDMDL
MODEL       77
REMARK 921   NORMALIZED FREE ENERGY PREDICTED BY IDOCK:   -6.54 KCAL/MOL
REMARK 922        TOTAL FREE ENERGY PREDICTED BY IDOCK:  -12.95 KCAL/MOL
REMARK 923 INTER-LIGAND FREE ENERGY PREDICTED BY IDOCK:  -11.87 KCAL/MOL
REMARK 924 INTRA-LIGAND FREE ENERGY PREDICTED BY IDOCK:   -1.08 KCAL/MOL
REMARK 927      BINDING AFFINITY PREDICTED BY RF-SCORE:    0.00 PKD
ROOT
HETATM    1  N   UNL     1     -13.602  11.853  72.142  1.00  0.00    -0.444 N  
HETATM    2  H1  UNL     1     -14.262  11.481  72.826  1.00  0.00     0.000 HD 
HETATM    3  H2  UNL     1     -13.509  12.863  72.030  1.00  0.00     0.000 HD 
HETATM    4  C   UNL     1     -12.851  11.024  71.384  1.00  0.00    -0.443 C  
HETATM    5  O   UNL     1     -12.055  11.474  70.559  1.00  0.00    -0.356 OA 
ENDROOT
BRANCH   4   6
HETATM    6  C   UNL     1     -13.048   9.572  71.591  1.00  0.00    -0.486 C  
HETATM    7  C   UNL     1     -11.991   8.885  72.060  1.00  0.00    -0.369 C  
HETATM    8  N   UNL     1     -12.027   7.527  72.368  1.00  0.00    -0.259 NA 
HETATM    9  C   UNL     1     -14.373   8.895  71.368  1.00  0.00    -0.204 C  
HETATM   10  C   UNL     1     -13.185   6.820  72.026  1.00  0.00    -0.026 C  
HETATM   11  C   UNL     1     -14.300   7.400  71.557  1.00  0.00    -0.594 C  
BRANCH   8  12
HETATM   12  C   UNL     1     -10.997   6.828  73.168  1.00  0.00    -0.246 C  
HETATM   13  O   UNL     1      -9.692   7.282  72.744  1.00  0.00    -0.148 OA 
HETATM   14  C   UNL     1      -9.253   6.413  71.676  1.00  0.00    -0.144 C  
HETATM   15  H   UNL     1     -10.147   3.790  74.146  1.00  0.00     0.000 HD 
HETATM   16  C   UNL     1      -9.999   5.091  71.832  1.00  0.00    -0.187 C  
HETATM   17  H   UNL     1      -9.542   3.189  72.124  1.00  0.00     0.000 HD 
HETATM   18  C   UNL     1     -10.884   5.299  73.057  1.00  0.00    -0.280 C  
HETATM   19  O   UNL     1      -9.077   4.012  72.027  1.00  0.00    -0.114 OA 
HETATM   20  O   UNL     1     -10.218   4.736  74.214  1.00  0.00    -0.199 OA 
BRANCH  14  21
HETATM   21  C   UNL     1      -9.513   7.070  70.311  1.00  0.00    -0.165 C  
BRANCH  21  22
HETATM   22  O   UNL     1      -8.333   7.675  69.798  1.00  0.00    -0.129 OA 
BRANCH  22  23
HETATM   23  P   UNL     1      -8.055   9.209  70.147  1.00  0.00    -0.178 P  
HETATM   24  O   UNL     1      -7.944   9.569  71.591  1.00  0.00    -0.160 OA 
HETATM   25  O   UNL     1      -6.629   9.447  69.444  1.00  0.00    -0.043 OA 
BRANCH  23  26
HETATM   26  O   UNL     1      -9.022  10.083  69.254  1.00  0.00    -0.155 OA 
BRANCH  26  27
HETATM   27  P   UNL     1      -9.399   9.772  67.750  1.00  0.00    -0.134 P  
HETATM   28  O   UNL     1     -10.721   8.870  67.895  1.00  0.00    -0.210 OA 
HETATM   29  O   UNL     1      -8.396   9.056  66.911  1.00  0.00    -0.117 OA 
BRANCH  27  30
HETATM   30  O   UNL     1      -9.962  11.130  67.108  1.00  0.00    -0.181 OA 
BRANCH  30  31
HETATM   31  C   UNL     1     -11.179  11.138  66.370  1.00  0.00    -0.046 C  
BRANCH  31  32
HETATM   32  C   UNL     1     -11.694  12.541  66.063  1.00  0.00    -0.417 C  
HETATM   33  O   UNL     1     -10.804  13.551  66.577  1.00  0.00    -0.281 OA 
HETATM   34  C   UNL     1     -11.212  14.751  65.893  1.00  0.00    -0.340 C  
HETATM   35  H   UNL     1     -13.124  12.619  63.118  1.00  0.00     0.000 HD 
HETATM   36  C   UNL     1     -11.504  14.314  64.449  1.00  0.00    -0.310 C  
HETATM   37  C   UNL     1     -11.790  12.815  64.566  1.00  0.00    -0.379 C  
HETATM   38  H   UNL     1     -12.792  14.728  62.961  1.00  0.00     0.000 HD 
HETATM   39  O   UNL     1     -12.611  14.998  63.854  1.00  0.00    -0.813 OA 
HETATM   40  O   UNL     1     -13.064  12.449  64.050  1.00  0.00    -0.763 OA 
BRANCH  34  41
HETATM   41  N   UNL     1     -10.184  15.768  65.988  1.00  0.00    -0.310 NA 
HETATM   42  C   UNL     1     -10.248  17.072  65.584  1.00  0.00    -0.176 A  
HETATM   43  N   UNL     1      -9.140  17.728  65.865  1.00  0.00    -0.512 NA 
HETATM   44  C   UNL     1      -8.312  16.792  66.452  1.00  0.00    -0.309 A  
HETATM   45  C   UNL     1      -7.013  16.866  66.980  1.00  0.00    -0.200 A  
HETATM   46  N   UNL     1      -6.282  18.044  67.041  1.00  0.00    -0.157 NA 
HETATM   47  N   UNL     1      -6.442  15.732  67.452  1.00  0.00    -0.214 NA 
HETATM   48  H1  UNL     1      -5.338  18.097  67.425  1.00  0.00     0.000 HD 
HETATM   49  C   UNL     1      -7.167  14.593  67.435  1.00  0.00    -0.154 A  
HETATM   50  H2  UNL     1      -6.851  18.729  67.539  1.00  0.00     0.000 HD 
HETATM   51  N   UNL     1      -8.437  14.408  67.005  1.00  0.00    -0.206 NA 
HETATM   52  C   UNL     1      -8.936  15.557  66.512  1.00  0.00    -0.312 A  
ENDBRANCH  34  41
ENDBRANCH  31  32
ENDBRANCH  30  31
ENDBRANCH  27  30
ENDBRANCH  26  27
ENDBRANCH  23  26
ENDBRANCH  22  23
ENDBRANCH  21  22
ENDBRANCH  14  21
ENDBRANCH   8  12
ENDBRANCH   4   6
TORSDOF 11
ENDMDL
MODEL       78
REMARK 921   NORMALIZED FREE ENERGY PREDICTED BY IDOCK:   -6.54 KCAL/MOL
REMARK 922        TOTAL FREE ENERGY PREDICTED BY IDOCK:  -12.94 KCAL/MOL
REMARK 923 INTER-LIGAND FREE ENERGY PREDICTED BY IDOCK:  -11.17 KCAL/MOL
REMARK 924 INTRA-LIGAND FREE ENERGY PREDICTED BY IDOCK:   -1.78 KCAL/MOL
REMARK 927      BINDING AFFINITY PREDICTED BY RF-SCORE:    0.00 PKD
ROOT
HETATM    1  N   UNL     1     -12.383  14.327  63.386  1.00  0.00    -1.126 N  
HETATM    2  H1  UNL     1     -11.635  14.284  62.693  1.00  0.00     0.000 HD 
HETATM    3  H2  UNL     1     -13.137  15.005  63.273  1.00  0.00     0.000 HD 
HETATM    4  C   UNL     1     -12.384  13.497  64.452  1.00  0.00    -0.337 C  
HETATM    5  O   UNL     1     -13.286  13.549  65.289  1.00  0.00    -0.688 OA 
ENDROOT
BRANCH   4   6
HETATM    6  C   UNL     1     -11.252  12.549  64.559  1.00  0.00    -0.370 C  
HETATM    7  C   UNL     1     -10.588  12.539  65.730  1.00  0.00    -0.270 C  
HETATM    8  N   UNL     1      -9.542  11.667  66.017  1.00  0.00    -0.223 NA 
HETATM    9  C   UNL     1     -10.895  11.587  63.459  1.00  0.00    -0.473 C  
HETATM   10  C   UNL     1      -9.067  10.866  64.972  1.00  0.00    -0.190 C  
HETATM   11  C   UNL     1      -9.651  10.790  63.767  1.00  0.00    -0.339 C  
BRANCH   8  12
HETATM   12  C   UNL     1      -9.014  11.420  67.377  1.00  0.00    -0.154 C  
HETATM   13  O   UNL     1      -9.346  12.549  68.215  1.00  0.00    -0.205 OA 
HETATM   14  C   UNL     1      -8.262  13.501  68.118  1.00  0.00    -0.162 C  
HETATM   15  H   UNL     1      -6.241  10.489  68.911  1.00  0.00     0.000 HD 
HETATM   16  C   UNL     1      -7.016  12.725  67.699  1.00  0.00    -0.146 C  
HETATM   17  H   UNL     1      -5.213  12.367  68.430  1.00  0.00     0.000 HD 
HETATM   18  C   UNL     1      -7.495  11.283  67.568  1.00  0.00    -0.106 C  
HETATM   19  O   UNL     1      -5.989  12.850  68.691  1.00  0.00    -0.065 OA 
HETATM   20  O   UNL     1      -7.181  10.574  68.793  1.00  0.00    -0.074 OA 
BRANCH  14  21
HETATM   21  C   UNL     1      -8.616  14.614  67.119  1.00  0.00    -0.223 C  
BRANCH  21  22
HETATM   22  O   UNL     1      -9.105  15.769  67.790  1.00  0.00    -0.187 OA 
BRANCH  22  23
HETATM   23  P   UNL     1     -10.562  16.304  67.412  1.00  0.00    -0.242 P  
HETATM   24  O   UNL     1     -10.831  17.755  67.626  1.00  0.00    -0.363 OA 
HETATM   25  O   UNL     1     -10.621  15.994  65.835  1.00  0.00    -0.327 OA 
BRANCH  23  26
HETATM   26  O   UNL     1     -11.612  15.278  67.997  1.00  0.00    -0.339 OA 
BRANCH  26  27
HETATM   27  P   UNL     1     -11.745  14.885  69.523  1.00  0.00    -0.352 P  
HETATM   28  O   UNL     1     -13.083  15.654  69.972  1.00  0.00    -0.129 OA 
HETATM   29  O   UNL     1     -10.629  15.251  70.440  1.00  0.00    -0.276 OA 
BRANCH  27  30
HETATM   30  O   UNL     1     -12.183  13.343  69.582  1.00  0.00    -0.291 OA 
BRANCH  30  31
HETATM   31  C   UNL     1     -12.112  12.611  70.801  1.00  0.00    -0.146 C  
BRANCH  31  32
HETATM   32  C   UNL     1     -12.270  11.105  70.615  1.00  0.00    -0.397 C  
HETATM   33  O   UNL     1     -11.029  10.491  70.218  1.00  0.00    -0.292 OA 
HETATM   34  C   UNL     1     -11.245   9.087  70.459  1.00  0.00    -0.260 C  
HETATM   35  H   UNL     1     -14.341   9.887  72.841  1.00  0.00     0.000 HD 
HETATM   36  C   UNL     1     -12.017   9.019  71.786  1.00  0.00    -0.368 C  
HETATM   37  C   UNL     1     -12.674  10.396  71.904  1.00  0.00    -0.357 C  
HETATM   38  H   UNL     1     -13.479   7.938  72.646  1.00  0.00     0.000 HD 
HETATM   39  O   UNL     1     -13.001   7.981  71.826  1.00  0.00    -0.320 OA 
HETATM   40  O   UNL     1     -14.089  10.328  72.039  1.00  0.00     0.085 OA 
BRANCH  34  41
HETATM   41  N   UNL     1      -9.984   8.375  70.492  1.00  0.00    -0.183 NA 
HETATM   42  C   UNL     1      -9.224   7.956  69.436  1.00  0.00    -0.145 A  
HETATM   43  N   UNL     1      -8.109   7.375  69.833  1.00  0.00    -0.124 NA 
HETATM   44  C   UNL     1      -8.168   7.397  71.212  1.00  0.00    -0.105 A  
HETATM   45  C   UNL     1      -7.289   6.950  72.212  1.00  0.00    -0.086 A  
HETATM   46  N   UNL     1      -6.052   6.384  71.939  1.00  0.00    -0.037 NA 
HETATM   47  N   UNL     1      -7.667   7.074  73.506  1.00  0.00    -0.085 NA 
HETATM   48  H1  UNL     1      -5.413   6.060  72.666  1.00  0.00     0.000 HD 
HETATM   49  C   UNL     1      -8.851   7.664  73.777  1.00  0.00    -0.253 A  
HETATM   50  H2  UNL     1      -5.537   7.046  71.356  1.00  0.00     0.000 HD 
HETATM   51  N   UNL     1      -9.753   8.180  72.910  1.00  0.00    -0.275 NA 
HETATM   52  C   UNL     1      -9.344   7.992  71.642  1.00  0.00    -0.160 A  
ENDBRANCH  34  41
ENDBRANCH  31  32
ENDBRANCH  30  31
ENDBRANCH  27  30
ENDBRANCH  26  27
ENDBRANCH  23  26
ENDBRANCH  22  23
ENDBRANCH  21  22
ENDBRANCH  14  21
ENDBRANCH   8  12
ENDBRANCH   4   6
TORSDOF 11
ENDMDL
MODEL       79
REMARK 921   NORMALIZED FREE ENERGY PREDICTED BY IDOCK:   -6.53 KCAL/MOL
REMARK 922        TOTAL FREE ENERGY PREDICTED BY IDOCK:  -12.94 KCAL/MOL
REMARK 923 INTER-LIGAND FREE ENERGY PREDICTED BY IDOCK:  -10.18 KCAL/MOL
REMARK 924 INTRA-LIGAND FREE ENERGY PREDICTED BY IDOCK:   -2.75 KCAL/MOL
REMARK 927      BINDING AFFINITY PREDICTED BY RF-SCORE:    0.00 PKD
ROOT
HETATM    1  N   UNL     1      -8.898   9.682  65.118  1.00  0.00    -0.167 N  
HETATM    2  H1  UNL     1      -9.380   9.569  66.010  1.00  0.00     0.000 HD 
HETATM    3  H2  UNL     1      -8.154   9.033  64.861  1.00  0.00     0.000 HD 
HETATM    4  C   UNL     1      -9.234  10.681  64.272  1.00  0.00    -0.233 C  
HETATM    5  O   UNL     1      -8.653  10.817  63.196  1.00  0.00    -0.173 OA 
ENDROOT
BRANCH   4   6
HETATM    6  C   UNL     1     -10.313  11.593  64.715  1.00  0.00    -0.331 C  
HETATM    7  C   UNL     1     -10.071  12.310  65.828  1.00  0.00    -0.252 C  
HETATM    8  N   UNL     1     -10.953  13.257  66.343  1.00  0.00    -0.287 NA 
HETATM    9  C   UNL     1     -11.586  11.779  63.936  1.00  0.00    -0.469 C  
HETATM   10  C   UNL     1     -12.216  13.351  65.748  1.00  0.00    -0.458 C  
HETATM   11  C   UNL     1     -12.566  12.689  64.635  1.00  0.00    -0.517 C  
BRANCH   8  12
HETATM   12  C   UNL     1     -10.586  14.268  67.359  1.00  0.00    -0.276 C  
HETATM   13  O   UNL     1     -10.063  13.588  68.522  1.00  0.00    -0.234 OA 
HETATM   14  C   UNL     1     -11.175  13.308  69.403  1.00  0.00    -0.158 C  
HETATM   15  H   UNL     1     -11.823  16.926  68.881  1.00  0.00     0.000 HD 
HETATM   16  C   UNL     1     -12.276  14.313  69.075  1.00  0.00    -0.220 C  
HETATM   17  H   UNL     1     -13.273  15.736  70.020  1.00  0.00     0.000 HD 
HETATM   18  C   UNL     1     -11.691  15.160  67.948  1.00  0.00    -0.256 C  
HETATM   19  O   UNL     1     -12.587  15.110  70.224  1.00  0.00    -0.350 OA 
HETATM   20  O   UNL     1     -11.140  16.374  68.516  1.00  0.00    -0.341 OA 
BRANCH  14  21
HETATM   21  C   UNL     1     -11.644  11.855  69.226  1.00  0.00    -0.315 C  
BRANCH  21  22
HETATM   22  O   UNL     1     -10.540  10.958  69.201  1.00  0.00    -0.203 OA 
BRANCH  22  23
HETATM   23  P   UNL     1     -10.688   9.554  69.947  1.00  0.00    -0.263 P  
HETATM   24  O   UNL     1     -10.782   8.335  69.092  1.00  0.00    -0.196 OA 
HETATM   25  O   UNL     1      -9.319   9.490  70.789  1.00  0.00    -0.245 OA 
BRANCH  23  26
HETATM   26  O   UNL     1     -11.774   9.729  71.082  1.00  0.00    -0.323 OA 
BRANCH  26  27
HETATM   27  P   UNL     1     -12.360   8.557  71.967  1.00  0.00    -0.404 P  
HETATM   28  O   UNL     1     -12.748   7.446  70.872  1.00  0.00    -0.240 OA 
HETATM   29  O   UNL     1     -13.545   8.850  72.822  1.00  0.00    -0.405 OA 
BRANCH  27  30
HETATM   30  O   UNL     1     -11.127   7.881  72.739  1.00  0.00    -0.357 OA 
BRANCH  30  31
HETATM   31  C   UNL     1     -11.019   6.465  72.843  1.00  0.00    -0.250 C  
BRANCH  31  32
HETATM   32  C   UNL     1      -9.762   5.902  72.186  1.00  0.00    -0.155 C  
HETATM   33  O   UNL     1      -9.823   6.017  70.751  1.00  0.00    -0.175 OA 
HETATM   34  C   UNL     1      -8.461   5.812  70.330  1.00  0.00    -0.129 C  
HETATM   35  H   UNL     1      -7.123   6.556  74.012  1.00  0.00     0.000 HD 
HETATM   36  C   UNL     1      -7.602   6.565  71.360  1.00  0.00    -0.094 C  
HETATM   37  C   UNL     1      -8.501   6.656  72.595  1.00  0.00    -0.123 C  
HETATM   38  H   UNL     1      -5.841   6.370  72.309  1.00  0.00     0.000 HD 
HETATM   39  O   UNL     1      -6.372   5.906  71.673  1.00  0.00    -0.045 OA 
HETATM   40  O   UNL     1      -7.908   6.087  73.757  1.00  0.00    -0.099 OA 
BRANCH  34  41
HETATM   41  N   UNL     1      -8.271   6.282  68.973  1.00  0.00    -0.113 NA 
HETATM   42  C   UNL     1      -7.554   7.365  68.548  1.00  0.00    -0.114 A  
HETATM   43  N   UNL     1      -7.557   7.472  67.234  1.00  0.00    -0.106 NA 
HETATM   44  C   UNL     1      -8.337   6.422  66.794  1.00  0.00    -0.111 A  
HETATM   45  C   UNL     1      -8.712   5.984  65.514  1.00  0.00    -0.114 A  
HETATM   46  N   UNL     1      -8.270   6.584  64.344  1.00  0.00    -0.294 NA 
HETATM   47  N   UNL     1      -9.549   4.923  65.414  1.00  0.00    -0.138 NA 
HETATM   48  H1  UNL     1      -8.543   6.266  63.414  1.00  0.00     0.000 HD 
HETATM   49  C   UNL     1      -9.945   4.308  66.549  1.00  0.00    -0.192 A  
HETATM   50  H2  UNL     1      -7.250   6.594  64.374  1.00  0.00     0.000 HD 
HETATM   51  N   UNL     1      -9.612   4.601  67.827  1.00  0.00    -0.152 NA 
HETATM   52  C   UNL     1      -8.814   5.684  67.866  1.00  0.00    -0.105 A  
ENDBRANCH  34  41
ENDBRANCH  31  32
ENDBRANCH  30  31
ENDBRANCH  27  30
ENDBRANCH  26  27
ENDBRANCH  23  26
ENDBRANCH  22  23
ENDBRANCH  21  22
ENDBRANCH  14  21
ENDBRANCH   8  12
ENDBRANCH   4   6
TORSDOF 11
ENDMDL
MODEL       80
REMARK 921   NORMALIZED FREE ENERGY PREDICTED BY IDOCK:   -6.53 KCAL/MOL
REMARK 922        TOTAL FREE ENERGY PREDICTED BY IDOCK:  -12.94 KCAL/MOL
REMARK 923 INTER-LIGAND FREE ENERGY PREDICTED BY IDOCK:  -10.29 KCAL/MOL
REMARK 924 INTRA-LIGAND FREE ENERGY PREDICTED BY IDOCK:   -2.65 KCAL/MOL
REMARK 927      BINDING AFFINITY PREDICTED BY RF-SCORE:    0.00 PKD
ROOT
HETATM    1  N   UNL     1     -10.574  11.250  69.507  1.00  0.00    -0.439 N  
HETATM    2  H1  UNL     1     -10.445  10.351  69.971  1.00  0.00     0.000 HD 
HETATM    3  H2  UNL     1     -11.058  12.004  69.994  1.00  0.00     0.000 HD 
HETATM    4  C   UNL     1     -10.110  11.453  68.254  1.00  0.00    -0.196 C  
HETATM    5  O   UNL     1     -10.266  12.538  67.693  1.00  0.00    -0.213 OA 
ENDROOT
BRANCH   4   6
HETATM    6  C   UNL     1      -9.430  10.311  67.603  1.00  0.00    -0.169 C  
HETATM    7  C   UNL     1     -10.072   9.128  67.646  1.00  0.00    -0.220 C  
HETATM    8  N   UNL     1      -9.601   7.971  67.030  1.00  0.00    -0.180 NA 
HETATM    9  C   UNL     1      -8.130  10.458  66.861  1.00  0.00    -0.118 C  
HETATM   10  C   UNL     1      -8.320   8.018  66.468  1.00  0.00    -0.121 C  
HETATM   11  C   UNL     1      -7.592   9.139  66.364  1.00  0.00    -0.093 C  
BRANCH   8  12
HETATM   12  C   UNL     1     -10.421   6.762  66.795  1.00  0.00    -0.228 C  
HETATM   13  O   UNL     1     -11.269   6.546  67.945  1.00  0.00    -0.292 OA 
HETATM   14  C   UNL     1     -10.545   5.705  68.870  1.00  0.00    -0.233 C  
HETATM   15  H   UNL     1     -10.118   3.619  65.830  1.00  0.00     0.000 HD 
HETATM   16  C   UNL     1      -9.509   4.929  68.062  1.00  0.00    -0.136 C  
HETATM   17  H   UNL     1      -9.086   3.035  67.677  1.00  0.00     0.000 HD 
HETATM   18  C   UNL     1      -9.712   5.409  66.628  1.00  0.00    -0.161 C  
HETATM   19  O   UNL     1      -9.732   3.518  68.180  1.00  0.00    -0.138 OA 
HETATM   20  O   UNL     1     -10.555   4.456  65.933  1.00  0.00    -0.231 OA 
BRANCH  14  21
HETATM   21  C   UNL     1      -9.900   6.557  69.975  1.00  0.00    -0.165 C  
BRANCH  21  22
HETATM   22  O   UNL     1     -10.781   7.584  70.412  1.00  0.00    -0.229 OA 
BRANCH  22  23
HETATM   23  P   UNL     1     -11.447   7.446  71.857  1.00  0.00    -0.291 P  
HETATM   24  O   UNL     1     -12.406   6.321  72.061  1.00  0.00    -0.328 OA 
HETATM   25  O   UNL     1     -10.157   7.198  72.785  1.00  0.00    -0.175 OA 
BRANCH  23  26
HETATM   26  O   UNL     1     -11.915   8.887  72.306  1.00  0.00    -0.355 OA 
BRANCH  26  27
HETATM   27  P   UNL     1     -13.234   9.607  71.815  1.00  0.00    -0.448 P  
HETATM   28  O   UNL     1     -14.371   8.919  72.719  1.00  0.00    -0.600 OA 
HETATM   29  O   UNL     1     -13.602   9.489  70.375  1.00  0.00     0.221 OA 
BRANCH  27  30
HETATM   30  O   UNL     1     -13.194  11.110  72.374  1.00  0.00    -0.249 OA 
BRANCH  30  31
HETATM   31  C   UNL     1     -13.504  12.212  71.528  1.00  0.00     0.146 C  
BRANCH  31  32
HETATM   32  C   UNL     1     -12.518  13.370  71.653  1.00  0.00    -0.089 C  
HETATM   33  O   UNL     1     -11.863  13.639  70.398  1.00  0.00    -0.300 OA 
HETATM   34  C   UNL     1     -11.289  14.947  70.582  1.00  0.00    -0.231 C  
HETATM   35  H   UNL     1     -13.683  15.652  73.692  1.00  0.00     0.000 HD 
HETATM   36  C   UNL     1     -12.350  15.750  71.351  1.00  0.00    -0.448 C  
HETATM   37  C   UNL     1     -13.199  14.678  72.039  1.00  0.00    -0.351 C  
HETATM   38  H   UNL     1     -12.457  17.154  72.786  1.00  0.00     0.000 HD 
HETATM   39  O   UNL     1     -11.801  16.658  72.311  1.00  0.00    -0.466 OA 
HETATM   40  O   UNL     1     -13.259  14.837  73.452  1.00  0.00    -0.565 OA 
BRANCH  34  41
HETATM   41  N   UNL     1     -10.939  15.535  69.305  1.00  0.00    -0.249 NA 
HETATM   42  C   UNL     1     -11.779  16.006  68.335  1.00  0.00    -0.194 A  
HETATM   43  N   UNL     1     -11.116  16.517  67.317  1.00  0.00    -0.074 NA 
HETATM   44  C   UNL     1      -9.785  16.342  67.636  1.00  0.00    -0.234 A  
HETATM   45  C   UNL     1      -8.593  16.681  66.974  1.00  0.00    -0.195 A  
HETATM   46  N   UNL     1      -8.560  17.368  65.769  1.00  0.00    -0.488 NA 
HETATM   47  N   UNL     1      -7.416  16.319  67.538  1.00  0.00    -0.136 NA 
HETATM   48  H1  UNL     1      -7.695  17.615  65.289  1.00  0.00     0.000 HD 
HETATM   49  C   UNL     1      -7.442  15.689  68.733  1.00  0.00    -0.151 A  
HETATM   50  H2  UNL     1      -9.093  18.230  65.897  1.00  0.00     0.000 HD 
HETATM   51  N   UNL     1      -8.516  15.358  69.487  1.00  0.00    -0.254 NA 
HETATM   52  C   UNL     1      -9.654  15.705  68.859  1.00  0.00    -0.224 A  
ENDBRANCH  34  41
ENDBRANCH  31  32
ENDBRANCH  30  31
ENDBRANCH  27  30
ENDBRANCH  26  27
ENDBRANCH  23  26
ENDBRANCH  22  23
ENDBRANCH  21  22
ENDBRANCH  14  21
ENDBRANCH   8  12
ENDBRANCH   4   6
TORSDOF 11
ENDMDL
MODEL       81
REMARK 921   NORMALIZED FREE ENERGY PREDICTED BY IDOCK:   -6.52 KCAL/MOL
REMARK 922        TOTAL FREE ENERGY PREDICTED BY IDOCK:  -12.92 KCAL/MOL
REMARK 923 INTER-LIGAND FREE ENERGY PREDICTED BY IDOCK:  -11.30 KCAL/MOL
REMARK 924 INTRA-LIGAND FREE ENERGY PREDICTED BY IDOCK:   -1.62 KCAL/MOL
REMARK 927      BINDING AFFINITY PREDICTED BY RF-SCORE:    0.00 PKD
ROOT
HETATM    1  N   UNL     1      -9.410  20.914  67.182  1.00  0.00    -0.660 N  
HETATM    2  H1  UNL     1      -8.592  21.000  67.786  1.00  0.00     0.000 HD 
HETATM    3  H2  UNL     1      -9.973  21.739  66.976  1.00  0.00     0.000 HD 
HETATM    4  C   UNL     1      -9.754  19.720  66.652  1.00  0.00    -0.407 C  
HETATM    5  O   UNL     1     -10.741  19.616  65.923  1.00  0.00    -0.492 OA 
ENDROOT
BRANCH   4   6
HETATM    6  C   UNL     1      -8.899  18.564  67.004  1.00  0.00    -0.278 C  
HETATM    7  C   UNL     1      -9.309  17.810  68.042  1.00  0.00    -0.276 C  
HETATM    8  N   UNL     1      -8.656  16.655  68.462  1.00  0.00    -0.224 NA 
HETATM    9  C   UNL     1      -7.678  18.188  66.211  1.00  0.00    -0.290 C  
HETATM   10  C   UNL     1      -7.428  16.355  67.861  1.00  0.00    -0.140 C  
HETATM   11  C   UNL     1      -6.924  17.031  66.818  1.00  0.00    -0.268 C  
BRANCH   8  12
HETATM   12  C   UNL     1      -9.246  15.652  69.376  1.00  0.00    -0.279 C  
HETATM   13  O   UNL     1      -9.263  14.370  68.709  1.00  0.00    -0.197 OA 
HETATM   14  C   UNL     1     -10.519  14.260  68.003  1.00  0.00    -0.235 C  
HETATM   15  H   UNL     1     -11.873  15.206  71.327  1.00  0.00     0.000 HD 
HETATM   16  C   UNL     1     -11.509  15.194  68.694  1.00  0.00    -0.325 C  
HETATM   17  H   UNL     1     -13.247  15.037  69.625  1.00  0.00     0.000 HD 
HETATM   18  C   UNL     1     -10.705  15.827  69.825  1.00  0.00    -0.316 C  
HETATM   19  O   UNL     1     -12.631  14.456  69.195  1.00  0.00    -0.094 OA 
HETATM   20  O   UNL     1     -10.970  15.098  71.050  1.00  0.00    -0.283 OA 
BRANCH  14  21
HETATM   21  C   UNL     1     -10.330  14.611  66.518  1.00  0.00    -0.282 C  
BRANCH  21  22
HETATM   22  O   UNL     1     -10.028  13.452  65.751  1.00  0.00    -0.285 OA 
BRANCH  22  23
HETATM   23  P   UNL     1     -11.240  12.619  65.128  1.00  0.00    -0.328 P  
HETATM   24  O   UNL     1     -12.604  12.899  65.662  1.00  0.00    -0.555 OA 
HETATM   25  O   UNL     1     -11.185  13.072  63.586  1.00  0.00    -0.399 OA 
BRANCH  23  26
HETATM   26  O   UNL     1     -10.789  11.106  65.052  1.00  0.00    -0.261 OA 
BRANCH  26  27
HETATM   27  P   UNL     1      -9.375  10.605  64.551  1.00  0.00    -0.282 P  
HETATM   28  O   UNL     1      -8.378  11.174  65.675  1.00  0.00    -0.118 OA 
HETATM   29  O   UNL     1      -8.913  11.046  63.204  1.00  0.00    -0.221 OA 
BRANCH  27  30
HETATM   30  O   UNL     1      -9.318   9.020  64.793  1.00  0.00    -0.056 OA 
BRANCH  30  31
HETATM   31  C   UNL     1      -8.077   8.323  64.775  1.00  0.00    -0.151 C  
BRANCH  31  32
HETATM   32  C   UNL     1      -7.924   7.324  65.917  1.00  0.00    -0.115 C  
HETATM   33  O   UNL     1      -8.678   7.732  67.076  1.00  0.00    -0.125 OA 
HETATM   34  C   UNL     1      -8.741   6.542  67.884  1.00  0.00    -0.116 C  
HETATM   35  H   UNL     1      -7.773   4.266  64.755  1.00  0.00     0.000 HD 
HETATM   36  C   UNL     1      -8.973   5.391  66.891  1.00  0.00    -0.110 C  
HETATM   37  C   UNL     1      -8.455   5.941  65.560  1.00  0.00    -0.154 C  
HETATM   38  H   UNL     1      -8.434   3.472  66.629  1.00  0.00     0.000 HD 
HETATM   39  O   UNL     1      -8.291   4.183  67.242  1.00  0.00    -0.099 OA 
HETATM   40  O   UNL     1      -7.442   5.128  64.978  1.00  0.00    -0.070 OA 
BRANCH  34  41
HETATM   41  N   UNL     1      -9.784   6.656  68.882  1.00  0.00    -0.135 NA 
HETATM   42  C   UNL     1     -11.033   6.102  68.863  1.00  0.00    -0.356 A  
HETATM   43  N   UNL     1     -11.709   6.377  69.961  1.00  0.00    -0.389 NA 
HETATM   44  C   UNL     1     -10.864   7.170  70.710  1.00  0.00    -0.244 A  
HETATM   45  C   UNL     1     -10.990   7.772  71.973  1.00  0.00    -0.257 A  
HETATM   46  N   UNL     1     -12.102   7.610  72.785  1.00  0.00    -0.588 NA 
HETATM   47  N   UNL     1      -9.976   8.550  72.421  1.00  0.00    -0.309 NA 
HETATM   48  H1  UNL     1     -12.194   8.047  73.703  1.00  0.00     0.000 HD 
HETATM   49  C   UNL     1      -8.872   8.674  71.653  1.00  0.00    -0.223 A  
HETATM   50  H2  UNL     1     -12.243   6.607  72.912  1.00  0.00     0.000 HD 
HETATM   51  N   UNL     1      -8.613   8.105  70.452  1.00  0.00    -0.129 NA 
HETATM   52  C   UNL     1      -9.669   7.378  70.041  1.00  0.00    -0.175 A  
ENDBRANCH  34  41
ENDBRANCH  31  32
ENDBRANCH  30  31
ENDBRANCH  27  30
ENDBRANCH  26  27
ENDBRANCH  23  26
ENDBRANCH  22  23
ENDBRANCH  21  22
ENDBRANCH  14  21
ENDBRANCH   8  12
ENDBRANCH   4   6
TORSDOF 11
ENDMDL
MODEL       82
REMARK 921   NORMALIZED FREE ENERGY PREDICTED BY IDOCK:   -6.48 KCAL/MOL
REMARK 922        TOTAL FREE ENERGY PREDICTED BY IDOCK:  -12.85 KCAL/MOL
REMARK 923 INTER-LIGAND FREE ENERGY PREDICTED BY IDOCK:  -10.30 KCAL/MOL
REMARK 924 INTRA-LIGAND FREE ENERGY PREDICTED BY IDOCK:   -2.54 KCAL/MOL
REMARK 927      BINDING AFFINITY PREDICTED BY RF-SCORE:    0.00 PKD
ROOT
HETATM    1  N   UNL     1     -11.213   4.741  65.220  1.00  0.00    -0.943 N  
HETATM    2  H1  UNL     1     -10.690   4.206  64.527  1.00  0.00     0.000 HD 
HETATM    3  H2  UNL     1     -12.229   4.797  65.153  1.00  0.00     0.000 HD 
HETATM    4  C   UNL     1     -10.574   5.376  66.228  1.00  0.00    -0.208 C  
HETATM    5  O   UNL     1     -11.205   6.022  67.065  1.00  0.00    -0.238 OA 
ENDROOT
BRANCH   4   6
HETATM    6  C   UNL     1      -9.098   5.264  66.255  1.00  0.00    -0.139 C  
HETATM    7  C   UNL     1      -8.407   6.407  66.094  1.00  0.00    -0.128 C  
HETATM    8  N   UNL     1      -7.018   6.486  66.157  1.00  0.00    -0.061 NA 
HETATM    9  C   UNL     1      -8.390   3.964  66.525  1.00  0.00    -0.104 C  
HETATM   10  C   UNL     1      -6.309   5.282  66.243  1.00  0.00    -0.039 C  
HETATM   11  C   UNL     1      -6.891   4.085  66.412  1.00  0.00    -0.058 C  
BRANCH   8  12
HETATM   12  C   UNL     1      -6.262   7.750  66.299  1.00  0.00    -0.045 C  
HETATM   13  O   UNL     1      -5.581   7.743  67.573  1.00  0.00    -0.034 OA 
HETATM   14  C   UNL     1      -6.472   8.328  68.549  1.00  0.00    -0.054 C  
HETATM   15  H   UNL     1      -6.662  11.014  65.993  1.00  0.00     0.000 HD 
HETATM   16  C   UNL     1      -7.451   9.220  67.790  1.00  0.00    -0.088 C  
HETATM   17  H   UNL     1      -7.953  11.133  67.763  1.00  0.00     0.000 HD 
HETATM   18  C   UNL     1      -7.037   9.077  66.328  1.00  0.00    -0.086 C  
HETATM   19  O   UNL     1      -7.344  10.578  68.236  1.00  0.00    -0.085 OA 
HETATM   20  O   UNL     1      -6.183  10.193  65.974  1.00  0.00    -0.072 OA 
BRANCH  14  21
HETATM   21  C   UNL     1      -7.188   7.228  69.347  1.00  0.00    -0.084 C  
BRANCH  21  22
HETATM   22  O   UNL     1      -8.328   7.744  70.025  1.00  0.00    -0.126 OA 
BRANCH  22  23
HETATM   23  P   UNL     1      -8.265   7.883  71.614  1.00  0.00    -0.134 P  
HETATM   24  O   UNL     1      -7.254   7.054  72.332  1.00  0.00    -0.072 OA 
HETATM   25  O   UNL     1      -7.878   9.435  71.787  1.00  0.00    -0.242 OA 
BRANCH  23  26
HETATM   26  O   UNL     1      -9.750   7.844  72.154  1.00  0.00    -0.173 OA 
BRANCH  26  27
HETATM   27  P   UNL     1     -11.039   8.144  71.290  1.00  0.00    -0.267 P  
HETATM   28  O   UNL     1     -12.153   8.450  72.407  1.00  0.00    -0.371 OA 
HETATM   29  O   UNL     1     -11.533   7.076  70.374  1.00  0.00    -0.299 OA 
BRANCH  27  30
HETATM   30  O   UNL     1     -10.826   9.574  70.596  1.00  0.00    -0.256 OA 
BRANCH  30  31
HETATM   31  C   UNL     1     -11.925  10.454  70.385  1.00  0.00    -0.320 C  
BRANCH  31  32
HETATM   32  C   UNL     1     -12.004  10.998  68.962  1.00  0.00    -0.293 C  
HETATM   33  O   UNL     1     -11.991  12.439  68.949  1.00  0.00    -0.303 OA 
HETATM   34  C   UNL     1     -11.687  12.770  67.581  1.00  0.00    -0.367 C  
HETATM   35  H   UNL     1     -10.314   9.086  66.909  1.00  0.00     0.000 HD 
HETATM   36  C   UNL     1     -10.617  11.754  67.148  1.00  0.00    -0.231 C  
HETATM   37  C   UNL     1     -10.811  10.579  68.109  1.00  0.00    -0.253 C  
HETATM   38  H   UNL     1     -10.086  10.699  65.521  1.00  0.00     0.000 HD 
HETATM   39  O   UNL     1     -10.746  11.327  65.789  1.00  0.00    -0.263 OA 
HETATM   40  O   UNL     1     -11.057   9.348  67.440  1.00  0.00    -0.113 OA 
BRANCH  34  41
HETATM   41  N   UNL     1     -11.248  14.146  67.474  1.00  0.00    -0.294 NA 
HETATM   42  C   UNL     1     -10.707  14.936  68.448  1.00  0.00    -0.245 A  
HETATM   43  N   UNL     1     -10.378  16.128  67.989  1.00  0.00    -0.263 NA 
HETATM   44  C   UNL     1     -10.752  16.111  66.660  1.00  0.00    -0.226 A  
HETATM   45  C   UNL     1     -10.658  17.063  65.631  1.00  0.00    -0.197 A  
HETATM   46  N   UNL     1     -10.064  18.306  65.796  1.00  0.00    -0.556 NA 
HETATM   47  N   UNL     1     -11.174  16.754  64.418  1.00  0.00    -1.107 NA 
HETATM   48  H1  UNL     1      -9.995  18.996  65.049  1.00  0.00     0.000 HD 
HETATM   49  C   UNL     1     -11.713  15.529  64.241  1.00  0.00    -0.190 A  
HETATM   50  H2  UNL     1      -9.120  18.146  66.149  1.00  0.00     0.000 HD 
HETATM   51  N   UNL     1     -11.813  14.516  65.132  1.00  0.00    -0.370 NA 
HETATM   52  C   UNL     1     -11.322  14.893  66.327  1.00  0.00    -0.306 A  
ENDBRANCH  34  41
ENDBRANCH  31  32
ENDBRANCH  30  31
ENDBRANCH  27  30
ENDBRANCH  26  27
ENDBRANCH  23  26
ENDBRANCH  22  23
ENDBRANCH  21  22
ENDBRANCH  14  21
ENDBRANCH   8  12
ENDBRANCH   4   6
TORSDOF 11
ENDMDL
MODEL       83
REMARK 921   NORMALIZED FREE ENERGY PREDICTED BY IDOCK:   -6.47 KCAL/MOL
REMARK 922        TOTAL FREE ENERGY PREDICTED BY IDOCK:  -12.84 KCAL/MOL
REMARK 923 INTER-LIGAND FREE ENERGY PREDICTED BY IDOCK:  -10.82 KCAL/MOL
REMARK 924 INTRA-LIGAND FREE ENERGY PREDICTED BY IDOCK:   -2.02 KCAL/MOL
REMARK 927      BINDING AFFINITY PREDICTED BY RF-SCORE:    0.00 PKD
ROOT
HETATM    1  N   UNL     1     -12.578   8.985  70.911  1.00  0.00    -0.500 N  
HETATM    2  H1  UNL     1     -11.749   9.567  70.789  1.00  0.00     0.000 HD 
HETATM    3  H2  UNL     1     -13.486   9.328  70.594  1.00  0.00     0.000 HD 
HETATM    4  C   UNL     1     -12.488   7.766  71.486  1.00  0.00    -0.324 C  
HETATM    5  O   UNL     1     -13.489   7.063  71.632  1.00  0.00    -0.365 OA 
ENDROOT
BRANCH   4   6
HETATM    6  C   UNL     1     -11.143   7.339  71.933  1.00  0.00    -0.270 C  
HETATM    7  C   UNL     1     -10.779   6.081  71.621  1.00  0.00    -0.251 C  
HETATM    8  N   UNL     1      -9.528   5.545  71.912  1.00  0.00    -0.148 NA 
HETATM    9  C   UNL     1     -10.190   8.269  72.632  1.00  0.00    -0.368 C  
HETATM   10  C   UNL     1      -8.666   6.314  72.703  1.00  0.00    -0.123 C  
HETATM   11  C   UNL     1      -8.921   7.579  73.068  1.00  0.00    -0.207 C  
BRANCH   8  12
HETATM   12  C   UNL     1      -8.997   4.301  71.313  1.00  0.00    -0.122 C  
HETATM   13  O   UNL     1      -7.670   4.561  70.802  1.00  0.00    -0.052 OA 
HETATM   14  C   UNL     1      -7.806   4.998  69.432  1.00  0.00    -0.075 C  
HETATM   15  H   UNL     1      -9.857   1.912  69.201  1.00  0.00     0.000 HD 
HETATM   16  C   UNL     1      -9.135   4.455  68.914  1.00  0.00    -0.124 C  
HETATM   17  H   UNL     1      -9.751   3.254  67.468  1.00  0.00     0.000 HD 
HETATM   18  C   UNL     1      -9.721   3.695  70.100  1.00  0.00    -0.118 C  
HETATM   19  O   UNL     1      -8.923   3.592  67.790  1.00  0.00    -0.114 OA 
HETATM   20  O   UNL     1      -9.410   2.287  69.951  1.00  0.00    -0.119 OA 
BRANCH  14  21
HETATM   21  C   UNL     1      -7.734   6.530  69.349  1.00  0.00    -0.101 C  
BRANCH  21  22
HETATM   22  O   UNL     1      -6.957   6.949  68.233  1.00  0.00    -0.074 OA 
BRANCH  22  23
HETATM   23  P   UNL     1      -7.648   7.882  67.137  1.00  0.00    -0.102 P  
HETATM   24  O   UNL     1      -6.747   8.697  66.271  1.00  0.00    -0.067 OA 
HETATM   25  O   UNL     1      -8.405   6.799  66.220  1.00  0.00    -0.114 OA 
BRANCH  23  26
HETATM   26  O   UNL     1      -8.850   8.631  67.838  1.00  0.00    -0.136 OA 
BRANCH  26  27
HETATM   27  P   UNL     1     -10.346   8.627  67.323  1.00  0.00    -0.261 P  
HETATM   28  O   UNL     1     -11.056   9.697  68.289  1.00  0.00    -0.168 OA 
HETATM   29  O   UNL     1     -11.098   7.340  67.366  1.00  0.00    -0.214 OA 
BRANCH  27  30
HETATM   30  O   UNL     1     -10.362   9.364  65.899  1.00  0.00    -0.191 OA 
BRANCH  30  31
HETATM   31  C   UNL     1      -9.821  10.672  65.748  1.00  0.00    -0.241 C  
BRANCH  31  32
HETATM   32  C   UNL     1     -10.883  11.751  65.555  1.00  0.00    -0.297 C  
HETATM   33  O   UNL     1     -10.600  12.915  66.354  1.00  0.00    -0.266 OA 
HETATM   34  C   UNL     1     -11.438  13.938  65.784  1.00  0.00    -0.321 C  
HETATM   35  H   UNL     1     -11.902  11.811  62.443  1.00  0.00     0.000 HD 
HETATM   36  C   UNL     1     -11.360  13.724  64.264  1.00  0.00    -0.326 C  
HETATM   37  C   UNL     1     -10.947  12.257  64.118  1.00  0.00    -0.363 C  
HETATM   38  H   UNL     1     -12.545  13.842  62.644  1.00  0.00     0.000 HD 
HETATM   39  O   UNL     1     -12.593  13.975  63.583  1.00  0.00    -0.818 OA 
HETATM   40  O   UNL     1     -11.862  11.496  63.338  1.00  0.00    -0.346 OA 
BRANCH  34  41
HETATM   41  N   UNL     1     -10.994  15.253  66.201  1.00  0.00    -0.325 NA 
HETATM   42  C   UNL     1     -10.502  16.262  65.422  1.00  0.00    -0.343 A  
HETATM   43  N   UNL     1     -10.237  17.344  66.129  1.00  0.00    -0.412 NA 
HETATM   44  C   UNL     1     -10.549  17.003  67.429  1.00  0.00    -0.289 A  
HETATM   45  C   UNL     1     -10.501  17.715  68.639  1.00  0.00    -0.317 A  
HETATM   46  N   UNL     1     -10.128  19.048  68.723  1.00  0.00    -0.455 NA 
HETATM   47  N   UNL     1     -10.834  17.069  69.781  1.00  0.00    -0.082 NA 
HETATM   48  H1  UNL     1     -10.093  19.565  69.602  1.00  0.00     0.000 HD 
HETATM   49  C   UNL     1     -11.241  15.783  69.698  1.00  0.00    -0.319 A  
HETATM   50  H2  UNL     1     -10.728  19.573  68.086  1.00  0.00     0.000 HD 
HETATM   51  N   UNL     1     -11.379  15.013  68.594  1.00  0.00    -0.281 NA 
HETATM   52  C   UNL     1     -10.997  15.694  67.498  1.00  0.00    -0.309 A  
ENDBRANCH  34  41
ENDBRANCH  31  32
ENDBRANCH  30  31
ENDBRANCH  27  30
ENDBRANCH  26  27
ENDBRANCH  23  26
ENDBRANCH  22  23
ENDBRANCH  21  22
ENDBRANCH  14  21
ENDBRANCH   8  12
ENDBRANCH   4   6
TORSDOF 11
ENDMDL
MODEL       84
REMARK 921   NORMALIZED FREE ENERGY PREDICTED BY IDOCK:   -6.47 KCAL/MOL
REMARK 922        TOTAL FREE ENERGY PREDICTED BY IDOCK:  -12.83 KCAL/MOL
REMARK 923 INTER-LIGAND FREE ENERGY PREDICTED BY IDOCK:  -11.64 KCAL/MOL
REMARK 924 INTRA-LIGAND FREE ENERGY PREDICTED BY IDOCK:   -1.19 KCAL/MOL
REMARK 927      BINDING AFFINITY PREDICTED BY RF-SCORE:    0.00 PKD
ROOT
HETATM    1  N   UNL     1     -12.360   5.652  72.814  1.00  0.00    -0.464 N  
HETATM    2  H1  UNL     1     -12.688   4.955  72.144  1.00  0.00     0.000 HD 
HETATM    3  H2  UNL     1     -13.026   6.095  73.447  1.00  0.00     0.000 HD 
HETATM    4  C   UNL     1     -11.054   5.994  72.871  1.00  0.00    -0.255 C  
HETATM    5  O   UNL     1     -10.659   6.834  73.679  1.00  0.00    -0.314 OA 
ENDROOT
BRANCH   4   6
HETATM    6  C   UNL     1     -10.147   5.321  71.914  1.00  0.00    -0.252 C  
HETATM    7  C   UNL     1      -9.355   6.121  71.177  1.00  0.00    -0.164 C  
HETATM    8  N   UNL     1      -8.403   5.648  70.277  1.00  0.00    -0.110 NA 
HETATM    9  C   UNL     1     -10.047   3.824  71.809  1.00  0.00    -0.174 C  
HETATM   10  C   UNL     1      -8.383   4.271  70.026  1.00  0.00    -0.061 C  
HETATM   11  C   UNL     1      -9.123   3.380  70.702  1.00  0.00    -0.185 C  
BRANCH   8  12
HETATM   12  C   UNL     1      -7.320   6.475  69.701  1.00  0.00    -0.084 C  
HETATM   13  O   UNL     1      -7.794   7.835  69.571  1.00  0.00    -0.106 OA 
HETATM   14  C   UNL     1      -8.399   7.965  68.265  1.00  0.00    -0.124 C  
HETATM   15  H   UNL     1      -5.168   6.483  67.195  1.00  0.00     0.000 HD 
HETATM   16  C   UNL     1      -7.790   6.885  67.375  1.00  0.00    -0.111 C  
HETATM   17  H   UNL     1      -6.742   6.804  65.699  1.00  0.00     0.000 HD 
HETATM   18  C   UNL     1      -6.813   6.150  68.287  1.00  0.00    -0.074 C  
HETATM   19  O   UNL     1      -7.121   7.476  66.254  1.00  0.00    -0.067 OA 
HETATM   20  O   UNL     1      -5.482   6.683  68.070  1.00  0.00    -0.010 OA 
BRANCH  14  21
HETATM   21  C   UNL     1      -9.927   7.838  68.370  1.00  0.00    -0.178 C  
BRANCH  21  22
HETATM   22  O   UNL     1     -10.481   8.902  69.134  1.00  0.00    -0.224 OA 
BRANCH  22  23
HETATM   23  P   UNL     1     -10.881  10.250  68.377  1.00  0.00    -0.240 P  
HETATM   24  O   UNL     1     -12.176  10.886  68.757  1.00  0.00    -0.518 OA 
HETATM   25  O   UNL     1      -9.679  11.230  68.806  1.00  0.00    -0.205 OA 
BRANCH  23  26
HETATM   26  O   UNL     1     -10.605  10.031  66.836  1.00  0.00    -0.236 OA 
BRANCH  26  27
HETATM   27  P   UNL     1     -10.151  11.160  65.826  1.00  0.00    -0.272 P  
HETATM   28  O   UNL     1      -9.562  10.316  64.592  1.00  0.00    -0.264 OA 
HETATM   29  O   UNL     1      -9.132  12.145  66.288  1.00  0.00    -0.206 OA 
BRANCH  27  30
HETATM   30  O   UNL     1     -11.481  11.812  65.211  1.00  0.00    -0.284 OA 
BRANCH  30  31
HETATM   31  C   UNL     1     -12.395  12.524  66.038  1.00  0.00    -0.006 C  
BRANCH  31  32
HETATM   32  C   UNL     1     -12.273  14.039  65.915  1.00  0.00    -0.456 C  
HETATM   33  O   UNL     1     -11.425  14.583  66.946  1.00  0.00    -0.340 OA 
HETATM   34  C   UNL     1     -11.112  15.907  66.473  1.00  0.00    -0.028 C  
HETATM   35  H   UNL     1     -12.210  14.934  62.765  1.00  0.00     0.000 HD 
HETATM   36  C   UNL     1     -10.878  15.752  64.962  1.00  0.00    -0.443 C  
HETATM   37  C   UNL     1     -11.632  14.470  64.600  1.00  0.00    -0.408 C  
HETATM   38  H   UNL     1     -11.213  16.763  63.256  1.00  0.00     0.000 HD 
HETATM   39  O   UNL     1     -11.357  16.858  64.190  1.00  0.00    -1.208 OA 
HETATM   40  O   UNL     1     -12.609  14.666  63.585  1.00  0.00    -0.773 OA 
BRANCH  34  41
HETATM   41  N   UNL     1      -9.965  16.443  67.178  1.00  0.00    -0.254 NA 
HETATM   42  C   UNL     1      -8.855  15.774  67.613  1.00  0.00    -0.175 A  
HETATM   43  N   UNL     1      -7.984  16.586  68.180  1.00  0.00    -0.159 NA 
HETATM   44  C   UNL     1      -8.575  17.832  68.131  1.00  0.00    -0.262 A  
HETATM   45  C   UNL     1      -8.155  19.104  68.555  1.00  0.00    -0.359 A  
HETATM   46  N   UNL     1      -6.911  19.346  69.118  1.00  0.00    -0.328 NA 
HETATM   47  N   UNL     1      -9.007  20.146  68.407  1.00  0.00    -0.078 NA 
HETATM   48  H1  UNL     1      -6.606  20.270  69.425  1.00  0.00     0.000 HD 
HETATM   49  C   UNL     1     -10.201  19.923  67.818  1.00  0.00    -0.429 A  
HETATM   50  H2  UNL     1      -6.209  18.996  68.465  1.00  0.00     0.000 HD 
HETATM   51  N   UNL     1     -10.694  18.763  67.325  1.00  0.00    -0.446 NA 
HETATM   52  C   UNL     1      -9.823  17.758  67.535  1.00  0.00    -0.304 A  
ENDBRANCH  34  41
ENDBRANCH  31  32
ENDBRANCH  30  31
ENDBRANCH  27  30
ENDBRANCH  26  27
ENDBRANCH  23  26
ENDBRANCH  22  23
ENDBRANCH  21  22
ENDBRANCH  14  21
ENDBRANCH   8  12
ENDBRANCH   4   6
TORSDOF 11
ENDMDL
MODEL       85
REMARK 921   NORMALIZED FREE ENERGY PREDICTED BY IDOCK:   -6.43 KCAL/MOL
REMARK 922        TOTAL FREE ENERGY PREDICTED BY IDOCK:  -12.77 KCAL/MOL
REMARK 923 INTER-LIGAND FREE ENERGY PREDICTED BY IDOCK:  -10.64 KCAL/MOL
REMARK 924 INTRA-LIGAND FREE ENERGY PREDICTED BY IDOCK:   -2.13 KCAL/MOL
REMARK 927      BINDING AFFINITY PREDICTED BY RF-SCORE:    0.00 PKD
ROOT
HETATM    1  N   UNL     1      -6.377   4.191  73.929  1.00  0.00    -0.039 N  
HETATM    2  H1  UNL     1      -6.641   3.241  73.665  1.00  0.00     0.000 HD 
HETATM    3  H2  UNL     1      -5.630   4.336  74.608  1.00  0.00     0.000 HD 
HETATM    4  C   UNL     1      -7.005   5.258  73.387  1.00  0.00    -0.080 C  
HETATM    5  O   UNL     1      -6.686   6.404  73.705  1.00  0.00    -0.073 OA 
ENDROOT
BRANCH   4   6
HETATM    6  C   UNL     1      -8.088   4.972  72.419  1.00  0.00    -0.109 C  
HETATM    7  C   UNL     1      -9.225   5.675  72.569  1.00  0.00    -0.142 C  
HETATM    8  N   UNL     1     -10.315   5.573  71.708  1.00  0.00    -0.209 NA 
HETATM    9  C   UNL     1      -7.919   4.008  71.276  1.00  0.00    -0.071 C  
HETATM   10  C   UNL     1     -10.269   4.575  70.727  1.00  0.00    -0.094 C  
HETATM   11  C   UNL     1      -9.188   3.819  70.484  1.00  0.00    -0.210 C  
BRANCH   8  12
HETATM   12  C   UNL     1     -11.431   6.543  71.661  1.00  0.00    -0.297 C  
HETATM   13  O   UNL     1     -11.719   6.853  70.279  1.00  0.00    -0.330 OA 
HETATM   14  C   UNL     1     -10.902   7.986  69.906  1.00  0.00    -0.217 C  
HETATM   15  H   UNL     1     -12.384   9.408  72.998  1.00  0.00     0.000 HD 
HETATM   16  C   UNL     1     -10.555   8.736  71.189  1.00  0.00    -0.241 C  
HETATM   17  H   UNL     1     -10.836  10.546  71.936  1.00  0.00     0.000 HD 
HETATM   18  C   UNL     1     -11.234   7.930  72.293  1.00  0.00    -0.331 C  
HETATM   19  O   UNL     1     -11.053  10.079  71.137  1.00  0.00    -0.333 OA 
HETATM   20  O   UNL     1     -12.506   8.550  72.607  1.00  0.00    -0.370 OA 
BRANCH  14  21
HETATM   21  C   UNL     1      -9.649   7.516  69.151  1.00  0.00    -0.157 C  
BRANCH  21  22
HETATM   22  O   UNL     1      -9.502   8.209  67.917  1.00  0.00    -0.143 OA 
BRANCH  22  23
HETATM   23  P   UNL     1      -8.665   9.569  67.906  1.00  0.00    -0.118 P  
HETATM   24  O   UNL     1      -9.414  10.832  68.172  1.00  0.00    -0.150 OA 
HETATM   25  O   UNL     1      -7.629   9.320  69.111  1.00  0.00    -0.071 OA 
BRANCH  23  26
HETATM   26  O   UNL     1      -7.723   9.538  66.638  1.00  0.00    -0.097 OA 
BRANCH  26  27
HETATM   27  P   UNL     1      -8.220   9.465  65.139  1.00  0.00    -0.155 P  
HETATM   28  O   UNL     1      -8.158   7.891  64.821  1.00  0.00    -0.144 OA 
HETATM   29  O   UNL     1      -7.446  10.212  64.107  1.00  0.00    -0.137 OA 
BRANCH  27  30
HETATM   30  O   UNL     1      -9.796   9.767  65.143  1.00  0.00    -0.315 OA 
BRANCH  30  31
HETATM   31  C   UNL     1     -10.340  10.814  64.348  1.00  0.00    -0.335 C  
BRANCH  31  32
HETATM   32  C   UNL     1     -11.110  11.854  65.157  1.00  0.00    -0.305 C  
HETATM   33  O   UNL     1     -10.225  12.846  65.713  1.00  0.00    -0.280 OA 
HETATM   34  C   UNL     1     -11.106  13.919  66.095  1.00  0.00    -0.299 C  
HETATM   35  H   UNL     1     -13.999  12.489  63.753  1.00  0.00     0.000 HD 
HETATM   36  C   UNL     1     -12.137  14.020  64.959  1.00  0.00    -0.415 C  
HETATM   37  C   UNL     1     -12.105  12.636  64.307  1.00  0.00    -0.426 C  
HETATM   38  H   UNL     1     -14.094  14.403  64.706  1.00  0.00     0.000 HD 
HETATM   39  O   UNL     1     -13.457  14.341  65.408  1.00  0.00    -0.581 OA 
HETATM   40  O   UNL     1     -13.379  12.003  64.282  1.00  0.00    -0.709 OA 
BRANCH  34  41
HETATM   41  N   UNL     1     -10.360  15.144  66.302  1.00  0.00    -0.282 NA 
HETATM   42  C   UNL     1     -10.301  16.241  65.491  1.00  0.00    -0.338 A  
HETATM   43  N   UNL     1      -9.557  17.198  66.012  1.00  0.00    -0.494 NA 
HETATM   44  C   UNL     1      -9.093  16.677  67.203  1.00  0.00    -0.214 A  
HETATM   45  C   UNL     1      -8.273  17.200  68.217  1.00  0.00    -0.230 A  
HETATM   46  N   UNL     1      -7.774  18.494  68.201  1.00  0.00    -0.275 NA 
HETATM   47  N   UNL     1      -7.952  16.401  69.263  1.00  0.00    -0.202 NA 
HETATM   48  H1  UNL     1      -7.179  18.873  68.938  1.00  0.00     0.000 HD 
HETATM   49  C   UNL     1      -8.472  15.156  69.305  1.00  0.00    -0.209 A  
HETATM   50  H2  UNL     1      -8.570  19.125  68.098  1.00  0.00     0.000 HD 
HETATM   51  N   UNL     1      -9.310  14.562  68.423  1.00  0.00    -0.202 NA 
HETATM   52  C   UNL     1      -9.560  15.386  67.388  1.00  0.00    -0.210 A  
ENDBRANCH  34  41
ENDBRANCH  31  32
ENDBRANCH  30  31
ENDBRANCH  27  30
ENDBRANCH  26  27
ENDBRANCH  23  26
ENDBRANCH  22  23
ENDBRANCH  21  22
ENDBRANCH  14  21
ENDBRANCH   8  12
ENDBRANCH   4   6
TORSDOF 11
ENDMDL
MODEL       86
REMARK 921   NORMALIZED FREE ENERGY PREDICTED BY IDOCK:   -6.43 KCAL/MOL
REMARK 922        TOTAL FREE ENERGY PREDICTED BY IDOCK:  -12.77 KCAL/MOL
REMARK 923 INTER-LIGAND FREE ENERGY PREDICTED BY IDOCK:  -10.08 KCAL/MOL
REMARK 924 INTRA-LIGAND FREE ENERGY PREDICTED BY IDOCK:   -2.69 KCAL/MOL
REMARK 927      BINDING AFFINITY PREDICTED BY RF-SCORE:    0.00 PKD
ROOT
HETATM    1  N   UNL     1      -7.032   9.624  71.068  1.00  0.00    -0.030 N  
HETATM    2  H1  UNL     1      -7.639   9.157  70.393  1.00  0.00     0.000 HD 
HETATM    3  H2  UNL     1      -7.107   9.393  72.058  1.00  0.00     0.000 HD 
HETATM    4  C   UNL     1      -6.128  10.544  70.663  1.00  0.00    -0.089 C  
HETATM    5  O   UNL     1      -5.395  11.106  71.477  1.00  0.00    -0.296 OA 
ENDROOT
BRANCH   4   6
HETATM    6  C   UNL     1      -6.082  10.839  69.213  1.00  0.00    -0.045 C  
HETATM    7  C   UNL     1      -6.991  10.209  68.445  1.00  0.00    -0.066 C  
HETATM    8  N   UNL     1      -7.125  10.421  67.076  1.00  0.00    -0.089 NA 
HETATM    9  C   UNL     1      -5.132  11.842  68.620  1.00  0.00    -0.046 C  
HETATM   10  C   UNL     1      -6.161  11.221  66.452  1.00  0.00    -0.117 C  
HETATM   11  C   UNL     1      -5.214  11.901  67.115  1.00  0.00    -0.112 C  
BRANCH   8  12
HETATM   12  C   UNL     1      -8.295   9.994  66.278  1.00  0.00    -0.127 C  
HETATM   13  O   UNL     1      -8.633  11.047  65.348  1.00  0.00    -0.158 OA 
HETATM   14  C   UNL     1      -9.576  11.924  66.003  1.00  0.00    -0.235 C  
HETATM   15  H   UNL     1     -11.315   8.711  66.658  1.00  0.00     0.000 HD 
HETATM   16  C   UNL     1     -10.264  11.113  67.098  1.00  0.00    -0.200 C  
HETATM   17  H   UNL     1     -12.105  10.553  67.551  1.00  0.00     0.000 HD 
HETATM   18  C   UNL     1      -9.627   9.730  67.000  1.00  0.00    -0.172 C  
HETATM   19  O   UNL     1     -11.677  11.058  66.870  1.00  0.00    -0.336 OA 
HETATM   20  O   UNL     1     -10.491   8.874  66.212  1.00  0.00    -0.170 OA 
BRANCH  14  21
HETATM   21  C   UNL     1      -8.855  13.161  66.564  1.00  0.00     0.020 C  
BRANCH  21  22
HETATM   22  O   UNL     1      -9.745  13.979  67.313  1.00  0.00    -0.227 OA 
BRANCH  22  23
HETATM   23  P   UNL     1     -10.635  15.047  66.528  1.00  0.00    -0.318 P  
HETATM   24  O   UNL     1     -10.490  15.095  65.044  1.00  0.00    -0.398 OA 
HETATM   25  O   UNL     1     -12.123  14.554  66.886  1.00  0.00    -0.399 OA 
BRANCH  23  26
HETATM   26  O   UNL     1     -10.535  16.417  67.310  1.00  0.00    -0.299 OA 
BRANCH  26  27
HETATM   27  P   UNL     1      -9.693  16.651  68.628  1.00  0.00    -0.267 P  
HETATM   28  O   UNL     1     -10.193  18.098  69.116  1.00  0.00    -0.344 OA 
HETATM   29  O   UNL     1      -8.206  16.648  68.519  1.00  0.00    -0.209 OA 
BRANCH  27  30
HETATM   30  O   UNL     1     -10.284  15.671  69.752  1.00  0.00    -0.273 OA 
BRANCH  30  31
HETATM   31  C   UNL     1     -11.475  16.003  70.457  1.00  0.00    -0.389 C  
BRANCH  31  32
HETATM   32  C   UNL     1     -12.417  14.818  70.650  1.00  0.00    -0.345 C  
HETATM   33  O   UNL     1     -11.824  13.593  70.178  1.00  0.00    -0.299 OA 
HETATM   34  C   UNL     1     -12.641  12.564  70.766  1.00  0.00    -0.212 C  
HETATM   35  H   UNL     1     -14.100  15.136  73.441  1.00  0.00     0.000 HD 
HETATM   36  C   UNL     1     -12.936  13.048  72.195  1.00  0.00    -0.261 C  
HETATM   37  C   UNL     1     -12.744  14.565  72.118  1.00  0.00    -0.333 C  
HETATM   38  H   UNL     1     -14.435  13.024  73.535  1.00  0.00     0.000 HD 
HETATM   39  O   UNL     1     -14.252  12.724  72.652  1.00  0.00    -0.420 OA 
HETATM   40  O   UNL     1     -13.896  15.293  72.527  1.00  0.00    -0.476 OA 
BRANCH  34  41
HETATM   41  N   UNL     1     -11.962  11.285  70.723  1.00  0.00    -0.327 NA 
HETATM   42  C   UNL     1     -10.680  11.025  70.329  1.00  0.00     0.406 A  
HETATM   43  N   UNL     1     -10.375   9.749  70.462  1.00  0.00    -0.292 NA 
HETATM   44  C   UNL     1     -11.526   9.155  70.938  1.00  0.00    -0.296 A  
HETATM   45  C   UNL     1     -11.842   7.833  71.291  1.00  0.00    -0.295 A  
HETATM   46  N   UNL     1     -10.922   6.795  71.254  1.00  0.00    -0.242 NA 
HETATM   47  N   UNL     1     -13.107   7.556  71.687  1.00  0.00    -0.356 NA 
HETATM   48  H1  UNL     1     -11.152   5.835  71.511  1.00  0.00     0.000 HD 
HETATM   49  C   UNL     1     -13.994   8.572  71.767  1.00  0.00    -0.431 A  
HETATM   50  H2  UNL     1     -10.122   7.078  71.821  1.00  0.00     0.000 HD 
HETATM   51  N   UNL     1     -13.796   9.885  71.506  1.00  0.00    -0.122 NA 
HETATM   52  C   UNL     1     -12.536  10.093  71.081  1.00  0.00    -0.386 A  
ENDBRANCH  34  41
ENDBRANCH  31  32
ENDBRANCH  30  31
ENDBRANCH  27  30
ENDBRANCH  26  27
ENDBRANCH  23  26
ENDBRANCH  22  23
ENDBRANCH  21  22
ENDBRANCH  14  21
ENDBRANCH   8  12
ENDBRANCH   4   6
TORSDOF 11
ENDMDL
MODEL       87
REMARK 921   NORMALIZED FREE ENERGY PREDICTED BY IDOCK:   -6.43 KCAL/MOL
REMARK 922        TOTAL FREE ENERGY PREDICTED BY IDOCK:  -12.77 KCAL/MOL
REMARK 923 INTER-LIGAND FREE ENERGY PREDICTED BY IDOCK:   -9.99 KCAL/MOL
REMARK 924 INTRA-LIGAND FREE ENERGY PREDICTED BY IDOCK:   -2.78 KCAL/MOL
REMARK 927      BINDING AFFINITY PREDICTED BY RF-SCORE:    0.00 PKD
ROOT
HETATM    1  N   UNL     1     -11.150  15.929  65.291  1.00  0.00    -0.290 N  
HETATM    2  H1  UNL     1     -10.282  15.735  65.791  1.00  0.00     0.000 HD 
HETATM    3  H2  UNL     1     -11.557  16.864  65.331  1.00  0.00     0.000 HD 
HETATM    4  C   UNL     1     -11.767  14.962  64.577  1.00  0.00    -0.382 C  
HETATM    5  O   UNL     1     -12.815  15.196  63.974  1.00  0.00    -0.651 OA 
ENDROOT
BRANCH   4   6
HETATM    6  C   UNL     1     -11.129  13.626  64.576  1.00  0.00    -0.396 C  
HETATM    7  C   UNL     1     -10.381  13.319  65.652  1.00  0.00    -0.287 C  
HETATM    8  N   UNL     1      -9.765  12.084  65.836  1.00  0.00    -0.238 NA 
HETATM    9  C   UNL     1     -11.353  12.623  63.477  1.00  0.00    -0.527 C  
HETATM   10  C   UNL     1      -9.809  11.177  64.771  1.00  0.00    -0.277 C  
HETATM   11  C   UNL     1     -10.525  11.375  63.654  1.00  0.00    -0.472 C  
BRANCH   8  12
HETATM   12  C   UNL     1      -9.213  11.615  67.126  1.00  0.00    -0.176 C  
HETATM   13  O   UNL     1      -8.945  12.763  67.962  1.00  0.00    -0.183 OA 
HETATM   14  C   UNL     1      -7.590  13.190  67.697  1.00  0.00    -0.171 C  
HETATM   15  H   UNL     1      -6.889   9.600  68.329  1.00  0.00     0.000 HD 
HETATM   16  C   UNL     1      -6.833  11.983  67.151  1.00  0.00    -0.136 C  
HETATM   17  H   UNL     1      -5.255  10.904  67.660  1.00  0.00     0.000 HD 
HETATM   18  C   UNL     1      -7.871  10.865  67.129  1.00  0.00    -0.127 C  
HETATM   19  O   UNL     1      -5.726  11.656  68.000  1.00  0.00    -0.043 OA 
HETATM   20  O   UNL     1      -7.718  10.064  68.327  1.00  0.00    -0.084 OA 
BRANCH  14  21
HETATM   21  C   UNL     1      -7.584  14.372  66.714  1.00  0.00     0.680 C  
BRANCH  21  22
HETATM   22  O   UNL     1      -6.747  15.423  67.179  1.00  0.00    -0.271 OA 
BRANCH  22  23
HETATM   23  P   UNL     1      -7.371  16.887  67.314  1.00  0.00    -0.205 P  
HETATM   24  O   UNL     1      -6.680  17.841  68.228  1.00  0.00    -0.195 OA 
HETATM   25  O   UNL     1      -7.244  17.432  65.806  1.00  0.00    -0.368 OA 
BRANCH  23  26
HETATM   26  O   UNL     1      -8.934  16.724  67.483  1.00  0.00    -0.203 OA 
BRANCH  26  27
HETATM   27  P   UNL     1      -9.660  16.266  68.811  1.00  0.00    -0.261 P  
HETATM   28  O   UNL     1     -10.289  17.638  69.363  1.00  0.00    -0.273 OA 
HETATM   29  O   UNL     1      -8.835  15.632  69.878  1.00  0.00    -0.120 OA 
BRANCH  27  30
HETATM   30  O   UNL     1     -10.957  15.426  68.381  1.00  0.00    -0.259 OA 
BRANCH  30  31
HETATM   31  C   UNL     1     -12.248  15.777  68.867  1.00  0.00     0.031 C  
BRANCH  31  32
HETATM   32  C   UNL     1     -12.868  14.713  69.768  1.00  0.00     0.131 C  
HETATM   33  O   UNL     1     -12.420  13.392  69.407  1.00  0.00    -0.153 OA 
HETATM   34  C   UNL     1     -12.769  12.584  70.547  1.00  0.00     0.018 C  
HETATM   35  H   UNL     1     -13.144  15.828  72.835  1.00  0.00     0.000 HD 
HETATM   36  C   UNL     1     -12.442  13.453  71.773  1.00  0.00    -0.023 C  
HETATM   37  C   UNL     1     -12.472  14.884  71.231  1.00  0.00    -0.329 C  
HETATM   38  H   UNL     1     -13.168  13.833  73.608  1.00  0.00     0.000 HD 
HETATM   39  O   UNL     1     -13.369  13.297  72.851  1.00  0.00    -0.518 OA 
HETATM   40  O   UNL     1     -13.390  15.722  71.924  1.00  0.00    -0.470 OA 
BRANCH  34  41
HETATM   41  N   UNL     1     -12.045  11.329  70.524  1.00  0.00    -0.366 NA 
HETATM   42  C   UNL     1     -10.842  11.061  69.935  1.00  0.00    -0.077 A  
HETATM   43  N   UNL     1     -10.456   9.819  70.151  1.00  0.00    -0.266 NA 
HETATM   44  C   UNL     1     -11.474   9.254  70.891  1.00  0.00    -0.303 A  
HETATM   45  C   UNL     1     -11.658   7.974  71.441  1.00  0.00    -0.267 A  
HETATM   46  N   UNL     1     -10.709   6.966  71.353  1.00  0.00    -0.220 NA 
HETATM   47  N   UNL     1     -12.818   7.709  72.087  1.00  0.00    -0.192 NA 
HETATM   48  H1  UNL     1     -10.842   6.036  71.752  1.00  0.00     0.000 HD 
HETATM   49  C   UNL     1     -13.725   8.702  72.213  1.00  0.00    -0.395 A  
HETATM   50  H2  UNL     1      -9.836   7.336  71.731  1.00  0.00     0.000 HD 
HETATM   51  N   UNL     1     -13.641   9.980  71.777  1.00  0.00    -0.290 NA 
HETATM   52  C   UNL     1     -12.488  10.172  71.110  1.00  0.00    -0.387 A  
ENDBRANCH  34  41
ENDBRANCH  31  32
ENDBRANCH  30  31
ENDBRANCH  27  30
ENDBRANCH  26  27
ENDBRANCH  23  26
ENDBRANCH  22  23
ENDBRANCH  21  22
ENDBRANCH  14  21
ENDBRANCH   8  12
ENDBRANCH   4   6
TORSDOF 11
ENDMDL
MODEL       88
REMARK 921   NORMALIZED FREE ENERGY PREDICTED BY IDOCK:   -6.41 KCAL/MOL
REMARK 922        TOTAL FREE ENERGY PREDICTED BY IDOCK:  -12.74 KCAL/MOL
REMARK 923 INTER-LIGAND FREE ENERGY PREDICTED BY IDOCK:  -10.94 KCAL/MOL
REMARK 924 INTRA-LIGAND FREE ENERGY PREDICTED BY IDOCK:   -1.80 KCAL/MOL
REMARK 927      BINDING AFFINITY PREDICTED BY RF-SCORE:    0.00 PKD
ROOT
HETATM    1  N   UNL     1     -13.315  14.972  70.818  1.00  0.00    -0.628 N  
HETATM    2  H1  UNL     1     -13.106  14.882  69.824  1.00  0.00     0.000 HD 
HETATM    3  H2  UNL     1     -13.644  15.865  71.186  1.00  0.00     0.000 HD 
HETATM    4  C   UNL     1     -13.162  13.922  71.654  1.00  0.00    -0.370 C  
HETATM    5  O   UNL     1     -13.414  14.030  72.854  1.00  0.00    -0.647 OA 
ENDROOT
BRANCH   4   6
HETATM    6  C   UNL     1     -12.668  12.661  71.055  1.00  0.00    -0.316 C  
HETATM    7  C   UNL     1     -12.913  11.533  71.747  1.00  0.00    -0.394 C  
HETATM    8  N   UNL     1     -12.572  10.261  71.295  1.00  0.00    -0.380 NA 
HETATM    9  C   UNL     1     -11.994  12.613  69.711  1.00  0.00    -0.365 C  
HETATM   10  C   UNL     1     -11.801  10.177  70.129  1.00  0.00    -0.222 C  
HETATM   11  C   UNL     1     -11.501  11.232  69.358  1.00  0.00    -0.370 C  
BRANCH   8  12
HETATM   12  C   UNL     1     -13.101   9.004  71.870  1.00  0.00    -0.400 C  
HETATM   13  O   UNL     1     -12.306   8.652  73.024  1.00  0.00    -0.198 OA 
HETATM   14  C   UNL     1     -11.216   7.820  72.567  1.00  0.00    -0.363 C  
HETATM   15  H   UNL     1     -13.999   5.958  70.963  1.00  0.00     0.000 HD 
HETATM   16  C   UNL     1     -11.655   7.180  71.252  1.00  0.00    -0.294 C  
HETATM   17  H   UNL     1     -11.931   5.354  70.545  1.00  0.00     0.000 HD 
HETATM   18  C   UNL     1     -13.061   7.726  71.018  1.00  0.00    -0.003 C  
HETATM   19  O   UNL     1     -11.657   5.752  71.364  1.00  0.00    -0.141 OA 
HETATM   20  O   UNL     1     -14.024   6.750  71.489  1.00  0.00    -0.192 OA 
BRANCH  14  21
HETATM   21  C   UNL     1      -9.936   8.656  72.406  1.00  0.00    -0.249 C  
BRANCH  21  22
HETATM   22  O   UNL     1      -8.774   7.855  72.579  1.00  0.00    -0.125 OA 
BRANCH  22  23
HETATM   23  P   UNL     1      -7.621   7.944  71.478  1.00  0.00    -0.095 P  
HETATM   24  O   UNL     1      -6.291   7.371  71.836  1.00  0.00    -0.040 OA 
HETATM   25  O   UNL     1      -8.252   7.076  70.280  1.00  0.00    -0.124 OA 
BRANCH  23  26
HETATM   26  O   UNL     1      -7.643   9.408  70.883  1.00  0.00    -0.216 OA 
BRANCH  26  27
HETATM   27  P   UNL     1      -6.372  10.331  70.698  1.00  0.00     0.046 P  
HETATM   28  O   UNL     1      -5.717   9.766  69.344  1.00  0.00    -0.034 OA 
HETATM   29  O   UNL     1      -5.349  10.340  71.781  1.00  0.00    -0.201 OA 
BRANCH  27  30
HETATM   30  O   UNL     1      -6.897  11.783  70.261  1.00  0.00     0.065 OA 
BRANCH  30  31
HETATM   31  C   UNL     1      -6.065  12.667  69.518  1.00  0.00    -0.119 C  
BRANCH  31  32
HETATM   32  C   UNL     1      -6.834  13.541  68.532  1.00  0.00    -0.099 C  
HETATM   33  O   UNL     1      -7.549  12.742  67.569  1.00  0.00    -0.140 OA 
HETATM   34  C   UNL     1      -8.491  13.663  66.987  1.00  0.00    -0.125 C  
HETATM   35  H   UNL     1      -8.037  16.187  70.042  1.00  0.00     0.000 HD 
HETATM   36  C   UNL     1      -9.003  14.514  68.161  1.00  0.00    -0.182 C  
HETATM   37  C   UNL     1      -7.898  14.394  69.214  1.00  0.00     0.030 C  
HETATM   38  H   UNL     1      -9.550  16.410  68.545  1.00  0.00     0.000 HD 
HETATM   39  O   UNL     1      -9.235  15.884  67.820  1.00  0.00    -0.200 OA 
HETATM   40  O   UNL     1      -7.375  15.655  69.617  1.00  0.00    -0.203 OA 
BRANCH  34  41
HETATM   41  N   UNL     1      -9.544  12.948  66.296  1.00  0.00    -0.263 NA 
HETATM   42  C   UNL     1      -9.784  11.603  66.287  1.00  0.00    -0.218 A  
HETATM   43  N   UNL     1     -10.859  11.300  65.586  1.00  0.00    -0.220 NA 
HETATM   44  C   UNL     1     -11.316  12.507  65.097  1.00  0.00    -0.313 A  
HETATM   45  C   UNL     1     -12.417  12.858  64.300  1.00  0.00    -0.349 A  
HETATM   46  N   UNL     1     -13.360  11.941  63.859  1.00  0.00    -0.528 NA 
HETATM   47  N   UNL     1     -12.568  14.155  63.941  1.00  0.00    -0.776 NA 
HETATM   48  H1  UNL     1     -14.160  12.195  63.280  1.00  0.00     0.000 HD 
HETATM   49  C   UNL     1     -11.677  15.058  64.405  1.00  0.00    -0.312 A  
HETATM   50  H2  UNL     1     -13.722  11.458  64.682  1.00  0.00     0.000 HD 
HETATM   51  N   UNL     1     -10.614  14.853  65.217  1.00  0.00    -0.369 NA 
HETATM   52  C   UNL     1     -10.492  13.544  65.506  1.00  0.00    -0.299 A  
ENDBRANCH  34  41
ENDBRANCH  31  32
ENDBRANCH  30  31
ENDBRANCH  27  30
ENDBRANCH  26  27
ENDBRANCH  23  26
ENDBRANCH  22  23
ENDBRANCH  21  22
ENDBRANCH  14  21
ENDBRANCH   8  12
ENDBRANCH   4   6
TORSDOF 11
ENDMDL
MODEL       89
REMARK 921   NORMALIZED FREE ENERGY PREDICTED BY IDOCK:   -6.41 KCAL/MOL
REMARK 922        TOTAL FREE ENERGY PREDICTED BY IDOCK:  -12.74 KCAL/MOL
REMARK 923 INTER-LIGAND FREE ENERGY PREDICTED BY IDOCK:  -10.43 KCAL/MOL
REMARK 924 INTRA-LIGAND FREE ENERGY PREDICTED BY IDOCK:   -2.30 KCAL/MOL
REMARK 927      BINDING AFFINITY PREDICTED BY RF-SCORE:    0.00 PKD
ROOT
HETATM    1  N   UNL     1     -14.101  14.253  71.381  1.00  0.00    -0.300 N  
HETATM    2  H1  UNL     1     -14.214  13.360  70.899  1.00  0.00     0.000 HD 
HETATM    3  H2  UNL     1     -14.841  14.590  71.996  1.00  0.00     0.000 HD 
HETATM    4  C   UNL     1     -12.983  14.993  71.212  1.00  0.00    -0.377 C  
HETATM    5  O   UNL     1     -12.848  16.070  71.792  1.00  0.00    -0.444 OA 
ENDROOT
BRANCH   4   6
HETATM    6  C   UNL     1     -11.958  14.449  70.293  1.00  0.00    -0.388 C  
HETATM    7  C   UNL     1     -10.935  15.268  69.985  1.00  0.00    -0.288 C  
HETATM    8  N   UNL     1      -9.857  14.891  69.188  1.00  0.00    -0.218 NA 
HETATM    9  C   UNL     1     -11.997  13.034  69.783  1.00  0.00    -0.377 C  
HETATM   10  C   UNL     1      -9.928  13.642  68.558  1.00  0.00    -0.208 C  
HETATM   11  C   UNL     1     -10.896  12.744  68.793  1.00  0.00    -0.270 C  
BRANCH   8  12
HETATM   12  C   UNL     1      -8.589  15.646  69.093  1.00  0.00    -0.251 C  
HETATM   13  O   UNL     1      -8.892  17.029  68.806  1.00  0.00    -0.263 OA 
HETATM   14  C   UNL     1      -8.927  17.180  67.369  1.00  0.00    -0.220 C  
HETATM   15  H   UNL     1      -5.629  15.497  67.635  1.00  0.00     0.000 HD 
HETATM   16  C   UNL     1      -8.082  16.057  66.775  1.00  0.00    -0.267 C  
HETATM   17  H   UNL     1      -6.467  15.894  65.646  1.00  0.00     0.000 HD 
HETATM   18  C   UNL     1      -7.587  15.275  67.988  1.00  0.00    -0.125 C  
HETATM   19  O   UNL     1      -6.993  16.594  66.015  1.00  0.00     0.015 OA 
HETATM   20  O   UNL     1      -6.249  15.726  68.318  1.00  0.00    -0.103 OA 
BRANCH  14  21
HETATM   21  C   UNL     1     -10.378  17.145  66.863  1.00  0.00    -0.308 C  
BRANCH  21  22
HETATM   22  O   UNL     1     -10.441  16.694  65.515  1.00  0.00    -0.509 OA 
BRANCH  22  23
HETATM   23  P   UNL     1     -11.517  15.576  65.140  1.00  0.00    -0.009 P  
HETATM   24  O   UNL     1     -12.654  15.380  66.085  1.00  0.00     0.836 OA 
HETATM   25  O   UNL     1     -12.094  16.137  63.747  1.00  0.00    -0.946 OA 
BRANCH  23  26
HETATM   26  O   UNL     1     -10.725  14.287  64.682  1.00  0.00    -0.412 OA 
BRANCH  26  27
HETATM   27  P   UNL     1     -11.340  12.835  64.572  1.00  0.00    -0.387 P  
HETATM   28  O   UNL     1     -12.423  12.997  63.395  1.00  0.00    -0.710 OA 
HETATM   29  O   UNL     1     -11.999  12.259  65.779  1.00  0.00    -0.521 OA 
BRANCH  27  30
HETATM   30  O   UNL     1     -10.226  11.894  63.904  1.00  0.00    -0.324 OA 
BRANCH  30  31
HETATM   31  C   UNL     1     -10.102  10.527  64.284  1.00  0.00    -0.310 C  
BRANCH  31  32
HETATM   32  C   UNL     1      -8.818  10.224  65.049  1.00  0.00    -0.187 C  
HETATM   33  O   UNL     1      -8.975  10.475  66.459  1.00  0.00    -0.152 OA 
HETATM   34  C   UNL     1      -7.855   9.796  67.058  1.00  0.00    -0.102 C  
HETATM   35  H   UNL     1      -7.305   7.619  63.763  1.00  0.00     0.000 HD 
HETATM   36  C   UNL     1      -7.722   8.474  66.285  1.00  0.00    -0.094 C  
HETATM   37  C   UNL     1      -8.409   8.758  64.946  1.00  0.00    -0.170 C  
HETATM   38  H   UNL     1      -6.286   7.242  65.606  1.00  0.00     0.000 HD 
HETATM   39  O   UNL     1      -6.368   8.059  66.084  1.00  0.00    -0.045 OA 
HETATM   40  O   UNL     1      -7.560   8.532  63.827  1.00  0.00    -0.115 OA 
BRANCH  34  41
HETATM   41  N   UNL     1      -8.071   9.610  68.479  1.00  0.00    -0.103 NA 
HETATM   42  C   UNL     1      -7.401  10.195  69.517  1.00  0.00    -0.123 A  
HETATM   43  N   UNL     1      -7.892   9.830  70.685  1.00  0.00    -0.288 NA 
HETATM   44  C   UNL     1      -8.908   8.946  70.383  1.00  0.00    -0.181 A  
HETATM   45  C   UNL     1      -9.813   8.226  71.180  1.00  0.00    -0.175 A  
HETATM   46  N   UNL     1      -9.864   8.334  72.562  1.00  0.00    -0.284 NA 
HETATM   47  N   UNL     1     -10.679   7.381  70.571  1.00  0.00    -0.229 NA 
HETATM   48  H1  UNL     1     -10.522   7.811  73.140  1.00  0.00     0.000 HD 
HETATM   49  C   UNL     1     -10.662   7.306  69.222  1.00  0.00    -0.198 A  
HETATM   50  H2  UNL     1      -9.984   9.323  72.785  1.00  0.00     0.000 HD 
HETATM   51  N   UNL     1      -9.880   7.984  68.350  1.00  0.00    -0.166 NA 
HETATM   52  C   UNL     1      -9.016   8.774  69.013  1.00  0.00    -0.137 A  
ENDBRANCH  34  41
ENDBRANCH  31  32
ENDBRANCH  30  31
ENDBRANCH  27  30
ENDBRANCH  26  27
ENDBRANCH  23  26
ENDBRANCH  22  23
ENDBRANCH  21  22
ENDBRANCH  14  21
ENDBRANCH   8  12
ENDBRANCH   4   6
TORSDOF 11
ENDMDL
MODEL       90
REMARK 921   NORMALIZED FREE ENERGY PREDICTED BY IDOCK:   -6.41 KCAL/MOL
REMARK 922        TOTAL FREE ENERGY PREDICTED BY IDOCK:  -12.73 KCAL/MOL
REMARK 923 INTER-LIGAND FREE ENERGY PREDICTED BY IDOCK:  -10.66 KCAL/MOL
REMARK 924 INTRA-LIGAND FREE ENERGY PREDICTED BY IDOCK:   -2.07 KCAL/MOL
REMARK 927      BINDING AFFINITY PREDICTED BY RF-SCORE:    0.00 PKD
ROOT
HETATM    1  N   UNL     1     -13.101  13.405  65.154  1.00  0.00    -0.684 N  
HETATM    2  H1  UNL     1     -12.733  13.842  66.000  1.00  0.00     0.000 HD 
HETATM    3  H2  UNL     1     -14.037  13.645  64.828  1.00  0.00     0.000 HD 
HETATM    4  C   UNL     1     -12.361  12.513  64.460  1.00  0.00    -0.467 C  
HETATM    5  O   UNL     1     -12.804  11.986  63.439  1.00  0.00    -0.760 OA 
ENDROOT
BRANCH   4   6
HETATM    6  C   UNL     1     -11.017  12.202  64.997  1.00  0.00    -0.355 C  
HETATM    7  C   UNL     1     -10.340  11.214  64.382  1.00  0.00    -0.344 C  
HETATM    8  N   UNL     1      -9.043  10.840  64.722  1.00  0.00    -0.200 NA 
HETATM    9  C   UNL     1     -10.392  12.986  66.118  1.00  0.00    -0.285 C  
HETATM   10  C   UNL     1      -8.481  11.428  65.861  1.00  0.00    -0.002 C  
HETATM   11  C   UNL     1      -9.060  12.423  66.548  1.00  0.00    -0.181 C  
BRANCH   8  12
HETATM   12  C   UNL     1      -8.173   9.993  63.875  1.00  0.00    -0.159 C  
HETATM   13  O   UNL     1      -8.709   8.650  63.857  1.00  0.00    -0.068 OA 
HETATM   14  C   UNL     1      -8.111   7.925  64.955  1.00  0.00    -0.144 C  
HETATM   15  H   UNL     1      -4.988   9.238  63.436  1.00  0.00     0.000 HD 
HETATM   16  C   UNL     1      -6.792   8.616  65.288  1.00  0.00    -0.071 C  
HETATM   17  H   UNL     1      -4.872   8.141  65.333  1.00  0.00     0.000 HD 
HETATM   18  C   UNL     1      -6.712   9.776  64.299  1.00  0.00    -0.120 C  
HETATM   19  O   UNL     1      -5.694   7.710  65.125  1.00  0.00    -0.036 OA 
HETATM   20  O   UNL     1      -5.892   9.372  63.174  1.00  0.00    -0.087 OA 
BRANCH  14  21
HETATM   21  C   UNL     1      -9.068   7.890  66.157  1.00  0.00    -0.163 C  
BRANCH  21  22
HETATM   22  O   UNL     1      -8.395   8.244  67.359  1.00  0.00    -0.123 OA 
BRANCH  22  23
HETATM   23  P   UNL     1      -7.884   7.071  68.315  1.00  0.00    -0.121 P  
HETATM   24  O   UNL     1      -8.059   5.671  67.828  1.00  0.00    -0.101 OA 
HETATM   25  O   UNL     1      -6.311   7.393  68.408  1.00  0.00    -0.037 OA 
BRANCH  23  26
HETATM   26  O   UNL     1      -8.383   7.397  69.778  1.00  0.00    -0.131 OA 
BRANCH  26  27
HETATM   27  P   UNL     1      -8.756   6.317  70.872  1.00  0.00    -0.136 P  
HETATM   28  O   UNL     1      -7.355   5.575  71.130  1.00  0.00    -0.079 OA 
HETATM   29  O   UNL     1      -9.800   5.308  70.532  1.00  0.00    -0.179 OA 
BRANCH  27  30
HETATM   30  O   UNL     1      -9.006   7.100  72.250  1.00  0.00    -0.131 OA 
BRANCH  30  31
HETATM   31  C   UNL     1     -10.086   6.744  73.106  1.00  0.00    -0.205 C  
BRANCH  31  32
HETATM   32  C   UNL     1     -11.334   7.596  72.896  1.00  0.00    -0.341 C  
HETATM   33  O   UNL     1     -10.999   8.903  72.390  1.00  0.00    -0.273 OA 
HETATM   34  C   UNL     1     -12.252   9.415  71.897  1.00  0.00    -0.368 C  
HETATM   35  H   UNL     1     -13.817   5.747  71.826  1.00  0.00     0.000 HD 
HETATM   36  C   UNL     1     -12.935   8.220  71.212  1.00  0.00    -0.150 C  
HETATM   37  C   UNL     1     -12.283   6.998  71.863  1.00  0.00    -0.327 C  
HETATM   38  H   UNL     1     -14.778   7.454  70.964  1.00  0.00     0.000 HD 
HETATM   39  O   UNL     1     -14.355   8.193  71.387  1.00  0.00    -0.407 OA 
HETATM   40  O   UNL     1     -13.226   6.120  72.469  1.00  0.00     0.176 OA 
BRANCH  34  41
HETATM   41  N   UNL     1     -12.031  10.536  71.007  1.00  0.00    -0.362 NA 
HETATM   42  C   UNL     1     -11.353  10.549  69.821  1.00  0.00    -0.300 A  
HETATM   43  N   UNL     1     -11.387  11.737  69.249  1.00  0.00    -0.269 NA 
HETATM   44  C   UNL     1     -12.098  12.532  70.124  1.00  0.00    -0.292 A  
HETATM   45  C   UNL     1     -12.486  13.882  70.086  1.00  0.00    -0.292 A  
HETATM   46  N   UNL     1     -12.222  14.719  69.012  1.00  0.00    -0.564 NA 
HETATM   47  N   UNL     1     -13.151  14.392  71.149  1.00  0.00    -0.345 NA 
HETATM   48  H1  UNL     1     -12.504  15.699  68.984  1.00  0.00     0.000 HD 
HETATM   49  C   UNL     1     -13.450  13.568  72.177  1.00  0.00    -0.537 A  
HETATM   50  H2  UNL     1     -12.599  14.271  68.177  1.00  0.00     0.000 HD 
HETATM   51  N   UNL     1     -13.178  12.249  72.305  1.00  0.00    -0.396 NA 
HETATM   52  C   UNL     1     -12.484  11.808  71.240  1.00  0.00    -0.246 A  
ENDBRANCH  34  41
ENDBRANCH  31  32
ENDBRANCH  30  31
ENDBRANCH  27  30
ENDBRANCH  26  27
ENDBRANCH  23  26
ENDBRANCH  22  23
ENDBRANCH  21  22
ENDBRANCH  14  21
ENDBRANCH   8  12
ENDBRANCH   4   6
TORSDOF 11
ENDMDL
MODEL       91
REMARK 921   NORMALIZED FREE ENERGY PREDICTED BY IDOCK:   -6.39 KCAL/MOL
REMARK 922        TOTAL FREE ENERGY PREDICTED BY IDOCK:  -12.71 KCAL/MOL
REMARK 923 INTER-LIGAND FREE ENERGY PREDICTED BY IDOCK:  -10.51 KCAL/MOL
REMARK 924 INTRA-LIGAND FREE ENERGY PREDICTED BY IDOCK:   -2.20 KCAL/MOL
REMARK 927      BINDING AFFINITY PREDICTED BY RF-SCORE:    0.00 PKD
ROOT
HETATM    1  N   UNL     1     -12.568  11.140  71.451  1.00  0.00    -0.388 N  
HETATM    2  H1  UNL     1     -13.018  10.641  72.219  1.00  0.00     0.000 HD 
HETATM    3  H2  UNL     1     -12.826  12.108  71.258  1.00  0.00     0.000 HD 
HETATM    4  C   UNL     1     -11.633  10.533  70.686  1.00  0.00    -0.352 C  
HETATM    5  O   UNL     1     -11.090  11.135  69.760  1.00  0.00    -0.251 OA 
ENDROOT
BRANCH   4   6
HETATM    6  C   UNL     1     -11.319   9.124  71.014  1.00  0.00    -0.377 C  
HETATM    7  C   UNL     1     -11.425   8.237  70.007  1.00  0.00     0.094 C  
HETATM    8  N   UNL     1     -11.106   6.887  70.130  1.00  0.00    -0.281 NA 
HETATM    9  C   UNL     1     -10.831   8.698  72.372  1.00  0.00    -0.312 C  
HETATM   10  C   UNL     1     -10.803   6.412  71.411  1.00  0.00    -0.253 C  
HETATM   11  C   UNL     1     -10.666   7.203  72.486  1.00  0.00    -0.285 C  
BRANCH   8  12
HETATM   12  C   UNL     1     -10.911   5.971  68.985  1.00  0.00    -0.339 C  
HETATM   13  O   UNL     1      -9.631   5.316  69.127  1.00  0.00    -0.125 OA 
HETATM   14  C   UNL     1      -8.644   6.135  68.460  1.00  0.00    -0.113 C  
HETATM   15  H   UNL     1     -11.105   5.925  65.688  1.00  0.00     0.000 HD 
HETATM   16  C   UNL     1      -9.381   6.974  67.419  1.00  0.00    -0.126 C  
HETATM   17  H   UNL     1      -9.346   7.216  65.456  1.00  0.00     0.000 HD 
HETATM   18  C   UNL     1     -10.843   6.562  67.567  1.00  0.00    -0.352 C  
HETATM   19  O   UNL     1      -8.887   6.693  66.104  1.00  0.00    -0.147 OA 
HETATM   20  O   UNL     1     -11.148   5.560  66.565  1.00  0.00    -0.179 OA 
BRANCH  14  21
HETATM   21  C   UNL     1      -7.893   7.005  69.480  1.00  0.00    -0.119 C  
BRANCH  21  22
HETATM   22  O   UNL     1      -8.020   8.387  69.169  1.00  0.00    -0.106 OA 
BRANCH  22  23
HETATM   23  P   UNL     1      -6.988   9.410  69.831  1.00  0.00    -0.096 P  
HETATM   24  O   UNL     1      -7.165   9.713  71.281  1.00  0.00    -0.329 OA 
HETATM   25  O   UNL     1      -5.593   8.637  69.632  1.00  0.00    -0.029 OA 
BRANCH  23  26
HETATM   26  O   UNL     1      -6.837  10.638  68.848  1.00  0.00    -0.057 OA 
BRANCH  26  27
HETATM   27  P   UNL     1      -6.985  10.566  67.275  1.00  0.00    -0.093 P  
HETATM   28  O   UNL     1      -6.318   9.147  66.921  1.00  0.00    -0.061 OA 
HETATM   29  O   UNL     1      -6.343  11.636  66.461  1.00  0.00    -0.112 OA 
BRANCH  27  30
HETATM   30  O   UNL     1      -8.538  10.320  66.953  1.00  0.00    -0.126 OA 
BRANCH  30  31
HETATM   31  C   UNL     1      -9.016  10.334  65.612  1.00  0.00    -0.172 C  
BRANCH  31  32
HETATM   32  C   UNL     1     -10.195  11.277  65.397  1.00  0.00    -0.270 C  
HETATM   33  O   UNL     1     -10.099  12.439  66.244  1.00  0.00    -0.231 OA 
HETATM   34  C   UNL     1     -11.033  13.369  65.662  1.00  0.00    -0.281 C  
HETATM   35  H   UNL     1     -11.069  11.319  62.241  1.00  0.00     0.000 HD 
HETATM   36  C   UNL     1     -10.858  13.219  64.142  1.00  0.00    -0.343 C  
HETATM   37  C   UNL     1     -10.256  11.822  63.974  1.00  0.00    -0.348 C  
HETATM   38  H   UNL     1     -11.973  13.245  62.469  1.00  0.00     0.000 HD 
HETATM   39  O   UNL     1     -12.081  13.338  63.408  1.00  0.00    -0.561 OA 
HETATM   40  O   UNL     1     -11.031  10.980  63.128  1.00  0.00    -0.072 OA 
BRANCH  34  41
HETATM   41  N   UNL     1     -10.779  14.713  66.138  1.00  0.00    -0.305 NA 
HETATM   42  C   UNL     1     -10.472  15.824  65.403  1.00  0.00    -0.414 A  
HETATM   43  N   UNL     1     -10.350  16.896  66.161  1.00  0.00    -0.331 NA 
HETATM   44  C   UNL     1     -10.561  16.447  67.448  1.00  0.00    -0.306 A  
HETATM   45  C   UNL     1     -10.580  17.096  68.694  1.00  0.00    -0.352 A  
HETATM   46  N   UNL     1     -10.409  18.465  68.841  1.00  0.00    -0.454 NA 
HETATM   47  N   UNL     1     -10.771  16.350  69.807  1.00  0.00    -0.334 NA 
HETATM   48  H1  UNL     1     -10.423  18.936  69.746  1.00  0.00     0.000 HD 
HETATM   49  C   UNL     1     -10.982  15.023  69.665  1.00  0.00    -0.279 A  
HETATM   50  H2  UNL     1     -11.104  18.923  68.250  1.00  0.00     0.000 HD 
HETATM   51  N   UNL     1     -11.040  14.297  68.524  1.00  0.00    -0.247 NA 
HETATM   52  C   UNL     1     -10.803  15.083  67.457  1.00  0.00    -0.297 A  
ENDBRANCH  34  41
ENDBRANCH  31  32
ENDBRANCH  30  31
ENDBRANCH  27  30
ENDBRANCH  26  27
ENDBRANCH  23  26
ENDBRANCH  22  23
ENDBRANCH  21  22
ENDBRANCH  14  21
ENDBRANCH   8  12
ENDBRANCH   4   6
TORSDOF 11
ENDMDL
MODEL       92
REMARK 921   NORMALIZED FREE ENERGY PREDICTED BY IDOCK:   -6.39 KCAL/MOL
REMARK 922        TOTAL FREE ENERGY PREDICTED BY IDOCK:  -12.70 KCAL/MOL
REMARK 923 INTER-LIGAND FREE ENERGY PREDICTED BY IDOCK:  -11.16 KCAL/MOL
REMARK 924 INTRA-LIGAND FREE ENERGY PREDICTED BY IDOCK:   -1.54 KCAL/MOL
REMARK 927      BINDING AFFINITY PREDICTED BY RF-SCORE:    0.00 PKD
ROOT
HETATM    1  N   UNL     1      -6.507  20.426  71.745  1.00  0.00    -0.637 N  
HETATM    2  H1  UNL     1      -7.149  21.011  71.209  1.00  0.00     0.000 HD 
HETATM    3  H2  UNL     1      -6.315  20.651  72.721  1.00  0.00     0.000 HD 
HETATM    4  C   UNL     1      -5.909  19.357  71.175  1.00  0.00    -0.078 C  
HETATM    5  O   UNL     1      -5.134  18.651  71.821  1.00  0.00    -0.588 OA 
ENDROOT
BRANCH   4   6
HETATM    6  C   UNL     1      -6.223  19.098  69.752  1.00  0.00    -0.276 C  
HETATM    7  C   UNL     1      -7.528  19.008  69.434  1.00  0.00    -0.051 C  
HETATM    8  N   UNL     1      -7.996  18.830  68.134  1.00  0.00    -0.281 NA 
HETATM    9  C   UNL     1      -5.161  19.014  68.690  1.00  0.00    -0.192 C  
HETATM   10  C   UNL     1      -7.045  18.585  67.136  1.00  0.00    -0.204 C  
HETATM   11  C   UNL     1      -5.721  18.654  67.336  1.00  0.00    -0.155 C  
BRANCH   8  12
HETATM   12  C   UNL     1      -9.400  19.042  67.720  1.00  0.00    -0.302 C  
HETATM   13  O   UNL     1     -10.215  17.991  68.287  1.00  0.00    -0.357 OA 
HETATM   14  C   UNL     1     -10.245  16.901  67.338  1.00  0.00    -0.298 C  
HETATM   15  H   UNL     1     -11.205  19.636  65.019  1.00  0.00     0.000 HD 
HETATM   16  C   UNL     1      -9.949  17.491  65.962  1.00  0.00    -0.218 C  
HETATM   17  H   UNL     1     -10.860  17.624  64.211  1.00  0.00     0.000 HD 
HETATM   18  C   UNL     1      -9.748  18.980  66.224  1.00  0.00    -0.354 C  
HETATM   19  O   UNL     1     -11.045  17.257  65.068  1.00  0.00    -0.614 OA 
HETATM   20  O   UNL     1     -10.989  19.674  65.944  1.00  0.00    -0.375 OA 
BRANCH  14  21
HETATM   21  C   UNL     1      -9.230  15.818  67.736  1.00  0.00    -0.197 C  
BRANCH  21  22
HETATM   22  O   UNL     1      -9.162  14.792  66.753  1.00  0.00    -0.233 OA 
BRANCH  22  23
HETATM   23  P   UNL     1     -10.282  13.653  66.768  1.00  0.00    -0.277 P  
HETATM   24  O   UNL     1     -11.655  14.043  66.334  1.00  0.00    -0.339 OA 
HETATM   25  O   UNL     1      -9.686  12.599  65.710  1.00  0.00    -0.247 OA 
BRANCH  23  26
HETATM   26  O   UNL     1     -10.149  12.872  68.135  1.00  0.00    -0.227 OA 
BRANCH  26  27
HETATM   27  P   UNL     1     -11.361  12.309  68.981  1.00  0.00    -0.284 P  
HETATM   28  O   UNL     1     -12.078  11.306  67.949  1.00  0.00    -0.634 OA 
HETATM   29  O   UNL     1     -12.360  13.282  69.506  1.00  0.00    -0.216 OA 
BRANCH  27  30
HETATM   30  O   UNL     1     -10.753  11.313  70.082  1.00  0.00     0.137 OA 
BRANCH  30  31
HETATM   31  C   UNL     1     -11.571  10.334  70.713  1.00  0.00    -0.355 C  
BRANCH  31  32
HETATM   32  C   UNL     1     -10.897   8.973  70.846  1.00  0.00    -0.258 C  
HETATM   33  O   UNL     1     -11.296   8.083  69.785  1.00  0.00    -0.062 OA 
HETATM   34  C   UNL     1     -10.317   7.028  69.832  1.00  0.00    -0.210 C  
HETATM   35  H   UNL     1      -7.837   9.312  71.961  1.00  0.00     0.000 HD 
HETATM   36  C   UNL     1      -8.976   7.733  70.098  1.00  0.00    -0.146 C  
HETATM   37  C   UNL     1      -9.378   9.060  70.746  1.00  0.00    -0.249 C  
HETATM   38  H   UNL     1      -7.270   7.429  71.117  1.00  0.00     0.000 HD 
HETATM   39  O   UNL     1      -8.099   6.994  70.953  1.00  0.00    -0.106 OA 
HETATM   40  O   UNL     1      -8.783   9.258  72.023  1.00  0.00    -0.244 OA 
BRANCH  34  41
HETATM   41  N   UNL     1     -10.329   6.265  68.600  1.00  0.00    -0.184 NA 
HETATM   42  C   UNL     1     -10.818   6.641  67.381  1.00  0.00    -0.363 A  
HETATM   43  N   UNL     1     -10.622   5.712  66.466  1.00  0.00    -0.277 NA 
HETATM   44  C   UNL     1     -10.002   4.678  67.136  1.00  0.00    -0.177 A  
HETATM   45  C   UNL     1      -9.526   3.422  66.723  1.00  0.00    -0.137 A  
HETATM   46  N   UNL     1      -9.572   2.987  65.406  1.00  0.00    -0.346 NA 
HETATM   47  N   UNL     1      -8.998   2.594  67.655  1.00  0.00    -0.145 NA 
HETATM   48  H1  UNL     1      -9.226   2.076  65.106  1.00  0.00     0.000 HD 
HETATM   49  C   UNL     1      -8.911   3.031  68.930  1.00  0.00    -0.129 A  
HETATM   50  H2  UNL     1      -9.102   3.692  64.837  1.00  0.00     0.000 HD 
HETATM   51  N   UNL     1      -9.283   4.230  69.436  1.00  0.00    -0.122 NA 
HETATM   52  C   UNL     1      -9.835   4.993  68.475  1.00  0.00    -0.151 A  
ENDBRANCH  34  41
ENDBRANCH  31  32
ENDBRANCH  30  31
ENDBRANCH  27  30
ENDBRANCH  26  27
ENDBRANCH  23  26
ENDBRANCH  22  23
ENDBRANCH  21  22
ENDBRANCH  14  21
ENDBRANCH   8  12
ENDBRANCH   4   6
TORSDOF 11
ENDMDL
MODEL       93
REMARK 921   NORMALIZED FREE ENERGY PREDICTED BY IDOCK:   -6.38 KCAL/MOL
REMARK 922        TOTAL FREE ENERGY PREDICTED BY IDOCK:  -12.68 KCAL/MOL
REMARK 923 INTER-LIGAND FREE ENERGY PREDICTED BY IDOCK:  -10.48 KCAL/MOL
REMARK 924 INTRA-LIGAND FREE ENERGY PREDICTED BY IDOCK:   -2.21 KCAL/MOL
REMARK 927      BINDING AFFINITY PREDICTED BY RF-SCORE:    0.00 PKD
ROOT
HETATM    1  N   UNL     1      -5.590   4.908  73.490  1.00  0.00    -0.016 N  
HETATM    2  H1  UNL     1      -5.849   3.923  73.559  1.00  0.00     0.000 HD 
HETATM    3  H2  UNL     1      -4.766   5.248  73.986  1.00  0.00     0.000 HD 
HETATM    4  C   UNL     1      -6.326   5.766  72.750  1.00  0.00    -0.061 C  
HETATM    5  O   UNL     1      -6.013   6.954  72.667  1.00  0.00    -0.042 OA 
ENDROOT
BRANCH   4   6
HETATM    6  C   UNL     1      -7.516   5.206  72.070  1.00  0.00    -0.092 C  
HETATM    7  C   UNL     1      -8.680   5.849  72.275  1.00  0.00    -0.128 C  
HETATM    8  N   UNL     1      -9.878   5.491  71.661  1.00  0.00    -0.168 NA 
HETATM    9  C   UNL     1      -7.435   4.030  71.135  1.00  0.00    -0.044 C  
HETATM   10  C   UNL     1      -9.889   4.309  70.912  1.00  0.00    -0.189 C  
HETATM   11  C   UNL     1      -8.790   3.591  70.638  1.00  0.00    -0.141 C  
BRANCH   8  12
HETATM   12  C   UNL     1     -11.080   6.352  71.619  1.00  0.00    -0.267 C  
HETATM   13  O   UNL     1     -11.461   6.550  70.239  1.00  0.00    -0.359 OA 
HETATM   14  C   UNL     1     -10.772   7.727  69.759  1.00  0.00    -0.236 C  
HETATM   15  H   UNL     1     -12.230   9.197  72.841  1.00  0.00     0.000 HD 
HETATM   16  C   UNL     1     -10.435   8.582  70.978  1.00  0.00    -0.212 C  
HETATM   17  H   UNL     1     -10.846  10.401  71.636  1.00  0.00     0.000 HD 
HETATM   18  C   UNL     1     -10.982   7.788  72.160  1.00  0.00    -0.266 C  
HETATM   19  O   UNL     1     -11.056   9.869  70.877  1.00  0.00    -0.319 OA 
HETATM   20  O   UNL     1     -12.290   8.309  72.506  1.00  0.00    -0.353 OA 
BRANCH  14  21
HETATM   21  C   UNL     1      -9.518   7.326  68.967  1.00  0.00    -0.147 C  
BRANCH  21  22
HETATM   22  O   UNL     1      -9.335   8.167  67.834  1.00  0.00    -0.134 OA 
BRANCH  22  23
HETATM   23  P   UNL     1      -8.233   9.320  67.917  1.00  0.00    -0.115 P  
HETATM   24  O   UNL     1      -8.673  10.648  68.433  1.00  0.00    -0.128 OA 
HETATM   25  O   UNL     1      -7.179   8.686  68.954  1.00  0.00    -0.074 OA 
BRANCH  23  26
HETATM   26  O   UNL     1      -7.423   9.302  66.560  1.00  0.00    -0.091 OA 
BRANCH  26  27
HETATM   27  P   UNL     1      -8.069   9.301  65.117  1.00  0.00    -0.141 P  
HETATM   28  O   UNL     1      -8.481   7.761  64.913  1.00  0.00    -0.112 OA 
HETATM   29  O   UNL     1      -7.226   9.747  63.971  1.00  0.00    -0.118 OA 
BRANCH  27  30
HETATM   30  O   UNL     1      -9.489  10.039  65.229  1.00  0.00    -0.219 OA 
BRANCH  30  31
HETATM   31  C   UNL     1      -9.590  11.453  65.097  1.00  0.00    -0.229 C  
BRANCH  31  32
HETATM   32  C   UNL     1     -10.911  12.018  65.607  1.00  0.00    -0.297 C  
HETATM   33  O   UNL     1     -10.759  12.620  66.907  1.00  0.00    -0.238 OA 
HETATM   34  C   UNL     1     -11.950  13.415  67.062  1.00  0.00    -0.379 C  
HETATM   35  H   UNL     1     -12.640  13.297  63.136  1.00  0.00     0.000 HD 
HETATM   36  C   UNL     1     -12.192  14.053  65.684  1.00  0.00    -0.442 C  
HETATM   37  C   UNL     1     -11.456  13.127  64.713  1.00  0.00    -0.323 C  
HETATM   38  H   UNL     1     -13.726  14.554  64.485  1.00  0.00     0.000 HD 
HETATM   39  O   UNL     1     -13.576  14.160  65.336  1.00  0.00    -0.568 OA 
HETATM   40  O   UNL     1     -12.301  12.606  63.693  1.00  0.00    -0.551 OA 
BRANCH  34  41
HETATM   41  N   UNL     1     -11.780  14.388  68.122  1.00  0.00    -0.330 NA 
HETATM   42  C   UNL     1     -11.279  15.655  68.030  1.00  0.00    -0.339 A  
HETATM   43  N   UNL     1     -11.311  16.282  69.190  1.00  0.00    -0.317 NA 
HETATM   44  C   UNL     1     -11.833  15.361  70.076  1.00  0.00    -0.343 A  
HETATM   45  C   UNL     1     -12.128  15.419  71.449  1.00  0.00    -0.373 A  
HETATM   46  N   UNL     1     -11.961  16.563  72.215  1.00  0.00    -0.620 NA 
HETATM   47  N   UNL     1     -12.597  14.303  72.055  1.00  0.00    -0.323 NA 
HETATM   48  H1  UNL     1     -12.176  16.605  73.211  1.00  0.00     0.000 HD 
HETATM   49  C   UNL     1     -12.803  13.200  71.303  1.00  0.00    -0.296 A  
HETATM   50  H2  UNL     1     -12.484  17.312  71.760  1.00  0.00     0.000 HD 
HETATM   51  N   UNL     1     -12.609  13.039  69.974  1.00  0.00    -0.006 NA 
HETATM   52  C   UNL     1     -12.106  14.164  69.434  1.00  0.00    -0.328 A  
ENDBRANCH  34  41
ENDBRANCH  31  32
ENDBRANCH  30  31
ENDBRANCH  27  30
ENDBRANCH  26  27
ENDBRANCH  23  26
ENDBRANCH  22  23
ENDBRANCH  21  22
ENDBRANCH  14  21
ENDBRANCH   8  12
ENDBRANCH   4   6
TORSDOF 11
ENDMDL
MODEL       94
REMARK 921   NORMALIZED FREE ENERGY PREDICTED BY IDOCK:   -6.36 KCAL/MOL
REMARK 922        TOTAL FREE ENERGY PREDICTED BY IDOCK:  -12.65 KCAL/MOL
REMARK 923 INTER-LIGAND FREE ENERGY PREDICTED BY IDOCK:  -10.55 KCAL/MOL
REMARK 924 INTRA-LIGAND FREE ENERGY PREDICTED BY IDOCK:   -2.10 KCAL/MOL
REMARK 927      BINDING AFFINITY PREDICTED BY RF-SCORE:    0.00 PKD
ROOT
HETATM    1  N   UNL     1     -11.414   4.947  65.355  1.00  0.00    -0.876 N  
HETATM    2  H1  UNL     1     -12.035   5.720  65.113  1.00  0.00     0.000 HD 
HETATM    3  H2  UNL     1     -11.432   4.093  64.798  1.00  0.00     0.000 HD 
HETATM    4  C   UNL     1     -10.569   5.042  66.405  1.00  0.00    -0.261 C  
HETATM    5  O   UNL     1      -9.820   4.110  66.697  1.00  0.00    -0.215 OA 
ENDROOT
BRANCH   4   6
HETATM    6  C   UNL     1     -10.608   6.305  67.177  1.00  0.00    -0.380 C  
HETATM    7  C   UNL     1     -10.944   6.202  68.476  1.00  0.00    -0.320 C  
HETATM    8  N   UNL     1     -10.966   7.282  69.355  1.00  0.00    -0.184 NA 
HETATM    9  C   UNL     1     -10.220   7.631  66.581  1.00  0.00    -0.272 C  
HETATM   10  C   UNL     1     -10.772   8.558  68.813  1.00  0.00    -0.054 C  
HETATM   11  C   UNL     1     -10.428   8.779  67.536  1.00  0.00    -0.340 C  
BRANCH   8  12
HETATM   12  C   UNL     1     -11.021   7.153  70.828  1.00  0.00    -0.252 C  
HETATM   13  O   UNL     1      -9.942   7.926  71.402  1.00  0.00    -0.170 OA 
HETATM   14  C   UNL     1      -8.791   7.059  71.508  1.00  0.00    -0.128 C  
HETATM   15  H   UNL     1     -11.261   4.853  73.185  1.00  0.00     0.000 HD 
HETATM   16  C   UNL     1      -9.308   5.624  71.554  1.00  0.00    -0.146 C  
HETATM   17  H   UNL     1      -9.238   4.092  72.803  1.00  0.00     0.000 HD 
HETATM   18  C   UNL     1     -10.824   5.765  71.458  1.00  0.00    -0.253 C  
HETATM   19  O   UNL     1      -8.915   4.986  72.775  1.00  0.00    -0.121 OA 
HETATM   20  O   UNL     1     -11.382   5.711  72.795  1.00  0.00    -0.289 OA 
BRANCH  14  21
HETATM   21  C   UNL     1      -7.834   7.293  70.329  1.00  0.00    -0.096 C  
BRANCH  21  22
HETATM   22  O   UNL     1      -7.752   8.675  70.001  1.00  0.00    -0.074 OA 
BRANCH  22  23
HETATM   23  P   UNL     1      -6.492   9.181  69.160  1.00  0.00    -0.042 P  
HETATM   24  O   UNL     1      -5.615  10.206  69.797  1.00  0.00    -0.037 OA 
HETATM   25  O   UNL     1      -5.653   7.820  68.985  1.00  0.00    -0.025 OA 
BRANCH  23  26
HETATM   26  O   UNL     1      -6.985   9.465  67.686  1.00  0.00    -0.079 OA 
BRANCH  26  27
HETATM   27  P   UNL     1      -7.123  10.899  67.035  1.00  0.00    -0.124 P  
HETATM   28  O   UNL     1      -8.038  10.617  65.745  1.00  0.00    -0.159 OA 
HETATM   29  O   UNL     1      -5.877  11.602  66.618  1.00  0.00    -0.147 OA 
BRANCH  27  30
HETATM   30  O   UNL     1      -8.093  11.760  67.979  1.00  0.00    -0.129 OA 
BRANCH  30  31
HETATM   31  C   UNL     1      -9.212  12.455  67.438  1.00  0.00    -0.184 C  
BRANCH  31  32
HETATM   32  C   UNL     1      -9.685  13.616  68.306  1.00  0.00    -0.231 C  
HETATM   33  O   UNL     1      -9.029  14.846  67.943  1.00  0.00    -0.171 OA 
HETATM   34  C   UNL     1      -9.838  15.865  68.561  1.00  0.00    -0.210 C  
HETATM   35  H   UNL     1     -12.877  13.317  68.979  1.00  0.00     0.000 HD 
HETATM   36  C   UNL     1     -11.291  15.406  68.357  1.00  0.00    -0.339 C  
HETATM   37  C   UNL     1     -11.176  13.894  68.147  1.00  0.00    -0.268 C  
HETATM   38  H   UNL     1     -13.046  15.419  69.339  1.00  0.00     0.000 HD 
HETATM   39  O   UNL     1     -12.148  15.703  69.464  1.00  0.00    -0.360 OA 
HETATM   40  O   UNL     1     -11.948  13.143  69.077  1.00  0.00    -0.311 OA 
BRANCH  34  41
HETATM   41  N   UNL     1      -9.559  17.161  67.977  1.00  0.00    -0.260 NA 
HETATM   42  C   UNL     1     -10.338  17.883  67.117  1.00  0.00    -0.367 A  
HETATM   43  N   UNL     1      -9.794  19.047  66.821  1.00  0.00    -0.324 NA 
HETATM   44  C   UNL     1      -8.594  19.062  67.503  1.00  0.00    -0.286 A  
HETATM   45  C   UNL     1      -7.569  20.017  67.609  1.00  0.00    -0.292 A  
HETATM   46  N   UNL     1      -7.627  21.265  67.008  1.00  0.00    -0.768 NA 
HETATM   47  N   UNL     1      -6.468  19.704  68.334  1.00  0.00    -0.247 NA 
HETATM   48  H1  UNL     1      -6.882  21.959  67.085  1.00  0.00     0.000 HD 
HETATM   49  C   UNL     1      -6.428  18.507  68.958  1.00  0.00    -0.252 A  
HETATM   50  H2  UNL     1      -8.491  21.712  67.317  1.00  0.00     0.000 HD 
HETATM   51  N   UNL     1      -7.367  17.533  68.974  1.00  0.00    -0.233 NA 
HETATM   52  C   UNL     1      -8.417  17.882  68.207  1.00  0.00    -0.278 A  
ENDBRANCH  34  41
ENDBRANCH  31  32
ENDBRANCH  30  31
ENDBRANCH  27  30
ENDBRANCH  26  27
ENDBRANCH  23  26
ENDBRANCH  22  23
ENDBRANCH  21  22
ENDBRANCH  14  21
ENDBRANCH   8  12
ENDBRANCH   4   6
TORSDOF 11
ENDMDL
MODEL       95
REMARK 921   NORMALIZED FREE ENERGY PREDICTED BY IDOCK:   -6.34 KCAL/MOL
REMARK 922        TOTAL FREE ENERGY PREDICTED BY IDOCK:  -12.62 KCAL/MOL
REMARK 923 INTER-LIGAND FREE ENERGY PREDICTED BY IDOCK:  -10.45 KCAL/MOL
REMARK 924 INTRA-LIGAND FREE ENERGY PREDICTED BY IDOCK:   -2.17 KCAL/MOL
REMARK 927      BINDING AFFINITY PREDICTED BY RF-SCORE:    0.00 PKD
ROOT
HETATM    1  N   UNL     1      -6.329   3.287  70.545  1.00  0.00    -0.026 N  
HETATM    2  H1  UNL     1      -7.121   2.646  70.583  1.00  0.00     0.000 HD 
HETATM    3  H2  UNL     1      -5.517   3.123  71.141  1.00  0.00     0.000 HD 
HETATM    4  C   UNL     1      -6.342   4.353  69.713  1.00  0.00    -0.028 C  
HETATM    5  O   UNL     1      -5.386   5.127  69.668  1.00  0.00    -0.003 OA 
ENDROOT
BRANCH   4   6
HETATM    6  C   UNL     1      -7.557   4.537  68.888  1.00  0.00    -0.060 C  
HETATM    7  C   UNL     1      -8.679   4.888  69.543  1.00  0.00    -0.086 C  
HETATM    8  N   UNL     1      -9.889   5.161  68.911  1.00  0.00    -0.159 NA 
HETATM    9  C   UNL     1      -7.542   4.419  67.388  1.00  0.00    -0.081 C  
HETATM   10  C   UNL     1      -9.968   4.908  67.537  1.00  0.00    -0.156 C  
HETATM   11  C   UNL     1      -8.916   4.560  66.782  1.00  0.00    -0.115 C  
BRANCH   8  12
HETATM   12  C   UNL     1     -11.030   5.844  69.559  1.00  0.00    -0.368 C  
HETATM   13  O   UNL     1     -11.320   7.057  68.830  1.00  0.00    -0.010 OA 
HETATM   14  C   UNL     1     -10.533   8.119  69.415  1.00  0.00    -0.220 C  
HETATM   15  H   UNL     1     -12.064   6.823  72.539  1.00  0.00     0.000 HD 
HETATM   16  C   UNL     1     -10.211   7.705  70.849  1.00  0.00    -0.199 C  
HETATM   17  H   UNL     1     -10.542   8.399  72.671  1.00  0.00     0.000 HD 
HETATM   18  C   UNL     1     -10.872   6.339  71.006  1.00  0.00    -0.271 C  
HETATM   19  O   UNL     1     -10.743   8.657  71.779  1.00  0.00    -0.269 OA 
HETATM   20  O   UNL     1     -12.161   6.517  71.645  1.00  0.00    -0.343 OA 
BRANCH  14  21
HETATM   21  C   UNL     1      -9.264   8.364  68.583  1.00  0.00    -0.143 C  
BRANCH  21  22
HETATM   22  O   UNL     1      -9.589   8.744  67.251  1.00  0.00    -0.151 OA 
BRANCH  22  23
HETATM   23  P   UNL     1      -9.439  10.280  66.844  1.00  0.00    -0.178 P  
HETATM   24  O   UNL     1      -8.671  11.160  67.772  1.00  0.00    -0.128 OA 
HETATM   25  O   UNL     1      -8.636  10.169  65.455  1.00  0.00    -0.141 OA 
BRANCH  23  26
HETATM   26  O   UNL     1     -10.859  10.789  66.373  1.00  0.00    -0.204 OA 
BRANCH  26  27
HETATM   27  P   UNL     1     -11.110  11.847  65.225  1.00  0.00    -0.242 P  
HETATM   28  O   UNL     1     -12.596  12.369  65.542  1.00  0.00    -0.616 OA 
HETATM   29  O   UNL     1     -11.036  11.379  63.812  1.00  0.00    -0.392 OA 
BRANCH  27  30
HETATM   30  O   UNL     1     -10.204  13.130  65.553  1.00  0.00    -0.287 OA 
BRANCH  30  31
HETATM   31  C   UNL     1     -10.633  14.438  65.191  1.00  0.00    -0.410 C  
BRANCH  31  32
HETATM   32  C   UNL     1     -10.785  15.379  66.382  1.00  0.00    -0.311 C  
HETATM   33  O   UNL     1     -11.755  14.881  67.324  1.00  0.00    -0.362 OA 
HETATM   34  C   UNL     1     -11.502  15.646  68.517  1.00  0.00    -0.375 C  
HETATM   35  H   UNL     1      -7.895  16.696  67.179  1.00  0.00     0.000 HD 
HETATM   36  C   UNL     1      -9.971  15.750  68.615  1.00  0.00    -0.208 C  
HETATM   37  C   UNL     1      -9.493  15.529  67.177  1.00  0.00    -0.215 C  
HETATM   38  H   UNL     1      -8.564  17.071  69.177  1.00  0.00     0.000 HD 
HETATM   39  O   UNL     1      -9.510  17.007  69.117  1.00  0.00    -0.217 OA 
HETATM   40  O   UNL     1      -8.699  16.603  66.684  1.00  0.00    -0.203 OA 
BRANCH  34  41
HETATM   41  N   UNL     1     -12.107  15.011  69.670  1.00  0.00    -0.311 NA 
HETATM   42  C   UNL     1     -12.776  15.603  70.704  1.00  0.00    -0.394 A  
HETATM   43  N   UNL     1     -13.237  14.715  71.563  1.00  0.00    -0.335 NA 
HETATM   44  C   UNL     1     -12.819  13.495  71.071  1.00  0.00    -0.267 A  
HETATM   45  C   UNL     1     -12.997  12.175  71.518  1.00  0.00    -0.295 A  
HETATM   46  N   UNL     1     -13.749  11.845  72.636  1.00  0.00    -0.306 NA 
HETATM   47  N   UNL     1     -12.405  11.174  70.824  1.00  0.00    -0.382 NA 
HETATM   48  H1  UNL     1     -13.878  10.886  72.960  1.00  0.00     0.000 HD 
HETATM   49  C   UNL     1     -11.710  11.487  69.710  1.00  0.00    -0.353 A  
HETATM   50  H2  UNL     1     -14.677  12.250  72.509  1.00  0.00     0.000 HD 
HETATM   51  N   UNL     1     -11.513  12.705  69.154  1.00  0.00    -0.288 NA 
HETATM   52  C   UNL     1     -12.089  13.661  69.906  1.00  0.00    -0.341 A  
ENDBRANCH  34  41
ENDBRANCH  31  32
ENDBRANCH  30  31
ENDBRANCH  27  30
ENDBRANCH  26  27
ENDBRANCH  23  26
ENDBRANCH  22  23
ENDBRANCH  21  22
ENDBRANCH  14  21
ENDBRANCH   8  12
ENDBRANCH   4   6
TORSDOF 11
ENDMDL
MODEL       96
REMARK 921   NORMALIZED FREE ENERGY PREDICTED BY IDOCK:   -6.34 KCAL/MOL
REMARK 922        TOTAL FREE ENERGY PREDICTED BY IDOCK:  -12.62 KCAL/MOL
REMARK 923 INTER-LIGAND FREE ENERGY PREDICTED BY IDOCK:  -10.88 KCAL/MOL
REMARK 924 INTRA-LIGAND FREE ENERGY PREDICTED BY IDOCK:   -1.73 KCAL/MOL
REMARK 927      BINDING AFFINITY PREDICTED BY RF-SCORE:    0.00 PKD
ROOT
HETATM    1  N   UNL     1     -12.070   6.700  69.719  1.00  0.00    -0.545 N  
HETATM    2  H1  UNL     1     -11.269   6.835  69.100  1.00  0.00     0.000 HD 
HETATM    3  H2  UNL     1     -12.989   6.512  69.320  1.00  0.00     0.000 HD 
HETATM    4  C   UNL     1     -11.925   6.768  71.061  1.00  0.00    -0.379 C  
HETATM    5  O   UNL     1     -12.890   6.606  71.807  1.00  0.00    -0.335 OA 
ENDROOT
BRANCH   4   6
HETATM    6  C   UNL     1     -10.565   7.058  71.569  1.00  0.00    -0.232 C  
HETATM    7  C   UNL     1      -9.566   6.311  71.065  1.00  0.00    -0.175 C  
HETATM    8  N   UNL     1      -8.224   6.496  71.390  1.00  0.00    -0.119 NA 
HETATM    9  C   UNL     1     -10.284   8.174  72.538  1.00  0.00    -0.383 C  
HETATM   10  C   UNL     1      -7.928   7.412  72.406  1.00  0.00    -0.100 C  
HETATM   11  C   UNL     1      -8.841   8.213  72.976  1.00  0.00    -0.316 C  
BRANCH   8  12
HETATM   12  C   UNL     1      -7.097   5.915  70.628  1.00  0.00    -0.074 C  
HETATM   13  O   UNL     1      -6.385   6.983  69.964  1.00  0.00    -0.034 OA 
HETATM   14  C   UNL     1      -6.987   7.167  68.663  1.00  0.00    -0.082 C  
HETATM   15  H   UNL     1      -6.446   3.500  68.472  1.00  0.00     0.000 HD 
HETATM   16  C   UNL     1      -7.669   5.854  68.290  1.00  0.00    -0.101 C  
HETATM   17  H   UNL     1      -7.533   4.503  66.851  1.00  0.00     0.000 HD 
HETATM   18  C   UNL     1      -7.403   4.938  69.481  1.00  0.00    -0.056 C  
HETATM   19  O   UNL     1      -7.109   5.321  67.083  1.00  0.00    -0.067 OA 
HETATM   20  O   UNL     1      -6.257   4.104  69.181  1.00  0.00    -0.026 OA 
BRANCH  14  21
HETATM   21  C   UNL     1      -7.974   8.345  68.692  1.00  0.00    -0.121 C  
BRANCH  21  22
HETATM   22  O   UNL     1      -9.300   7.911  68.414  1.00  0.00    -0.141 OA 
BRANCH  22  23
HETATM   23  P   UNL     1      -9.912   8.219  66.972  1.00  0.00    -0.308 P  
HETATM   24  O   UNL     1      -8.983   8.140  65.807  1.00  0.00    -0.169 OA 
HETATM   25  O   UNL     1     -11.014   7.055  66.833  1.00  0.00    -0.371 OA 
BRANCH  23  26
HETATM   26  O   UNL     1     -10.805   9.516  67.099  1.00  0.00    -0.224 OA 
BRANCH  26  27
HETATM   27  P   UNL     1     -10.403  10.951  66.569  1.00  0.00    -0.236 P  
HETATM   28  O   UNL     1     -11.762  11.472  65.889  1.00  0.00    -0.276 OA 
HETATM   29  O   UNL     1      -9.285  11.047  65.587  1.00  0.00    -0.198 OA 
BRANCH  27  30
HETATM   30  O   UNL     1     -10.254  11.908  67.848  1.00  0.00    -0.185 OA 
BRANCH  30  31
HETATM   31  C   UNL     1     -11.313  12.775  68.238  1.00  0.00    -0.296 C  
BRANCH  31  32
HETATM   32  C   UNL     1     -10.866  13.903  69.162  1.00  0.00    -0.189 C  
HETATM   33  O   UNL     1     -10.193  14.946  68.430  1.00  0.00    -0.221 OA 
HETATM   34  C   UNL     1     -10.187  16.061  69.342  1.00  0.00    -0.270 C  
HETATM   35  H   UNL     1     -13.080  14.396  71.525  1.00  0.00     0.000 HD 
HETATM   36  C   UNL     1     -11.570  16.040  70.014  1.00  0.00    -0.312 C  
HETATM   37  C   UNL     1     -12.038  14.592  69.854  1.00  0.00    -0.336 C  
HETATM   38  H   UNL     1     -12.399  16.404  71.809  1.00  0.00     0.000 HD 
HETATM   39  O   UNL     1     -11.545  16.417  71.394  1.00  0.00    -0.418 OA 
HETATM   40  O   UNL     1     -12.351  13.967  71.094  1.00  0.00    -0.338 OA 
BRANCH  34  41
HETATM   41  N   UNL     1      -9.911  17.296  68.638  1.00  0.00    -0.298 NA 
HETATM   42  C   UNL     1     -10.785  18.085  67.945  1.00  0.00    -0.313 A  
HETATM   43  N   UNL     1     -10.199  19.164  67.465  1.00  0.00    -0.376 NA 
HETATM   44  C   UNL     1      -8.877  19.048  67.844  1.00  0.00    -0.301 A  
HETATM   45  C   UNL     1      -7.754  19.871  67.653  1.00  0.00    -0.291 A  
HETATM   46  N   UNL     1      -7.812  21.100  67.012  1.00  0.00    -0.685 NA 
HETATM   47  N   UNL     1      -6.556  19.444  68.116  1.00  0.00    -0.240 NA 
HETATM   48  H1  UNL     1      -6.997  21.697  66.874  1.00  0.00     0.000 HD 
HETATM   49  C   UNL     1      -6.503  18.269  68.780  1.00  0.00    -0.225 A  
HETATM   50  H2  UNL     1      -8.520  21.659  67.490  1.00  0.00     0.000 HD 
HETATM   51  N   UNL     1      -7.516  17.420  69.071  1.00  0.00    -0.225 NA 
HETATM   52  C   UNL     1      -8.672  17.876  68.553  1.00  0.00    -0.292 A  
ENDBRANCH  34  41
ENDBRANCH  31  32
ENDBRANCH  30  31
ENDBRANCH  27  30
ENDBRANCH  26  27
ENDBRANCH  23  26
ENDBRANCH  22  23
ENDBRANCH  21  22
ENDBRANCH  14  21
ENDBRANCH   8  12
ENDBRANCH   4   6
TORSDOF 11
ENDMDL
MODEL       97
REMARK 921   NORMALIZED FREE ENERGY PREDICTED BY IDOCK:   -6.33 KCAL/MOL
REMARK 922        TOTAL FREE ENERGY PREDICTED BY IDOCK:  -12.61 KCAL/MOL
REMARK 923 INTER-LIGAND FREE ENERGY PREDICTED BY IDOCK:  -10.67 KCAL/MOL
REMARK 924 INTRA-LIGAND FREE ENERGY PREDICTED BY IDOCK:   -1.94 KCAL/MOL
REMARK 927      BINDING AFFINITY PREDICTED BY RF-SCORE:    0.00 PKD
ROOT
HETATM    1  N   UNL     1     -13.518  15.398  71.455  1.00  0.00    -0.502 N  
HETATM    2  H1  UNL     1     -13.978  14.675  70.902  1.00  0.00     0.000 HD 
HETATM    3  H2  UNL     1     -14.048  15.906  72.162  1.00  0.00     0.000 HD 
HETATM    4  C   UNL     1     -12.213  15.691  71.260  1.00  0.00    -0.415 C  
HETATM    5  O   UNL     1     -11.658  16.564  71.927  1.00  0.00    -0.419 OA 
ENDROOT
BRANCH   4   6
HETATM    6  C   UNL     1     -11.509  14.924  70.208  1.00  0.00    -0.315 C  
HETATM    7  C   UNL     1     -10.188  15.152  70.084  1.00  0.00    -0.076 C  
HETATM    8  N   UNL     1      -9.368  14.470  69.188  1.00  0.00    -0.065 NA 
HETATM    9  C   UNL     1     -12.197  13.886  69.365  1.00  0.00    -0.338 C  
HETATM   10  C   UNL     1      -9.988  13.613  68.272  1.00  0.00    -0.236 C  
HETATM   11  C   UNL     1     -11.294  13.307  68.304  1.00  0.00    -0.335 C  
BRANCH   8  12
HETATM   12  C   UNL     1      -7.889  14.471  69.249  1.00  0.00    -0.023 C  
HETATM   13  O   UNL     1      -7.448  15.729  69.805  1.00  0.00    -0.159 OA 
HETATM   14  C   UNL     1      -7.265  16.653  68.708  1.00  0.00    -0.206 C  
HETATM   15  H   UNL     1      -5.255  13.838  67.360  1.00  0.00     0.000 HD 
HETATM   16  C   UNL     1      -7.024  15.821  67.452  1.00  0.00    -0.202 C  
HETATM   17  H   UNL     1      -5.594  15.605  66.103  1.00  0.00     0.000 HD 
HETATM   18  C   UNL     1      -7.095  14.375  67.936  1.00  0.00    -0.159 C  
HETATM   19  O   UNL     1      -5.743  16.123  66.886  1.00  0.00    -0.341 OA 
HETATM   20  O   UNL     1      -5.747  13.897  68.171  1.00  0.00    -0.103 OA 
BRANCH  14  21
HETATM   21  C   UNL     1      -8.491  17.570  68.571  1.00  0.00    -0.280 C  
BRANCH  21  22
HETATM   22  O   UNL     1      -8.472  18.271  67.334  1.00  0.00    -0.245 OA 
BRANCH  22  23
HETATM   23  P   UNL     1      -9.813  18.316  66.468  1.00  0.00    -0.361 P  
HETATM   24  O   UNL     1     -11.097  18.480  67.209  1.00  0.00    -0.260 OA 
HETATM   25  O   UNL     1      -9.569  19.621  65.561  1.00  0.00    -0.259 OA 
BRANCH  23  26
HETATM   26  O   UNL     1      -9.733  17.148  65.406  1.00  0.00    -0.425 OA 
BRANCH  26  27
HETATM   27  P   UNL     1     -10.779  15.969  65.272  1.00  0.00    -0.239 P  
HETATM   28  O   UNL     1     -11.652  16.412  63.997  1.00  0.00    -1.071 OA 
HETATM   29  O   UNL     1     -11.684  15.702  66.427  1.00  0.00     0.169 OA 
BRANCH  27  30
HETATM   30  O   UNL     1      -9.985  14.685  64.733  1.00  0.00    -0.247 OA 
BRANCH  30  31
HETATM   31  C   UNL     1     -10.628  13.419  64.628  1.00  0.00    -0.415 C  
BRANCH  31  32
HETATM   32  C   UNL     1      -9.667  12.239  64.724  1.00  0.00    -0.010 C  
HETATM   33  O   UNL     1      -9.761  11.587  66.006  1.00  0.00    -0.212 OA 
HETATM   34  C   UNL     1      -9.109  10.320  65.798  1.00  0.00    -0.170 C  
HETATM   35  H   UNL     1      -9.456  10.695  61.843  1.00  0.00     0.000 HD 
HETATM   36  C   UNL     1      -9.560   9.857  64.403  1.00  0.00    -0.189 C  
HETATM   37  C   UNL     1      -9.971  11.152  63.699  1.00  0.00    -0.363 C  
HETATM   38  H   UNL     1      -8.818   8.892  62.803  1.00  0.00     0.000 HD 
HETATM   39  O   UNL     1      -8.539   9.178  63.665  1.00  0.00    -0.200 OA 
HETATM   40  O   UNL     1      -9.266  11.372  62.482  1.00  0.00    -0.335 OA 
BRANCH  34  41
HETATM   41  N   UNL     1      -9.456   9.388  66.851  1.00  0.00    -0.149 NA 
HETATM   42  C   UNL     1     -10.327   8.336  66.792  1.00  0.00    -0.290 A  
HETATM   43  N   UNL     1     -10.368   7.668  67.929  1.00  0.00    -0.204 NA 
HETATM   44  C   UNL     1      -9.502   8.341  68.767  1.00  0.00    -0.148 A  
HETATM   45  C   UNL     1      -9.100   8.124  70.095  1.00  0.00    -0.147 A  
HETATM   46  N   UNL     1      -9.528   7.043  70.853  1.00  0.00    -0.161 NA 
HETATM   47  N   UNL     1      -8.254   9.013  70.667  1.00  0.00    -0.163 NA 
HETATM   48  H1  UNL     1      -9.235   6.886  71.818  1.00  0.00     0.000 HD 
HETATM   49  C   UNL     1      -7.800  10.042  69.918  1.00  0.00    -0.174 A  
HETATM   50  H2  UNL     1      -9.307   6.197  70.327  1.00  0.00     0.000 HD 
HETATM   51  N   UNL     1      -8.071  10.325  68.623  1.00  0.00    -0.107 NA 
HETATM   52  C   UNL     1      -8.945   9.433  68.122  1.00  0.00    -0.128 A  
ENDBRANCH  34  41
ENDBRANCH  31  32
ENDBRANCH  30  31
ENDBRANCH  27  30
ENDBRANCH  26  27
ENDBRANCH  23  26
ENDBRANCH  22  23
ENDBRANCH  21  22
ENDBRANCH  14  21
ENDBRANCH   8  12
ENDBRANCH   4   6
TORSDOF 11
ENDMDL
MODEL       98
REMARK 921   NORMALIZED FREE ENERGY PREDICTED BY IDOCK:   -6.33 KCAL/MOL
REMARK 922        TOTAL FREE ENERGY PREDICTED BY IDOCK:  -12.61 KCAL/MOL
REMARK 923 INTER-LIGAND FREE ENERGY PREDICTED BY IDOCK:  -11.19 KCAL/MOL
REMARK 924 INTRA-LIGAND FREE ENERGY PREDICTED BY IDOCK:   -1.42 KCAL/MOL
REMARK 927      BINDING AFFINITY PREDICTED BY RF-SCORE:    0.00 PKD
ROOT
HETATM    1  N   UNL     1      -8.845   4.682  64.991  1.00  0.00    -0.145 N  
HETATM    2  H1  UNL     1      -7.961   4.762  65.494  1.00  0.00     0.000 HD 
HETATM    3  H2  UNL     1      -8.862   4.803  63.978  1.00  0.00     0.000 HD 
HETATM    4  C   UNL     1      -9.994   4.416  65.651  1.00  0.00    -0.236 C  
HETATM    5  O   UNL     1     -11.061   4.320  65.044  1.00  0.00    -0.226 OA 
ENDROOT
BRANCH   4   6
HETATM    6  C   UNL     1      -9.897   4.265  67.121  1.00  0.00    -0.205 C  
HETATM    7  C   UNL     1     -10.400   5.271  67.860  1.00  0.00    -0.125 C  
HETATM    8  N   UNL     1     -10.445   5.259  69.252  1.00  0.00    -0.223 NA 
HETATM    9  C   UNL     1      -9.342   3.029  67.773  1.00  0.00    -0.251 C  
HETATM   10  C   UNL     1      -9.796   4.206  69.907  1.00  0.00    -0.162 C  
HETATM   11  C   UNL     1      -9.265   3.149  69.274  1.00  0.00    -0.218 C  
BRANCH   8  12
HETATM   12  C   UNL     1     -11.262   6.186  70.066  1.00  0.00    -0.401 C  
HETATM   13  O   UNL     1     -11.034   7.535  69.600  1.00  0.00    -0.232 OA 
HETATM   14  C   UNL     1      -9.924   8.076  70.351  1.00  0.00    -0.188 C  
HETATM   15  H   UNL     1     -11.958   6.883  73.218  1.00  0.00     0.000 HD 
HETATM   16  C   UNL     1      -9.843   7.298  71.662  1.00  0.00    -0.165 C  
HETATM   17  H   UNL     1      -9.955   7.695  73.596  1.00  0.00     0.000 HD 
HETATM   18  C   UNL     1     -10.984   6.289  71.574  1.00  0.00    -0.271 C  
HETATM   19  O   UNL     1     -10.005   8.179  72.780  1.00  0.00    -0.272 OA 
HETATM   20  O   UNL     1     -12.130   6.819  72.285  1.00  0.00    -0.262 OA 
BRANCH  14  21
HETATM   21  C   UNL     1      -8.626   7.973  69.534  1.00  0.00    -0.136 C  
BRANCH  21  22
HETATM   22  O   UNL     1      -8.020   9.249  69.370  1.00  0.00    -0.090 OA 
BRANCH  22  23
HETATM   23  P   UNL     1      -8.751  10.321  68.439  1.00  0.00    -0.140 P  
HETATM   24  O   UNL     1     -10.173  10.641  68.756  1.00  0.00    -0.172 OA 
HETATM   25  O   UNL     1      -7.857  11.634  68.695  1.00  0.00    -0.137 OA 
BRANCH  23  26
HETATM   26  O   UNL     1      -8.405   9.964  66.939  1.00  0.00    -0.123 OA 
BRANCH  26  27
HETATM   27  P   UNL     1      -9.296   9.064  65.992  1.00  0.00    -0.243 P  
HETATM   28  O   UNL     1     -10.677   8.951  66.806  1.00  0.00    -0.198 OA 
HETATM   29  O   UNL     1      -8.802   7.697  65.657  1.00  0.00    -0.140 OA 
BRANCH  27  30
HETATM   30  O   UNL     1      -9.701   9.959  64.724  1.00  0.00    -0.309 OA 
BRANCH  30  31
HETATM   31  C   UNL     1      -9.663  11.380  64.793  1.00  0.00    -0.244 C  
BRANCH  31  32
HETATM   32  C   UNL     1     -10.889  11.989  65.465  1.00  0.00    -0.292 C  
HETATM   33  O   UNL     1     -10.515  12.844  66.564  1.00  0.00    -0.259 OA 
HETATM   34  C   UNL     1     -11.706  13.611  66.825  1.00  0.00    -0.392 C  
HETATM   35  H   UNL     1     -13.189  12.687  63.241  1.00  0.00     0.000 HD 
HETATM   36  C   UNL     1     -12.279  13.952  65.441  1.00  0.00    -0.444 C  
HETATM   37  C   UNL     1     -11.693  12.878  64.522  1.00  0.00    -0.365 C  
HETATM   38  H   UNL     1     -14.064  14.149  64.536  1.00  0.00     0.000 HD 
HETATM   39  O   UNL     1     -13.709  13.939  65.391  1.00  0.00    -0.352 OA 
HETATM   40  O   UNL     1     -12.689  12.134  63.829  1.00  0.00    -0.661 OA 
BRANCH  34  41
HETATM   41  N   UNL     1     -11.395  14.781  67.621  1.00  0.00    -0.327 NA 
HETATM   42  C   UNL     1     -11.724  15.026  68.925  1.00  0.00    -0.328 A  
HETATM   43  N   UNL     1     -11.239  16.177  69.346  1.00  0.00    -0.331 NA 
HETATM   44  C   UNL     1     -10.590  16.711  68.251  1.00  0.00    -0.338 A  
HETATM   45  C   UNL     1      -9.867  17.900  68.057  1.00  0.00    -0.320 A  
HETATM   46  N   UNL     1      -9.624  18.817  69.069  1.00  0.00    -0.295 NA 
HETATM   47  N   UNL     1      -9.383  18.166  66.821  1.00  0.00    -0.278 NA 
HETATM   48  H1  UNL     1      -9.099  19.680  68.928  1.00  0.00     0.000 HD 
HETATM   49  C   UNL     1      -9.579  17.255  65.843  1.00  0.00    -0.046 A  
HETATM   50  H2  UNL     1      -9.178  18.312  69.836  1.00  0.00     0.000 HD 
HETATM   51  N   UNL     1     -10.207  16.059  65.920  1.00  0.00    -0.343 NA 
HETATM   52  C   UNL     1     -10.700  15.868  67.158  1.00  0.00    -0.301 A  
ENDBRANCH  34  41
ENDBRANCH  31  32
ENDBRANCH  30  31
ENDBRANCH  27  30
ENDBRANCH  26  27
ENDBRANCH  23  26
ENDBRANCH  22  23
ENDBRANCH  21  22
ENDBRANCH  14  21
ENDBRANCH   8  12
ENDBRANCH   4   6
TORSDOF 11
ENDMDL
MODEL       99
REMARK 921   NORMALIZED FREE ENERGY PREDICTED BY IDOCK:   -6.33 KCAL/MOL
REMARK 922        TOTAL FREE ENERGY PREDICTED BY IDOCK:  -12.60 KCAL/MOL
REMARK 923 INTER-LIGAND FREE ENERGY PREDICTED BY IDOCK:  -10.63 KCAL/MOL
REMARK 924 INTRA-LIGAND FREE ENERGY PREDICTED BY IDOCK:   -1.97 KCAL/MOL
REMARK 927      BINDING AFFINITY PREDICTED BY RF-SCORE:    0.00 PKD
ROOT
HETATM    1  N   UNL     1      -6.392  19.200  64.864  1.00  0.00    -0.264 N  
HETATM    2  H1  UNL     1      -7.074  18.801  64.220  1.00  0.00     0.000 HD 
HETATM    3  H2  UNL     1      -5.448  19.407  64.536  1.00  0.00     0.000 HD 
HETATM    4  C   UNL     1      -6.724  19.459  66.149  1.00  0.00    -0.219 C  
HETATM    5  O   UNL     1      -5.900  19.941  66.927  1.00  0.00    -0.173 OA 
ENDROOT
BRANCH   4   6
HETATM    6  C   UNL     1      -8.105  19.121  66.560  1.00  0.00    -0.309 C  
HETATM    7  C   UNL     1      -8.268  17.954  67.211  1.00  0.00    -0.217 C  
HETATM    8  N   UNL     1      -9.488  17.518  67.720  1.00  0.00    -0.265 NA 
HETATM    9  C   UNL     1      -9.266  20.052  66.340  1.00  0.00    -0.453 C  
HETATM   10  C   UNL     1     -10.625  18.270  67.400  1.00  0.00    -0.401 C  
HETATM   11  C   UNL     1     -10.582  19.448  66.761  1.00  0.00    -0.574 C  
BRANCH   8  12
HETATM   12  C   UNL     1      -9.635  16.416  68.696  1.00  0.00    -0.240 C  
HETATM   13  O   UNL     1      -9.379  15.163  68.024  1.00  0.00    -0.184 OA 
HETATM   14  C   UNL     1     -10.637  14.681  67.501  1.00  0.00    -0.257 C  
HETATM   15  H   UNL     1     -11.729  15.302  70.994  1.00  0.00     0.000 HD 
HETATM   16  C   UNL     1     -11.747  15.315  68.336  1.00  0.00    -0.321 C  
HETATM   17  H   UNL     1     -13.221  14.700  69.501  1.00  0.00     0.000 HD 
HETATM   18  C   UNL     1     -11.008  16.184  69.349  1.00  0.00    -0.333 C  
HETATM   19  O   UNL     1     -12.531  14.305  68.982  1.00  0.00    -0.200 OA 
HETATM   20  O   UNL     1     -10.881  15.446  70.590  1.00  0.00    -0.319 OA 
BRANCH  14  21
HETATM   21  C   UNL     1     -10.763  15.027  66.009  1.00  0.00    -0.326 C  
BRANCH  21  22
HETATM   22  O   UNL     1     -10.547  13.880  65.196  1.00  0.00    -0.332 OA 
BRANCH  22  23
HETATM   23  P   UNL     1     -11.773  12.890  64.941  1.00  0.00    -0.400 P  
HETATM   24  O   UNL     1     -13.102  13.297  65.483  1.00  0.00    -0.529 OA 
HETATM   25  O   UNL     1     -11.852  12.879  63.334  1.00  0.00    -0.525 OA 
BRANCH  23  26
HETATM   26  O   UNL     1     -11.278  11.424  65.264  1.00  0.00    -0.198 OA 
BRANCH  26  27
HETATM   27  P   UNL     1     -10.952  10.874  66.710  1.00  0.00    -0.020 P  
HETATM   28  O   UNL     1     -10.869   9.287  66.476  1.00  0.00    -0.023 OA 
HETATM   29  O   UNL     1     -11.920  11.167  67.805  1.00  0.00    -0.630 OA 
BRANCH  27  30
HETATM   30  O   UNL     1      -9.431  11.267  67.039  1.00  0.00    -0.169 OA 
BRANCH  30  31
HETATM   31  C   UNL     1      -9.064  11.751  68.326  1.00  0.00    -0.187 C  
BRANCH  31  32
HETATM   32  C   UNL     1      -8.370  10.706  69.193  1.00  0.00    -0.135 C  
HETATM   33  O   UNL     1      -9.312  10.013  70.036  1.00  0.00    -0.217 OA 
HETATM   34  C   UNL     1      -8.588   8.849  70.478  1.00  0.00    -0.184 C  
HETATM   35  H   UNL     1      -5.929   9.282  67.539  1.00  0.00     0.000 HD 
HETATM   36  C   UNL     1      -7.803   8.368  69.247  1.00  0.00    -0.104 C  
HETATM   37  C   UNL     1      -7.694   9.616  68.367  1.00  0.00    -0.081 C  
HETATM   38  H   UNL     1      -6.021   7.553  68.797  1.00  0.00     0.000 HD 
HETATM   39  O   UNL     1      -6.507   7.850  69.558  1.00  0.00    -0.034 OA 
HETATM   40  O   UNL     1      -6.350   9.960  68.053  1.00  0.00    -0.054 OA 
BRANCH  34  41
HETATM   41  N   UNL     1      -9.498   7.851  71.003  1.00  0.00    -0.155 NA 
HETATM   42  C   UNL     1     -10.800   7.630  70.651  1.00  0.00    -0.237 A  
HETATM   43  N   UNL     1     -11.317   6.606  71.302  1.00  0.00    -0.283 NA 
HETATM   44  C   UNL     1     -10.307   6.165  72.132  1.00  0.00    -0.197 A  
HETATM   45  C   UNL     1     -10.224   5.112  73.057  1.00  0.00    -0.183 A  
HETATM   46  N   UNL     1     -11.255   4.211  73.279  1.00  0.00    -0.234 NA 
HETATM   47  N   UNL     1      -9.082   4.968  73.770  1.00  0.00    -0.116 NA 
HETATM   48  H1  UNL     1     -11.195   3.446  73.951  1.00  0.00     0.000 HD 
HETATM   49  C   UNL     1      -8.059   5.815  73.525  1.00  0.00    -0.112 A  
HETATM   50  H2  UNL     1     -11.502   3.804  72.377  1.00  0.00     0.000 HD 
HETATM   51  N   UNL     1      -8.000   6.827  72.628  1.00  0.00    -0.100 NA 
HETATM   52  C   UNL     1      -9.173   6.947  71.980  1.00  0.00    -0.140 A  
ENDBRANCH  34  41
ENDBRANCH  31  32
ENDBRANCH  30  31
ENDBRANCH  27  30
ENDBRANCH  26  27
ENDBRANCH  23  26
ENDBRANCH  22  23
ENDBRANCH  21  22
ENDBRANCH  14  21
ENDBRANCH   8  12
ENDBRANCH   4   6
TORSDOF 11
ENDMDL
MODEL      100
REMARK 921   NORMALIZED FREE ENERGY PREDICTED BY IDOCK:   -6.31 KCAL/MOL
REMARK 922        TOTAL FREE ENERGY PREDICTED BY IDOCK:  -12.57 KCAL/MOL
REMARK 923 INTER-LIGAND FREE ENERGY PREDICTED BY IDOCK:   -9.91 KCAL/MOL
REMARK 924 INTRA-LIGAND FREE ENERGY PREDICTED BY IDOCK:   -2.67 KCAL/MOL
REMARK 927      BINDING AFFINITY PREDICTED BY RF-SCORE:    0.00 PKD
ROOT
HETATM    1  N   UNL     1     -10.787  12.651  63.278  1.00  0.00    -0.626 N  
HETATM    2  H1  UNL     1      -9.860  12.974  63.554  1.00  0.00     0.000 HD 
HETATM    3  H2  UNL     1     -10.903  12.138  62.403  1.00  0.00     0.000 HD 
HETATM    4  C   UNL     1     -11.864  12.893  64.057  1.00  0.00    -0.443 C  
HETATM    5  O   UNL     1     -12.983  12.502  63.724  1.00  0.00    -0.733 OA 
ENDROOT
BRANCH   4   6
HETATM    6  C   UNL     1     -11.625  13.654  65.305  1.00  0.00    -0.334 C  
HETATM    7  C   UNL     1     -10.454  14.312  65.389  1.00  0.00    -0.365 C  
HETATM    8  N   UNL     1     -10.100  15.123  66.464  1.00  0.00    -0.260 NA 
HETATM    9  C   UNL     1     -12.653  13.761  66.397  1.00  0.00    -0.309 C  
HETATM   10  C   UNL     1     -10.951  15.126  67.575  1.00  0.00    -0.310 C  
HETATM   11  C   UNL     1     -12.143  14.512  67.602  1.00  0.00    -0.266 C  
BRANCH   8  12
HETATM   12  C   UNL     1      -8.981  16.091  66.442  1.00  0.00    -0.319 C  
HETATM   13  O   UNL     1      -7.738  15.361  66.343  1.00  0.00     0.115 OA 
HETATM   14  C   UNL     1      -7.286  15.082  67.687  1.00  0.00    -0.186 C  
HETATM   15  H   UNL     1      -7.854  18.730  68.078  1.00  0.00     0.000 HD 
HETATM   16  C   UNL     1      -7.920  16.124  68.604  1.00  0.00    -0.201 C  
HETATM   17  H   UNL     1      -7.305  17.541  69.839  1.00  0.00     0.000 HD 
HETATM   18  C   UNL     1      -8.757  16.991  67.668  1.00  0.00    -0.215 C  
HETATM   19  O   UNL     1      -6.909  16.892  69.268  1.00  0.00    -0.230 OA 
HETATM   20  O   UNL     1      -7.993  18.173  67.320  1.00  0.00    -0.216 OA 
BRANCH  14  21
HETATM   21  C   UNL     1      -7.663  13.648  68.091  1.00  0.00    -0.138 C  
BRANCH  21  22
HETATM   22  O   UNL     1      -7.646  12.776  66.967  1.00  0.00    -0.090 OA 
BRANCH  22  23
HETATM   23  P   UNL     1      -8.457  11.404  67.059  1.00  0.00    -0.169 P  
HETATM   24  O   UNL     1      -7.792  10.265  67.756  1.00  0.00    -0.100 OA 
HETATM   25  O   UNL     1      -9.747  11.848  67.911  1.00  0.00    -0.181 OA 
BRANCH  23  26
HETATM   26  O   UNL     1      -9.076  11.119  65.633  1.00  0.00    -0.205 OA 
BRANCH  26  27
HETATM   27  P   UNL     1      -8.555  10.022  64.620  1.00  0.00    -0.212 P  
HETATM   28  O   UNL     1      -6.960  10.208  64.685  1.00  0.00    -0.134 OA 
HETATM   29  O   UNL     1      -9.010  10.104  63.203  1.00  0.00    -0.199 OA 
BRANCH  27  30
HETATM   30  O   UNL     1      -8.776   8.591  65.312  1.00  0.00    -0.179 OA 
BRANCH  30  31
HETATM   31  C   UNL     1      -7.797   7.564  65.193  1.00  0.00    -0.122 C  
BRANCH  31  32
HETATM   32  C   UNL     1      -7.786   6.596  66.372  1.00  0.00    -0.104 C  
HETATM   33  O   UNL     1      -8.423   7.170  67.530  1.00  0.00    -0.122 OA 
HETATM   34  C   UNL     1      -8.668   6.039  68.387  1.00  0.00    -0.113 C  
HETATM   35  H   UNL     1      -8.206   3.519  65.331  1.00  0.00     0.000 HD 
HETATM   36  C   UNL     1      -9.126   4.912  67.447  1.00  0.00    -0.117 C  
HETATM   37  C   UNL     1      -8.562   5.315  66.083  1.00  0.00    -0.120 C  
HETATM   38  H   UNL     1      -8.939   2.920  67.250  1.00  0.00     0.000 HD 
HETATM   39  O   UNL     1      -8.656   3.617  67.831  1.00  0.00    -0.092 OA 
HETATM   40  O   UNL     1      -7.723   4.317  65.511  1.00  0.00    -0.084 OA 
BRANCH  34  41
HETATM   41  N   UNL     1      -9.645   6.371  69.404  1.00  0.00    -0.143 NA 
HETATM   42  C   UNL     1     -10.937   5.936  69.505  1.00  0.00    -0.368 A  
HETATM   43  N   UNL     1     -11.529   6.404  70.586  1.00  0.00    -0.356 NA 
HETATM   44  C   UNL     1     -10.580   7.201  71.194  1.00  0.00    -0.223 A  
HETATM   45  C   UNL     1     -10.589   7.961  72.375  1.00  0.00    -0.298 A  
HETATM   46  N   UNL     1     -11.669   8.003  73.245  1.00  0.00    -0.464 NA 
HETATM   47  N   UNL     1      -9.490   8.691  72.680  1.00  0.00    -0.270 NA 
HETATM   48  H1  UNL     1     -11.674   8.556  74.103  1.00  0.00     0.000 HD 
HETATM   49  C   UNL     1      -8.420   8.618  71.859  1.00  0.00    -0.143 A  
HETATM   50  H2  UNL     1     -11.889   7.041  73.502  1.00  0.00     0.000 HD 
HETATM   51  N   UNL     1      -8.273   7.886  70.730  1.00  0.00    -0.108 NA 
HETATM   52  C   UNL     1      -9.408   7.215  70.457  1.00  0.00    -0.158 A  
ENDBRANCH  34  41
ENDBRANCH  31  32
ENDBRANCH  30  31
ENDBRANCH  27  30
ENDBRANCH  26  27
ENDBRANCH  23  26
ENDBRANCH  22  23
ENDBRANCH  21  22
ENDBRANCH  14  21
ENDBRANCH   8  12
ENDBRANCH   4   6
TORSDOF 11
ENDMDL
MODEL      101
REMARK 921   NORMALIZED FREE ENERGY PREDICTED BY IDOCK:   -6.28 KCAL/MOL
REMARK 922        TOTAL FREE ENERGY PREDICTED BY IDOCK:  -12.52 KCAL/MOL
REMARK 923 INTER-LIGAND FREE ENERGY PREDICTED BY IDOCK:  -10.64 KCAL/MOL
REMARK 924 INTRA-LIGAND FREE ENERGY PREDICTED BY IDOCK:   -1.88 KCAL/MOL
REMARK 927      BINDING AFFINITY PREDICTED BY RF-SCORE:    0.00 PKD
ROOT
HETATM    1  N   UNL     1      -8.713   9.682  70.404  1.00  0.00    -0.277 N  
HETATM    2  H1  UNL     1      -9.246   9.494  69.554  1.00  0.00     0.000 HD 
HETATM    3  H2  UNL     1      -8.350  10.619  70.575  1.00  0.00     0.000 HD 
HETATM    4  C   UNL     1      -8.483   8.702  71.306  1.00  0.00    -0.179 C  
HETATM    5  O   UNL     1      -7.840   8.928  72.331  1.00  0.00    -0.368 OA 
ENDROOT
BRANCH   4   6
HETATM    6  C   UNL     1      -9.027   7.363  70.987  1.00  0.00    -0.151 C  
HETATM    7  C   UNL     1      -8.414   6.688  69.997  1.00  0.00    -0.139 C  
HETATM    8  N   UNL     1      -8.760   5.394  69.615  1.00  0.00    -0.102 NA 
HETATM    9  C   UNL     1     -10.154   6.740  71.765  1.00  0.00    -0.195 C  
HETATM   10  C   UNL     1      -9.904   4.835  70.197  1.00  0.00    -0.238 C  
HETATM   11  C   UNL     1     -10.590   5.413  71.194  1.00  0.00    -0.276 C  
BRANCH   8  12
HETATM   12  C   UNL     1      -7.917   4.525  68.765  1.00  0.00    -0.078 C  
HETATM   13  O   UNL     1      -7.582   5.242  67.555  1.00  0.00    -0.086 OA 
HETATM   14  C   UNL     1      -8.612   4.961  66.580  1.00  0.00    -0.109 C  
HETATM   15  H   UNL     1      -7.832   1.460  67.537  1.00  0.00     0.000 HD 
HETATM   16  C   UNL     1      -9.255   3.633  66.971  1.00  0.00    -0.186 C  
HETATM   17  H   UNL     1      -9.501   1.844  66.165  1.00  0.00     0.000 HD 
HETATM   18  C   UNL     1      -8.510   3.209  68.234  1.00  0.00    -0.081 C  
HETATM   19  O   UNL     1      -9.101   2.671  65.921  1.00  0.00    -0.145 OA 
HETATM   20  O   UNL     1      -7.466   2.273  67.866  1.00  0.00    -0.054 OA 
BRANCH  14  21
HETATM   21  C   UNL     1      -9.632   6.109  66.535  1.00  0.00    -0.151 C  
BRANCH  21  22
HETATM   22  O   UNL     1      -8.982   7.375  66.545  1.00  0.00    -0.145 OA 
BRANCH  22  23
HETATM   23  P   UNL     1      -9.793   8.638  67.089  1.00  0.00    -0.257 P  
HETATM   24  O   UNL     1     -10.727   8.409  68.229  1.00  0.00    -0.148 OA 
HETATM   25  O   UNL     1      -8.601   9.599  67.583  1.00  0.00    -0.125 OA 
BRANCH  23  26
HETATM   26  O   UNL     1     -10.357   9.418  65.835  1.00  0.00    -0.191 OA 
BRANCH  26  27
HETATM   27  P   UNL     1      -9.806  10.801  65.303  1.00  0.00    -0.319 P  
HETATM   28  O   UNL     1     -10.575  10.974  63.902  1.00  0.00    -0.369 OA 
HETATM   29  O   UNL     1      -8.337  10.933  65.085  1.00  0.00    -0.120 OA 
BRANCH  27  30
HETATM   30  O   UNL     1     -10.454  11.954  66.210  1.00  0.00    -0.226 OA 
BRANCH  30  31
HETATM   31  C   UNL     1     -11.829  12.300  66.079  1.00  0.00    -0.341 C  
BRANCH  31  32
HETATM   32  C   UNL     1     -12.061  13.792  65.860  1.00  0.00    -0.433 C  
HETATM   33  O   UNL     1     -11.369  14.582  66.846  1.00  0.00    -0.326 OA 
HETATM   34  C   UNL     1     -11.370  15.910  66.288  1.00  0.00     0.225 C  
HETATM   35  H   UNL     1     -12.190  14.475  62.659  1.00  0.00     0.000 HD 
HETATM   36  C   UNL     1     -11.098  15.718  64.787  1.00  0.00    -0.400 C  
HETATM   37  C   UNL     1     -11.530  14.275  64.515  1.00  0.00    -0.355 C  
HETATM   38  H   UNL     1     -11.649  16.512  63.024  1.00  0.00     0.000 HD 
HETATM   39  O   UNL     1     -11.816  16.631  63.952  1.00  0.00    -1.047 OA 
HETATM   40  O   UNL     1     -12.520  14.174  63.497  1.00  0.00    -0.817 OA 
BRANCH  34  41
HETATM   41  N   UNL     1     -10.383  16.742  66.947  1.00  0.00    -0.299 NA 
HETATM   42  C   UNL     1     -10.519  18.033  67.372  1.00  0.00    -0.387 A  
HETATM   43  N   UNL     1      -9.430  18.469  67.975  1.00  0.00    -0.294 NA 
HETATM   44  C   UNL     1      -8.542  17.414  67.909  1.00  0.00    -0.232 A  
HETATM   45  C   UNL     1      -7.228  17.243  68.376  1.00  0.00    -0.220 A  
HETATM   46  N   UNL     1      -6.547  18.209  69.102  1.00  0.00    -0.256 NA 
HETATM   47  N   UNL     1      -6.592  16.079  68.102  1.00  0.00    -0.116 NA 
HETATM   48  H1  UNL     1      -5.593  18.084  69.441  1.00  0.00     0.000 HD 
HETATM   49  C   UNL     1      -7.267  15.119  67.433  1.00  0.00    -0.199 A  
HETATM   50  H2  UNL     1      -7.126  18.448  69.908  1.00  0.00     0.000 HD 
HETATM   51  N   UNL     1      -8.543  15.145  66.982  1.00  0.00    -0.221 NA 
HETATM   52  C   UNL     1      -9.109  16.338  67.247  1.00  0.00    -0.203 A  
ENDBRANCH  34  41
ENDBRANCH  31  32
ENDBRANCH  30  31
ENDBRANCH  27  30
ENDBRANCH  26  27
ENDBRANCH  23  26
ENDBRANCH  22  23
ENDBRANCH  21  22
ENDBRANCH  14  21
ENDBRANCH   8  12
ENDBRANCH   4   6
TORSDOF 11
ENDMDL
MODEL      102
REMARK 921   NORMALIZED FREE ENERGY PREDICTED BY IDOCK:   -6.27 KCAL/MOL
REMARK 922        TOTAL FREE ENERGY PREDICTED BY IDOCK:  -12.51 KCAL/MOL
REMARK 923 INTER-LIGAND FREE ENERGY PREDICTED BY IDOCK:   -8.99 KCAL/MOL
REMARK 924 INTRA-LIGAND FREE ENERGY PREDICTED BY IDOCK:   -3.51 KCAL/MOL
REMARK 927      BINDING AFFINITY PREDICTED BY RF-SCORE:    0.00 PKD
ROOT
HETATM    1  N   UNL     1      -8.055  11.440  69.440  1.00  0.00    -0.348 N  
HETATM    2  H1  UNL     1      -8.759  11.119  68.775  1.00  0.00     0.000 HD 
HETATM    3  H2  UNL     1      -8.345  11.777  70.358  1.00  0.00     0.000 HD 
HETATM    4  C   UNL     1      -6.742  11.422  69.119  1.00  0.00    -0.106 C  
HETATM    5  O   UNL     1      -5.893  11.809  69.922  1.00  0.00    -0.103 OA 
ENDROOT
BRANCH   4   6
HETATM    6  C   UNL     1      -6.394  10.933  67.766  1.00  0.00    -0.062 C  
HETATM    7  C   UNL     1      -6.988   9.791  67.371  1.00  0.00    -0.084 C  
HETATM    8  N   UNL     1      -6.819   9.230  66.108  1.00  0.00    -0.084 NA 
HETATM    9  C   UNL     1      -5.490  11.695  66.837  1.00  0.00    -0.129 C  
HETATM   10  C   UNL     1      -5.864   9.813  65.268  1.00  0.00    -0.071 C  
HETATM   11  C   UNL     1      -5.216  10.951  65.554  1.00  0.00    -0.136 C  
BRANCH   8  12
HETATM   12  C   UNL     1      -7.687   8.172  65.546  1.00  0.00    -0.095 C  
HETATM   13  O   UNL     1      -8.671   8.787  64.685  1.00  0.00    -0.160 OA 
HETATM   14  C   UNL     1      -9.823   9.108  65.496  1.00  0.00     0.006 C  
HETATM   15  H   UNL     1      -9.459   5.550  66.491  1.00  0.00     0.000 HD 
HETATM   16  C   UNL     1      -9.797   8.178  66.706  1.00  0.00    -0.259 C  
HETATM   17  H   UNL     1     -10.963   6.791  67.499  1.00  0.00     0.000 HD 
HETATM   18  C   UNL     1      -8.545   7.330  66.505  1.00  0.00    -0.133 C  
HETATM   19  O   UNL     1     -10.979   7.369  66.745  1.00  0.00    -0.249 OA 
HETATM   20  O   UNL     1      -8.928   6.070  65.899  1.00  0.00    -0.156 OA 
BRANCH  14  21
HETATM   21  C   UNL     1      -9.797  10.590  65.901  1.00  0.00    -0.234 C  
BRANCH  21  22
HETATM   22  O   UNL     1     -11.114  11.106  66.049  1.00  0.00    -0.182 OA 
BRANCH  22  23
HETATM   23  P   UNL     1     -11.387  12.619  65.619  1.00  0.00    -0.356 P  
HETATM   24  O   UNL     1     -10.434  13.235  64.651  1.00  0.00    -0.371 OA 
HETATM   25  O   UNL     1     -12.830  12.501  64.919  1.00  0.00    -0.758 OA 
BRANCH  23  26
HETATM   26  O   UNL     1     -11.714  13.436  66.932  1.00  0.00    -0.347 OA 
BRANCH  26  27
HETATM   27  P   UNL     1     -10.698  13.698  68.115  1.00  0.00    -0.262 P  
HETATM   28  O   UNL     1     -11.428  14.854  68.960  1.00  0.00    -0.270 OA 
HETATM   29  O   UNL     1      -9.316  14.133  67.767  1.00  0.00    -0.190 OA 
BRANCH  27  30
HETATM   30  O   UNL     1     -10.775  12.433  69.099  1.00  0.00    -0.160 OA 
BRANCH  30  31
HETATM   31  C   UNL     1     -11.992  12.089  69.752  1.00  0.00    -0.300 C  
BRANCH  31  32
HETATM   32  C   UNL     1     -12.115  10.600  70.063  1.00  0.00    -0.316 C  
HETATM   33  O   UNL     1     -10.921   9.886  69.689  1.00  0.00    -0.233 OA 
HETATM   34  C   UNL     1     -11.042   8.626  70.378  1.00  0.00    -0.230 C  
HETATM   35  H   UNL     1     -13.786  10.144  72.842  1.00  0.00     0.000 HD 
HETATM   36  C   UNL     1     -11.608   8.976  71.764  1.00  0.00    -0.374 C  
HETATM   37  C   UNL     1     -12.296  10.327  71.552  1.00  0.00    -0.390 C  
HETATM   38  H   UNL     1     -12.883   8.224  73.124  1.00  0.00     0.000 HD 
HETATM   39  O   UNL     1     -12.533   8.008  72.268  1.00  0.00    -0.309 OA 
HETATM   40  O   UNL     1     -13.672  10.314  71.915  1.00  0.00    -0.234 OA 
BRANCH  34  41
HETATM   41  N   UNL     1      -9.762   7.951  70.436  1.00  0.00    -0.178 NA 
HETATM   42  C   UNL     1      -8.562   8.454  70.852  1.00  0.00    -0.146 A  
HETATM   43  N   UNL     1      -7.608   7.544  70.816  1.00  0.00    -0.080 NA 
HETATM   44  C   UNL     1      -8.220   6.408  70.324  1.00  0.00    -0.125 A  
HETATM   45  C   UNL     1      -7.752   5.109  70.065  1.00  0.00    -0.067 A  
HETATM   46  N   UNL     1      -6.455   4.700  70.334  1.00  0.00    -0.033 NA 
HETATM   47  N   UNL     1      -8.609   4.211  69.524  1.00  0.00    -0.071 NA 
HETATM   48  H1  UNL     1      -6.115   3.757  70.146  1.00  0.00     0.000 HD 
HETATM   49  C   UNL     1      -9.886   4.593  69.302  1.00  0.00    -0.190 A  
HETATM   50  H2  UNL     1      -6.272   4.897  71.319  1.00  0.00     0.000 HD 
HETATM   51  N   UNL     1     -10.464   5.789  69.558  1.00  0.00    -0.264 NA 
HETATM   52  C   UNL     1      -9.557   6.650  70.055  1.00  0.00    -0.156 A  
ENDBRANCH  34  41
ENDBRANCH  31  32
ENDBRANCH  30  31
ENDBRANCH  27  30
ENDBRANCH  26  27
ENDBRANCH  23  26
ENDBRANCH  22  23
ENDBRANCH  21  22
ENDBRANCH  14  21
ENDBRANCH   8  12
ENDBRANCH   4   6
TORSDOF 11
ENDMDL
MODEL      103
REMARK 921   NORMALIZED FREE ENERGY PREDICTED BY IDOCK:   -6.25 KCAL/MOL
REMARK 922        TOTAL FREE ENERGY PREDICTED BY IDOCK:  -12.47 KCAL/MOL
REMARK 923 INTER-LIGAND FREE ENERGY PREDICTED BY IDOCK:  -10.92 KCAL/MOL
REMARK 924 INTRA-LIGAND FREE ENERGY PREDICTED BY IDOCK:   -1.55 KCAL/MOL
REMARK 927      BINDING AFFINITY PREDICTED BY RF-SCORE:    0.00 PKD
ROOT
HETATM    1  N   UNL     1      -7.937   3.527  71.011  1.00  0.00    -0.057 N  
HETATM    2  H1  UNL     1      -7.368   4.373  71.047  1.00  0.00     0.000 HD 
HETATM    3  H2  UNL     1      -7.485   2.613  71.040  1.00  0.00     0.000 HD 
HETATM    4  C   UNL     1      -9.284   3.603  70.926  1.00  0.00    -0.129 C  
HETATM    5  O   UNL     1      -9.971   2.583  70.883  1.00  0.00    -0.034 OA 
ENDROOT
BRANCH   4   6
HETATM    6  C   UNL     1      -9.871   4.961  70.874  1.00  0.00    -0.277 C  
HETATM    7  C   UNL     1      -9.407   5.849  71.774  1.00  0.00    -0.148 C  
HETATM    8  N   UNL     1      -9.807   7.182  71.820  1.00  0.00    -0.162 NA 
HETATM    9  C   UNL     1     -10.876   5.370  69.832  1.00  0.00    -0.196 C  
HETATM   10  C   UNL     1     -10.856   7.568  70.978  1.00  0.00    -0.235 C  
HETATM   11  C   UNL     1     -11.392   6.772  70.041  1.00  0.00    -0.396 C  
BRANCH   8  12
HETATM   12  C   UNL     1      -9.096   8.238  72.574  1.00  0.00    -0.253 C  
HETATM   13  O   UNL     1      -8.635   9.243  71.644  1.00  0.00    -0.309 OA 
HETATM   14  C   UNL     1      -7.312   8.859  71.206  1.00  0.00    -0.096 C  
HETATM   15  H   UNL     1      -6.745   8.598  74.865  1.00  0.00     0.000 HD 
HETATM   16  C   UNL     1      -6.722   7.955  72.285  1.00  0.00    -0.065 C  
HETATM   17  H   UNL     1      -5.155   7.964  73.491  1.00  0.00     0.000 HD 
HETATM   18  C   UNL     1      -7.818   7.866  73.343  1.00  0.00    -0.162 C  
HETATM   19  O   UNL     1      -5.522   8.527  72.819  1.00  0.00    -0.046 OA 
HETATM   20  O   UNL     1      -7.535   8.827  74.390  1.00  0.00    -0.403 OA 
BRANCH  14  21
HETATM   21  C   UNL     1      -7.383   8.160  69.839  1.00  0.00    -0.065 C  
BRANCH  21  22
HETATM   22  O   UNL     1      -8.640   8.384  69.212  1.00  0.00    -0.127 OA 
BRANCH  22  23
HETATM   23  P   UNL     1      -8.651   8.944  67.716  1.00  0.00    -0.124 P  
HETATM   24  O   UNL     1      -7.344   8.999  66.999  1.00  0.00    -0.085 OA 
HETATM   25  O   UNL     1      -9.600   7.874  66.978  1.00  0.00    -0.165 OA 
BRANCH  23  26
HETATM   26  O   UNL     1      -9.541  10.250  67.702  1.00  0.00    -0.150 OA 
BRANCH  26  27
HETATM   27  P   UNL     1      -9.004  11.717  67.948  1.00  0.00    -0.183 P  
HETATM   28  O   UNL     1      -8.782  12.268  66.455  1.00  0.00    -0.139 OA 
HETATM   29  O   UNL     1      -7.746  11.880  68.731  1.00  0.00    -0.127 OA 
BRANCH  27  30
HETATM   30  O   UNL     1     -10.238  12.595  68.474  1.00  0.00    -0.229 OA 
BRANCH  30  31
HETATM   31  C   UNL     1     -11.487  12.582  67.790  1.00  0.00    -0.321 C  
BRANCH  31  32
HETATM   32  C   UNL     1     -11.795  13.886  67.062  1.00  0.00    -0.415 C  
HETATM   33  O   UNL     1     -10.843  14.914  67.399  1.00  0.00    -0.289 OA 
HETATM   34  C   UNL     1     -11.033  15.910  66.377  1.00  0.00    -0.115 C  
HETATM   35  H   UNL     1     -12.912  13.278  64.044  1.00  0.00     0.000 HD 
HETATM   36  C   UNL     1     -11.235  15.120  65.074  1.00  0.00    -0.409 C  
HETATM   37  C   UNL     1     -11.711  13.744  65.546  1.00  0.00    -0.346 C  
HETATM   38  H   UNL     1     -12.312  15.221  63.379  1.00  0.00     0.000 HD 
HETATM   39  O   UNL     1     -12.187  15.710  64.184  1.00  0.00    -0.576 OA 
HETATM   40  O   UNL     1     -12.965  13.367  64.988  1.00  0.00    -0.720 OA 
BRANCH  34  41
HETATM   41  N   UNL     1      -9.903  16.815  66.329  1.00  0.00    -0.294 NA 
HETATM   42  C   UNL     1      -8.646  16.569  65.854  1.00  0.00    -0.039 A  
HETATM   43  N   UNL     1      -7.876  17.637  65.923  1.00  0.00    -0.553 NA 
HETATM   44  C   UNL     1      -8.669  18.610  66.496  1.00  0.00    -0.304 A  
HETATM   45  C   UNL     1      -8.441  19.957  66.822  1.00  0.00    -0.328 A  
HETATM   46  N   UNL     1      -7.251  20.615  66.547  1.00  0.00    -0.458 NA 
HETATM   47  N   UNL     1      -9.430  20.648  67.437  1.00  0.00    -0.420 NA 
HETATM   48  H1  UNL     1      -7.086  21.594  66.784  1.00  0.00     0.000 HD 
HETATM   49  C   UNL     1     -10.605  20.024  67.666  1.00  0.00    -0.273 A  
HETATM   50  H2  UNL     1      -7.070  20.510  65.549  1.00  0.00     0.000 HD 
HETATM   51  N   UNL     1     -10.961  18.757  67.353  1.00  0.00    -0.345 NA 
HETATM   52  C   UNL     1      -9.929  18.108  66.782  1.00  0.00    -0.351 A  
ENDBRANCH  34  41
ENDBRANCH  31  32
ENDBRANCH  30  31
ENDBRANCH  27  30
ENDBRANCH  26  27
ENDBRANCH  23  26
ENDBRANCH  22  23
ENDBRANCH  21  22
ENDBRANCH  14  21
ENDBRANCH   8  12
ENDBRANCH   4   6
TORSDOF 11
ENDMDL
MODEL      104
REMARK 921   NORMALIZED FREE ENERGY PREDICTED BY IDOCK:   -6.25 KCAL/MOL
REMARK 922        TOTAL FREE ENERGY PREDICTED BY IDOCK:  -12.47 KCAL/MOL
REMARK 923 INTER-LIGAND FREE ENERGY PREDICTED BY IDOCK:   -9.97 KCAL/MOL
REMARK 924 INTRA-LIGAND FREE ENERGY PREDICTED BY IDOCK:   -2.50 KCAL/MOL
REMARK 927      BINDING AFFINITY PREDICTED BY RF-SCORE:    0.00 PKD
ROOT
HETATM    1  N   UNL     1     -10.947  19.007  67.722  1.00  0.00    -0.302 N  
HETATM    2  H1  UNL     1     -11.830  18.856  67.234  1.00  0.00     0.000 HD 
HETATM    3  H2  UNL     1     -10.773  19.899  68.185  1.00  0.00     0.000 HD 
HETATM    4  C   UNL     1     -10.005  18.039  67.761  1.00  0.00    -0.326 C  
HETATM    5  O   UNL     1      -8.939  18.222  68.350  1.00  0.00    -0.297 OA 
ENDROOT
BRANCH   4   6
HETATM    6  C   UNL     1     -10.319  16.776  67.056  1.00  0.00    -0.300 C  
HETATM    7  C   UNL     1     -10.394  15.668  67.817  1.00  0.00    -0.266 C  
HETATM    8  N   UNL     1     -10.740  14.414  67.322  1.00  0.00    -0.282 NA 
HETATM    9  C   UNL     1     -10.617  16.724  65.583  1.00  0.00    -0.258 C  
HETATM   10  C   UNL     1     -10.868  14.282  65.934  1.00  0.00    -0.300 C  
HETATM   11  C   UNL     1     -10.818  15.316  65.081  1.00  0.00    -0.441 C  
BRANCH   8  12
HETATM   12  C   UNL     1     -11.134  13.266  68.168  1.00  0.00    -0.259 C  
HETATM   13  O   UNL     1      -9.971  12.801  68.890  1.00  0.00    -0.057 OA 
HETATM   14  C   UNL     1      -9.322  11.799  68.075  1.00  0.00    -0.184 C  
HETATM   15  H   UNL     1     -12.758  10.396  67.986  1.00  0.00     0.000 HD 
HETATM   16  C   UNL     1     -10.380  11.225  67.135  1.00  0.00    -0.209 C  
HETATM   17  H   UNL     1     -11.192   9.460  66.766  1.00  0.00     0.000 HD 
HETATM   18  C   UNL     1     -11.653  11.988  67.489  1.00  0.00    -0.330 C  
HETATM   19  O   UNL     1     -10.534   9.817  67.351  1.00  0.00    -0.227 OA 
HETATM   20  O   UNL     1     -12.437  11.186  68.406  1.00  0.00    -0.390 OA 
BRANCH  14  21
HETATM   21  C   UNL     1      -8.140  12.415  67.311  1.00  0.00    -0.182 C  
BRANCH  21  22
HETATM   22  O   UNL     1      -7.804  11.636  66.169  1.00  0.00     0.026 OA 
BRANCH  22  23
HETATM   23  P   UNL     1      -6.599  10.596  66.290  1.00  0.00    -0.126 P  
HETATM   24  O   UNL     1      -5.521  10.679  65.261  1.00  0.00    -0.125 OA 
HETATM   25  O   UNL     1      -5.978  10.985  67.721  1.00  0.00    -0.046 OA 
BRANCH  23  26
HETATM   26  O   UNL     1      -7.224   9.172  66.569  1.00  0.00    -0.083 OA 
BRANCH  26  27
HETATM   27  P   UNL     1      -7.805   8.202  65.462  1.00  0.00    -0.119 P  
HETATM   28  O   UNL     1      -6.551   7.253  65.129  1.00  0.00    -0.043 OA 
HETATM   29  O   UNL     1      -8.321   8.808  64.202  1.00  0.00    -0.170 OA 
BRANCH  27  30
HETATM   30  O   UNL     1      -8.826   7.203  66.192  1.00  0.00    -0.150 OA 
BRANCH  30  31
HETATM   31  C   UNL     1      -8.349   6.076  66.920  1.00  0.00    -0.105 C  
BRANCH  31  32
HETATM   32  C   UNL     1      -8.270   6.314  68.424  1.00  0.00    -0.116 C  
HETATM   33  O   UNL     1      -9.455   6.969  68.916  1.00  0.00    -0.139 OA 
HETATM   34  C   UNL     1      -9.393   6.773  70.341  1.00  0.00    -0.163 C  
HETATM   35  H   UNL     1      -6.756   3.814  69.902  1.00  0.00     0.000 HD 
HETATM   36  C   UNL     1      -8.894   5.331  70.529  1.00  0.00    -0.132 C  
HETATM   37  C   UNL     1      -8.172   5.015  69.217  1.00  0.00    -0.083 C  
HETATM   38  H   UNL     1      -7.707   4.276  71.763  1.00  0.00     0.000 HD 
HETATM   39  O   UNL     1      -8.016   5.167  71.646  1.00  0.00    -0.108 OA 
HETATM   40  O   UNL     1      -6.817   4.623  69.408  1.00  0.00    -0.047 OA 
BRANCH  34  41
HETATM   41  N   UNL     1     -10.687   7.015  70.947  1.00  0.00    -0.231 NA 
HETATM   42  C   UNL     1     -11.601   6.095  71.379  1.00  0.00    -0.219 A  
HETATM   43  N   UNL     1     -12.656   6.670  71.923  1.00  0.00    -0.324 NA 
HETATM   44  C   UNL     1     -12.421   8.025  71.810  1.00  0.00    -0.324 A  
HETATM   45  C   UNL     1     -13.153   9.156  72.206  1.00  0.00    -0.438 A  
HETATM   46  N   UNL     1     -14.354   9.082  72.895  1.00  0.00    -1.108 NA 
HETATM   47  N   UNL     1     -12.664  10.381  71.898  1.00  0.00    -0.406 NA 
HETATM   48  H1  UNL     1     -14.886   9.904  73.183  1.00  0.00     0.000 HD 
HETATM   49  C   UNL     1     -11.473  10.458  71.266  1.00  0.00    -0.032 A  
HETATM   50  H2  UNL     1     -14.190   8.519  73.731  1.00  0.00     0.000 HD 
HETATM   51  N   UNL     1     -10.655   9.450  70.884  1.00  0.00    -0.295 NA 
HETATM   52  C   UNL     1     -11.210   8.260  71.178  1.00  0.00    -0.258 A  
ENDBRANCH  34  41
ENDBRANCH  31  32
ENDBRANCH  30  31
ENDBRANCH  27  30
ENDBRANCH  26  27
ENDBRANCH  23  26
ENDBRANCH  22  23
ENDBRANCH  21  22
ENDBRANCH  14  21
ENDBRANCH   8  12
ENDBRANCH   4   6
TORSDOF 11
ENDMDL
MODEL      105
REMARK 921   NORMALIZED FREE ENERGY PREDICTED BY IDOCK:   -6.25 KCAL/MOL
REMARK 922        TOTAL FREE ENERGY PREDICTED BY IDOCK:  -12.47 KCAL/MOL
REMARK 923 INTER-LIGAND FREE ENERGY PREDICTED BY IDOCK:  -10.49 KCAL/MOL
REMARK 924 INTRA-LIGAND FREE ENERGY PREDICTED BY IDOCK:   -1.97 KCAL/MOL
REMARK 927      BINDING AFFINITY PREDICTED BY RF-SCORE:    0.00 PKD
ROOT
HETATM    1  N   UNL     1      -8.787  11.133  62.847  1.00  0.00    -0.446 N  
HETATM    2  H1  UNL     1      -7.905  11.562  62.567  1.00  0.00     0.000 HD 
HETATM    3  H2  UNL     1      -9.581  11.150  62.207  1.00  0.00     0.000 HD 
HETATM    4  C   UNL     1      -8.914  10.541  64.055  1.00  0.00    -0.217 C  
HETATM    5  O   UNL     1      -9.979  10.023  64.392  1.00  0.00    -0.265 OA 
ENDROOT
BRANCH   4   6
HETATM    6  C   UNL     1      -7.725  10.565  64.937  1.00  0.00    -0.021 C  
HETATM    7  C   UNL     1      -7.929  10.970  66.204  1.00  0.00    -0.129 C  
HETATM    8  N   UNL     1      -6.932  10.991  67.177  1.00  0.00    -0.095 NA 
HETATM    9  C   UNL     1      -6.371  10.094  64.483  1.00  0.00    -0.129 C  
HETATM   10  C   UNL     1      -5.623  10.717  66.763  1.00  0.00    -0.064 C  
HETATM   11  C   UNL     1      -5.304  10.301  65.529  1.00  0.00    -0.079 C  
BRANCH   8  12
HETATM   12  C   UNL     1      -7.189  11.125  68.628  1.00  0.00    -0.098 C  
HETATM   13  O   UNL     1      -7.826  12.399  68.871  1.00  0.00    -0.032 OA 
HETATM   14  C   UNL     1      -6.784  13.372  69.107  1.00  0.00    -0.099 C  
HETATM   15  H   UNL     1      -5.656  10.799  71.534  1.00  0.00     0.000 HD 
HETATM   16  C   UNL     1      -5.553  12.608  69.588  1.00  0.00    -0.096 C  
HETATM   17  H   UNL     1      -4.403  12.569  71.197  1.00  0.00     0.000 HD 
HETATM   18  C   UNL     1      -5.993  11.147  69.593  1.00  0.00    -0.082 C  
HETATM   19  O   UNL     1      -5.170  13.045  70.898  1.00  0.00    -0.126 OA 
HETATM   20  O   UNL     1      -6.395  10.785  70.937  1.00  0.00    -0.351 OA 
BRANCH  14  21
HETATM   21  C   UNL     1      -6.504  14.177  67.829  1.00  0.00    -0.168 C  
BRANCH  21  22
HETATM   22  O   UNL     1      -7.239  15.395  67.817  1.00  0.00    -0.132 OA 
BRANCH  22  23
HETATM   23  P   UNL     1      -6.563  16.694  68.452  1.00  0.00    -0.151 P  
HETATM   24  O   UNL     1      -6.092  16.596  69.864  1.00  0.00    -0.215 OA 
HETATM   25  O   UNL     1      -5.287  16.895  67.494  1.00  0.00    -0.119 OA 
BRANCH  23  26
HETATM   26  O   UNL     1      -7.467  17.935  68.075  1.00  0.00    -0.220 OA 
BRANCH  26  27
HETATM   27  P   UNL     1      -8.460  17.994  66.845  1.00  0.00    -0.263 P  
HETATM   28  O   UNL     1      -7.502  17.656  65.600  1.00  0.00    -0.508 OA 
HETATM   29  O   UNL     1      -9.180  19.273  66.587  1.00  0.00    -0.308 OA 
BRANCH  27  30
HETATM   30  O   UNL     1      -9.404  16.700  66.931  1.00  0.00    -0.218 OA 
BRANCH  30  31
HETATM   31  C   UNL     1      -9.765  15.980  65.757  1.00  0.00    -0.305 C  
BRANCH  31  32
HETATM   32  C   UNL     1     -10.134  14.525  66.026  1.00  0.00    -0.318 C  
HETATM   33  O   UNL     1     -10.299  14.276  67.435  1.00  0.00    -0.256 OA 
HETATM   34  C   UNL     1     -10.997  13.017  67.485  1.00  0.00    -0.259 C  
HETATM   35  H   UNL     1     -12.110  13.390  63.674  1.00  0.00     0.000 HD 
HETATM   36  C   UNL     1     -12.033  13.085  66.351  1.00  0.00    -0.402 C  
HETATM   37  C   UNL     1     -11.463  14.131  65.391  1.00  0.00    -0.325 C  
HETATM   38  H   UNL     1     -12.874  11.878  64.981  1.00  0.00     0.000 HD 
HETATM   39  O   UNL     1     -12.235  11.836  65.682  1.00  0.00    -0.289 OA 
HETATM   40  O   UNL     1     -11.282  13.635  64.069  1.00  0.00    -0.321 OA 
BRANCH  34  41
HETATM   41  N   UNL     1     -11.590  12.813  68.791  1.00  0.00    -0.290 NA 
HETATM   42  C   UNL     1     -11.927  11.631  69.388  1.00  0.00    -0.316 A  
HETATM   43  N   UNL     1     -12.405  11.813  70.603  1.00  0.00    -0.356 NA 
HETATM   44  C   UNL     1     -12.401  13.181  70.785  1.00  0.00    -0.321 A  
HETATM   45  C   UNL     1     -12.774  14.001  71.863  1.00  0.00    -0.300 A  
HETATM   46  N   UNL     1     -13.219  13.503  73.079  1.00  0.00    -0.426 NA 
HETATM   47  N   UNL     1     -12.696  15.344  71.709  1.00  0.00    -0.364 NA 
HETATM   48  H1  UNL     1     -13.490  14.099  73.862  1.00  0.00     0.000 HD 
HETATM   49  C   UNL     1     -12.221  15.831  70.542  1.00  0.00    -0.363 A  
HETATM   50  H2  UNL     1     -12.508  12.856  73.421  1.00  0.00     0.000 HD 
HETATM   51  N   UNL     1     -11.784  15.148  69.459  1.00  0.00    -0.308 NA 
HETATM   52  C   UNL     1     -11.922  13.823  69.655  1.00  0.00    -0.342 A  
ENDBRANCH  34  41
ENDBRANCH  31  32
ENDBRANCH  30  31
ENDBRANCH  27  30
ENDBRANCH  26  27
ENDBRANCH  23  26
ENDBRANCH  22  23
ENDBRANCH  21  22
ENDBRANCH  14  21
ENDBRANCH   8  12
ENDBRANCH   4   6
TORSDOF 11
ENDMDL
MODEL      106
REMARK 921   NORMALIZED FREE ENERGY PREDICTED BY IDOCK:   -6.25 KCAL/MOL
REMARK 922        TOTAL FREE ENERGY PREDICTED BY IDOCK:  -12.46 KCAL/MOL
REMARK 923 INTER-LIGAND FREE ENERGY PREDICTED BY IDOCK:   -9.78 KCAL/MOL
REMARK 924 INTRA-LIGAND FREE ENERGY PREDICTED BY IDOCK:   -2.69 KCAL/MOL
REMARK 927      BINDING AFFINITY PREDICTED BY RF-SCORE:    0.00 PKD
ROOT
HETATM    1  N   UNL     1     -13.200   8.902  70.914  1.00  0.00    -0.504 N  
HETATM    2  H1  UNL     1     -12.473   9.617  70.870  1.00  0.00     0.000 HD 
HETATM    3  H2  UNL     1     -14.089   9.057  70.438  1.00  0.00     0.000 HD 
HETATM    4  C   UNL     1     -12.997   7.752  71.594  1.00  0.00    -0.345 C  
HETATM    5  O   UNL     1     -13.874   6.890  71.647  1.00  0.00    -0.297 OA 
ENDROOT
BRANCH   4   6
HETATM    6  C   UNL     1     -11.689   7.601  72.271  1.00  0.00    -0.371 C  
HETATM    7  C   UNL     1     -11.465   6.424  72.883  1.00  0.00    -0.072 C  
HETATM    8  N   UNL     1     -10.265   6.096  73.511  1.00  0.00    -0.208 NA 
HETATM    9  C   UNL     1     -10.625   8.664  72.223  1.00  0.00    -0.375 C  
HETATM   10  C   UNL     1      -9.306   7.109  73.634  1.00  0.00    -0.212 C  
HETATM   11  C   UNL     1      -9.420   8.316  73.062  1.00  0.00    -0.298 C  
BRANCH   8  12
HETATM   12  C   UNL     1      -9.882   4.723  73.907  1.00  0.00    -0.150 C  
HETATM   13  O   UNL     1      -8.608   4.405  73.303  1.00  0.00    -0.097 OA 
HETATM   14  C   UNL     1      -8.872   3.810  72.012  1.00  0.00    -0.100 C  
HETATM   15  H   UNL     1     -11.119   1.664  74.044  1.00  0.00     0.000 HD 
HETATM   16  C   UNL     1     -10.281   3.227  72.063  1.00  0.00    -0.039 C  
HETATM   17  H   UNL     1     -11.128   1.451  71.860  1.00  0.00     0.000 HD 
HETATM   18  C   UNL     1     -10.774   3.550  73.470  1.00  0.00    -0.216 C  
HETATM   19  O   UNL     1     -10.250   1.814  71.828  1.00  0.00    -0.155 OA 
HETATM   20  O   UNL     1     -10.568   2.390  74.314  1.00  0.00    -0.141 OA 
BRANCH  14  21
HETATM   21  C   UNL     1      -8.716   4.857  70.899  1.00  0.00    -0.120 C  
BRANCH  21  22
HETATM   22  O   UNL     1      -9.633   4.619  69.837  1.00  0.00    -0.152 OA 
BRANCH  22  23
HETATM   23  P   UNL     1     -10.010   5.835  68.874  1.00  0.00    -0.194 P  
HETATM   24  O   UNL     1     -11.455   6.188  68.756  1.00  0.00    -0.259 OA 
HETATM   25  O   UNL     1      -9.236   7.057  69.578  1.00  0.00    -0.149 OA 
BRANCH  23  26
HETATM   26  O   UNL     1      -9.197   5.650  67.532  1.00  0.00    -0.111 OA 
BRANCH  26  27
HETATM   27  P   UNL     1      -8.629   6.829  66.644  1.00  0.00    -0.133 P  
HETATM   28  O   UNL     1      -8.505   6.151  65.192  1.00  0.00    -0.149 OA 
HETATM   29  O   UNL     1      -7.319   7.427  67.029  1.00  0.00    -0.092 OA 
BRANCH  27  30
HETATM   30  O   UNL     1      -9.816   7.889  66.443  1.00  0.00    -0.216 OA 
BRANCH  30  31
HETATM   31  C   UNL     1      -9.546   9.206  65.975  1.00  0.00    -0.272 C  
BRANCH  31  32
HETATM   32  C   UNL     1      -9.627  10.267  67.068  1.00  0.00    -0.171 C  
HETATM   33  O   UNL     1      -9.329  11.579  66.550  1.00  0.00    -0.186 OA 
HETATM   34  C   UNL     1      -9.812  12.471  67.572  1.00  0.00    -0.198 C  
HETATM   35  H   UNL     1     -12.052   9.578  69.159  1.00  0.00     0.000 HD 
HETATM   36  C   UNL     1     -11.139  11.860  68.050  1.00  0.00    -0.240 C  
HETATM   37  C   UNL     1     -11.023  10.381  67.671  1.00  0.00    -0.312 C  
HETATM   38  H   UNL     1     -12.188  11.631  69.750  1.00  0.00     0.000 HD 
HETATM   39  O   UNL     1     -11.368  12.009  69.454  1.00  0.00    -0.261 OA 
HETATM   40  O   UNL     1     -11.182   9.508  68.783  1.00  0.00    -0.063 OA 
BRANCH  34  41
HETATM   41  N   UNL     1      -9.956  13.815  67.050  1.00  0.00    -0.246 NA 
HETATM   42  C   UNL     1     -10.030  14.208  65.744  1.00  0.00    -0.309 A  
HETATM   43  N   UNL     1     -10.204  15.510  65.632  1.00  0.00    -0.346 NA 
HETATM   44  C   UNL     1     -10.215  15.980  66.929  1.00  0.00    -0.280 A  
HETATM   45  C   UNL     1     -10.374  17.264  67.478  1.00  0.00    -0.346 A  
HETATM   46  N   UNL     1     -10.619  18.394  66.711  1.00  0.00    -0.368 NA 
HETATM   47  N   UNL     1     -10.284  17.407  68.821  1.00  0.00    -0.346 NA 
HETATM   48  H1  UNL     1     -10.735  19.326  67.109  1.00  0.00     0.000 HD 
HETATM   49  C   UNL     1     -10.090  16.303  69.574  1.00  0.00    -0.221 A  
HETATM   50  H2  UNL     1     -11.444  18.202  66.142  1.00  0.00     0.000 HD 
HETATM   51  N   UNL     1      -9.976  15.017  69.170  1.00  0.00    -0.235 NA 
HETATM   52  C   UNL     1     -10.033  14.941  67.827  1.00  0.00    -0.222 A  
ENDBRANCH  34  41
ENDBRANCH  31  32
ENDBRANCH  30  31
ENDBRANCH  27  30
ENDBRANCH  26  27
ENDBRANCH  23  26
ENDBRANCH  22  23
ENDBRANCH  21  22
ENDBRANCH  14  21
ENDBRANCH   8  12
ENDBRANCH   4   6
TORSDOF 11
ENDMDL
MODEL      107
REMARK 921   NORMALIZED FREE ENERGY PREDICTED BY IDOCK:   -6.24 KCAL/MOL
REMARK 922        TOTAL FREE ENERGY PREDICTED BY IDOCK:  -12.45 KCAL/MOL
REMARK 923 INTER-LIGAND FREE ENERGY PREDICTED BY IDOCK:  -10.74 KCAL/MOL
REMARK 924 INTRA-LIGAND FREE ENERGY PREDICTED BY IDOCK:   -1.71 KCAL/MOL
REMARK 927      BINDING AFFINITY PREDICTED BY RF-SCORE:    0.00 PKD
ROOT
HETATM    1  N   UNL     1      -7.118  20.451  71.939  1.00  0.00    -0.160 N  
HETATM    2  H1  UNL     1      -7.961  20.657  71.401  1.00  0.00     0.000 HD 
HETATM    3  H2  UNL     1      -7.007  20.844  72.874  1.00  0.00     0.000 HD 
HETATM    4  C   UNL     1      -6.147  19.663  71.426  1.00  0.00     0.007 C  
HETATM    5  O   UNL     1      -5.131  19.414  72.074  1.00  0.00    -0.621 OA 
ENDROOT
BRANCH   4   6
HETATM    6  C   UNL     1      -6.368  19.139  70.059  1.00  0.00    -0.165 C  
HETATM    7  C   UNL     1      -7.521  19.494  69.462  1.00  0.00    -0.069 C  
HETATM    8  N   UNL     1      -7.855  19.139  68.157  1.00  0.00    -0.289 NA 
HETATM    9  C   UNL     1      -5.340  18.318  69.331  1.00  0.00    -0.202 C  
HETATM   10  C   UNL     1      -7.007  18.243  67.497  1.00  0.00    -0.199 C  
HETATM   11  C   UNL     1      -5.832  17.827  67.992  1.00  0.00    -0.156 C  
BRANCH   8  12
HETATM   12  C   UNL     1      -8.947  19.765  67.379  1.00  0.00    -0.326 C  
HETATM   13  O   UNL     1     -10.192  19.570  68.086  1.00  0.00    -0.403 OA 
HETATM   14  C   UNL     1     -10.766  18.325  67.625  1.00  0.00    -0.348 C  
HETATM   15  H   UNL     1     -10.157  19.876  64.308  1.00  0.00     0.000 HD 
HETATM   16  C   UNL     1     -10.192  18.048  66.239  1.00  0.00    -0.381 C  
HETATM   17  H   UNL     1     -10.884  17.807  64.401  1.00  0.00     0.000 HD 
HETATM   18  C   UNL     1      -9.258  19.225  65.974  1.00  0.00    -0.136 C  
HETATM   19  O   UNL     1     -11.241  17.979  65.265  1.00  0.00    -0.220 OA 
HETATM   20  O   UNL     1      -9.964  20.209  65.177  1.00  0.00    -0.050 OA 
BRANCH  14  21
HETATM   21  C   UNL     1     -10.456  17.194  68.619  1.00  0.00    -0.366 C  
BRANCH  21  22
HETATM   22  O   UNL     1     -11.622  16.434  68.912  1.00  0.00    -0.290 OA 
BRANCH  22  23
HETATM   23  P   UNL     1     -11.600  15.475  70.188  1.00  0.00    -0.404 P  
HETATM   24  O   UNL     1     -10.489  15.667  71.166  1.00  0.00     0.065 OA 
HETATM   25  O   UNL     1     -12.989  15.856  70.903  1.00  0.00    -0.480 OA 
BRANCH  23  26
HETATM   26  O   UNL     1     -11.873  14.002  69.682  1.00  0.00    -0.288 OA 
BRANCH  26  27
HETATM   27  P   UNL     1     -11.186  13.331  68.426  1.00  0.00    -0.324 P  
HETATM   28  O   UNL     1     -12.072  12.010  68.200  1.00  0.00    -0.480 OA 
HETATM   29  O   UNL     1      -9.748  12.954  68.533  1.00  0.00    -0.206 OA 
BRANCH  27  30
HETATM   30  O   UNL     1     -11.549  14.229  67.147  1.00  0.00    -0.342 OA 
BRANCH  30  31
HETATM   31  C   UNL     1     -10.560  14.547  66.174  1.00  0.00    -0.306 C  
BRANCH  31  32
HETATM   32  C   UNL     1     -10.611  13.651  64.940  1.00  0.00    -0.408 C  
HETATM   33  O   UNL     1      -9.588  12.638  64.984  1.00  0.00    -0.032 OA 
HETATM   34  C   UNL     1     -10.005  11.682  63.991  1.00  0.00    -0.296 C  
HETATM   35  H   UNL     1     -13.713  13.151  64.015  1.00  0.00     0.000 HD 
HETATM   36  C   UNL     1     -11.530  11.574  64.149  1.00  0.00    -0.216 C  
HETATM   37  C   UNL     1     -11.927  12.888  64.826  1.00  0.00    -0.396 C  
HETATM   38  H   UNL     1     -13.169  11.342  63.008  1.00  0.00     0.000 HD 
HETATM   39  O   UNL     1     -12.227  11.409  62.911  1.00  0.00     0.060 OA 
HETATM   40  O   UNL     1     -12.893  13.626  64.086  1.00  0.00    -0.611 OA 
BRANCH  34  41
HETATM   41  N   UNL     1      -9.318  10.420  64.176  1.00  0.00    -0.252 NA 
HETATM   42  C   UNL     1      -8.619   9.697  63.251  1.00  0.00    -0.209 A  
HETATM   43  N   UNL     1      -8.083   8.614  63.777  1.00  0.00    -0.161 NA 
HETATM   44  C   UNL     1      -8.481   8.626  65.099  1.00  0.00    -0.179 A  
HETATM   45  C   UNL     1      -8.233   7.762  66.178  1.00  0.00    -0.123 A  
HETATM   46  N   UNL     1      -7.414   6.647  66.087  1.00  0.00    -0.079 NA 
HETATM   47  N   UNL     1      -8.823   8.029  67.367  1.00  0.00    -0.130 NA 
HETATM   48  H1  UNL     1      -7.233   6.019  66.871  1.00  0.00     0.000 HD 
HETATM   49  C   UNL     1      -9.585   9.139  67.472  1.00  0.00    -0.150 A  
HETATM   50  H2  UNL     1      -6.508   6.962  65.736  1.00  0.00     0.000 HD 
HETATM   51  N   UNL     1      -9.854  10.069  66.527  1.00  0.00    -0.198 NA 
HETATM   52  C   UNL     1      -9.276   9.731  65.360  1.00  0.00    -0.227 A  
ENDBRANCH  34  41
ENDBRANCH  31  32
ENDBRANCH  30  31
ENDBRANCH  27  30
ENDBRANCH  26  27
ENDBRANCH  23  26
ENDBRANCH  22  23
ENDBRANCH  21  22
ENDBRANCH  14  21
ENDBRANCH   8  12
ENDBRANCH   4   6
TORSDOF 11
ENDMDL
MODEL      108
REMARK 921   NORMALIZED FREE ENERGY PREDICTED BY IDOCK:   -6.24 KCAL/MOL
REMARK 922        TOTAL FREE ENERGY PREDICTED BY IDOCK:  -12.45 KCAL/MOL
REMARK 923 INTER-LIGAND FREE ENERGY PREDICTED BY IDOCK:  -10.87 KCAL/MOL
REMARK 924 INTRA-LIGAND FREE ENERGY PREDICTED BY IDOCK:   -1.58 KCAL/MOL
REMARK 927      BINDING AFFINITY PREDICTED BY RF-SCORE:    0.00 PKD
ROOT
HETATM    1  N   UNL     1      -6.008   4.425  68.531  1.00  0.00    -0.025 N  
HETATM    2  H1  UNL     1      -6.113   4.521  67.521  1.00  0.00     0.000 HD 
HETATM    3  H2  UNL     1      -5.214   3.906  68.909  1.00  0.00     0.000 HD 
HETATM    4  C   UNL     1      -6.908   4.977  69.375  1.00  0.00    -0.053 C  
HETATM    5  O   UNL     1      -6.781   4.860  70.594  1.00  0.00    -0.033 OA 
ENDROOT
BRANCH   4   6
HETATM    6  C   UNL     1      -8.040   5.703  68.758  1.00  0.00    -0.100 C  
HETATM    7  C   UNL     1      -9.179   5.755  69.473  1.00  0.00    -0.130 C  
HETATM    8  N   UNL     1     -10.315   6.450  69.066  1.00  0.00    -0.182 NA 
HETATM    9  C   UNL     1      -7.923   6.416  67.438  1.00  0.00    -0.116 C  
HETATM   10  C   UNL     1     -10.310   6.992  67.776  1.00  0.00    -0.202 C  
HETATM   11  C   UNL     1      -9.233   7.003  66.977  1.00  0.00    -0.167 C  
BRANCH   8  12
HETATM   12  C   UNL     1     -11.449   6.785  69.957  1.00  0.00    -0.334 C  
HETATM   13  O   UNL     1     -11.626   8.219  69.963  1.00  0.00    -0.015 OA 
HETATM   14  C   UNL     1     -10.810   8.756  71.029  1.00  0.00    -0.260 C  
HETATM   15  H   UNL     1     -12.586   6.153  72.992  1.00  0.00     0.000 HD 
HETATM   16  C   UNL     1     -10.593   7.634  72.041  1.00  0.00    -0.220 C  
HETATM   17  H   UNL     1     -10.983   7.306  73.952  1.00  0.00     0.000 HD 
HETATM   18  C   UNL     1     -11.342   6.443  71.452  1.00  0.00    -0.301 C  
HETATM   19  O   UNL     1     -11.119   8.004  73.322  1.00  0.00    -0.251 OA 
HETATM   20  O   UNL     1     -12.651   6.364  72.068  1.00  0.00    -0.310 OA 
BRANCH  14  21
HETATM   21  C   UNL     1      -9.486   9.296  70.469  1.00  0.00    -0.264 C  
BRANCH  21  22
HETATM   22  O   UNL     1      -9.715  10.280  69.467  1.00  0.00    -0.224 OA 
BRANCH  22  23
HETATM   23  P   UNL     1      -8.509  10.665  68.494  1.00  0.00    -0.149 P  
HETATM   24  O   UNL     1      -7.871  11.999  68.694  1.00  0.00    -0.133 OA 
HETATM   25  O   UNL     1      -7.434   9.521  68.842  1.00  0.00    -0.072 OA 
BRANCH  23  26
HETATM   26  O   UNL     1      -8.944  10.284  67.023  1.00  0.00    -0.136 OA 
BRANCH  26  27
HETATM   27  P   UNL     1     -10.110  10.979  66.212  1.00  0.00    -0.250 P  
HETATM   28  O   UNL     1     -11.410  10.632  67.091  1.00  0.00    -0.344 OA 
HETATM   29  O   UNL     1     -10.334  10.552  64.801  1.00  0.00    -0.339 OA 
BRANCH  27  30
HETATM   30  O   UNL     1      -9.954  12.563  66.415  1.00  0.00    -0.240 OA 
BRANCH  30  31
HETATM   31  C   UNL     1     -11.004  13.332  66.991  1.00  0.00    -0.276 C  
BRANCH  31  32
HETATM   32  C   UNL     1     -10.577  14.112  68.231  1.00  0.00    -0.251 C  
HETATM   33  O   UNL     1      -9.524  15.047  67.926  1.00  0.00    -0.193 OA 
HETATM   34  C   UNL     1      -9.512  15.935  69.059  1.00  0.00    -0.247 C  
HETATM   35  H   UNL     1     -13.167  14.754  70.130  1.00  0.00     0.000 HD 
HETATM   36  C   UNL     1     -10.991  16.170  69.404  1.00  0.00    -0.333 C  
HETATM   37  C   UNL     1     -11.708  14.957  68.808  1.00  0.00    -0.325 C  
HETATM   38  H   UNL     1     -12.159  16.417  71.022  1.00  0.00     0.000 HD 
HETATM   39  O   UNL     1     -11.245  16.272  70.809  1.00  0.00    -0.366 OA 
HETATM   40  O   UNL     1     -12.463  14.228  69.770  1.00  0.00    -0.323 OA 
BRANCH  34  41
HETATM   41  N   UNL     1      -8.796  17.155  68.744  1.00  0.00    -0.260 NA 
HETATM   42  C   UNL     1      -7.502  17.474  69.047  1.00  0.00    -0.179 A  
HETATM   43  N   UNL     1      -7.163  18.654  68.566  1.00  0.00    -0.282 NA 
HETATM   44  C   UNL     1      -8.303  19.128  67.948  1.00  0.00    -0.298 A  
HETATM   45  C   UNL     1      -8.585  20.310  67.245  1.00  0.00    -0.347 A  
HETATM   46  N   UNL     1      -7.636  21.289  66.990  1.00  0.00    -0.768 NA 
HETATM   47  N   UNL     1      -9.846  20.506  66.792  1.00  0.00    -0.396 NA 
HETATM   48  H1  UNL     1      -7.841  22.148  66.479  1.00  0.00     0.000 HD 
HETATM   49  C   UNL     1     -10.762  19.535  66.999  1.00  0.00    -0.477 A  
HETATM   50  H2  UNL     1      -6.851  20.837  66.521  1.00  0.00     0.000 HD 
HETATM   51  N   UNL     1     -10.598  18.339  67.611  1.00  0.00    -0.419 NA 
HETATM   52  C   UNL     1      -9.340  18.218  68.074  1.00  0.00    -0.284 A  
ENDBRANCH  34  41
ENDBRANCH  31  32
ENDBRANCH  30  31
ENDBRANCH  27  30
ENDBRANCH  26  27
ENDBRANCH  23  26
ENDBRANCH  22  23
ENDBRANCH  21  22
ENDBRANCH  14  21
ENDBRANCH   8  12
ENDBRANCH   4   6
TORSDOF 11
ENDMDL
MODEL      109
REMARK 921   NORMALIZED FREE ENERGY PREDICTED BY IDOCK:   -6.22 KCAL/MOL
REMARK 922        TOTAL FREE ENERGY PREDICTED BY IDOCK:  -12.42 KCAL/MOL
REMARK 923 INTER-LIGAND FREE ENERGY PREDICTED BY IDOCK:  -10.40 KCAL/MOL
REMARK 924 INTRA-LIGAND FREE ENERGY PREDICTED BY IDOCK:   -2.02 KCAL/MOL
REMARK 927      BINDING AFFINITY PREDICTED BY RF-SCORE:    0.00 PKD
ROOT
HETATM    1  N   UNL     1     -11.402  11.463  63.066  1.00  0.00    -0.852 N  
HETATM    2  H1  UNL     1     -10.435  11.766  62.953  1.00  0.00     0.000 HD 
HETATM    3  H2  UNL     1     -11.702  10.573  62.667  1.00  0.00     0.000 HD 
HETATM    4  C   UNL     1     -12.291  12.226  63.740  1.00  0.00    -0.538 C  
HETATM    5  O   UNL     1     -13.459  11.860  63.877  1.00  0.00    -0.559 OA 
ENDROOT
BRANCH   4   6
HETATM    6  C   UNL     1     -11.791  13.510  64.280  1.00  0.00    -0.471 C  
HETATM    7  C   UNL     1     -10.718  13.442  65.090  1.00  0.00    -0.330 C  
HETATM    8  N   UNL     1     -10.086  14.558  65.631  1.00  0.00    -0.341 NA 
HETATM    9  C   UNL     1     -12.386  14.837  63.895  1.00  0.00     0.030 C  
HETATM   10  C   UNL     1     -10.698  15.802  65.434  1.00  0.00    -0.404 C  
HETATM   11  C   UNL     1     -11.765  15.990  64.644  1.00  0.00    -0.073 C  
BRANCH   8  12
HETATM   12  C   UNL     1      -8.744  14.535  66.252  1.00  0.00     0.209 C  
HETATM   13  O   UNL     1      -8.644  13.365  67.096  1.00  0.00    -0.204 OA 
HETATM   14  C   UNL     1      -9.096  13.738  68.417  1.00  0.00    -0.175 C  
HETATM   15  H   UNL     1      -6.658  16.491  67.905  1.00  0.00     0.000 HD 
HETATM   16  C   UNL     1      -8.920  15.249  68.545  1.00  0.00    -0.187 C  
HETATM   17  H   UNL     1      -7.919  16.503  69.702  1.00  0.00     0.000 HD 
HETATM   18  C   UNL     1      -8.346  15.679  67.199  1.00  0.00    -0.208 C  
HETATM   19  O   UNL     1      -8.028  15.562  69.622  1.00  0.00    -0.217 OA 
HETATM   20  O   UNL     1      -6.905  15.784  67.319  1.00  0.00    -0.185 OA 
BRANCH  14  21
HETATM   21  C   UNL     1     -10.555  13.304  68.625  1.00  0.00    -0.246 C  
BRANCH  21  22
HETATM   22  O   UNL     1     -10.841  12.104  67.915  1.00  0.00    -0.203 OA 
BRANCH  22  23
HETATM   23  P   UNL     1     -11.094  10.770  68.754  1.00  0.00    -0.303 P  
HETATM   24  O   UNL     1     -10.290  10.584  69.998  1.00  0.00    -0.195 OA 
HETATM   25  O   UNL     1     -12.642  10.932  69.159  1.00  0.00    -0.361 OA 
BRANCH  23  26
HETATM   26  O   UNL     1     -11.136   9.565  67.732  1.00  0.00    -0.186 OA 
BRANCH  26  27
HETATM   27  P   UNL     1     -10.050   9.281  66.619  1.00  0.00    -0.236 P  
HETATM   28  O   UNL     1      -8.671   9.610  67.376  1.00  0.00    -0.128 OA 
HETATM   29  O   UNL     1     -10.123  10.064  65.353  1.00  0.00    -0.310 OA 
BRANCH  27  30
HETATM   30  O   UNL     1      -9.976   7.690  66.420  1.00  0.00    -0.182 OA 
BRANCH  30  31
HETATM   31  C   UNL     1      -8.773   7.064  65.989  1.00  0.00    -0.144 C  
BRANCH  31  32
HETATM   32  C   UNL     1      -8.505   5.727  66.673  1.00  0.00    -0.113 C  
HETATM   33  O   UNL     1      -8.569   5.849  68.108  1.00  0.00    -0.114 OA 
HETATM   34  C   UNL     1      -8.680   4.488  68.566  1.00  0.00    -0.099 C  
HETATM   35  H   UNL     1      -9.802   3.271  64.938  1.00  0.00     0.000 HD 
HETATM   36  C   UNL     1      -9.637   3.805  67.575  1.00  0.00    -0.155 C  
HETATM   37  C   UNL     1      -9.543   4.669  66.315  1.00  0.00    -0.184 C  
HETATM   38  H   UNL     1      -9.883   2.024  66.676  1.00  0.00     0.000 HD 
HETATM   39  O   UNL     1      -9.292   2.447  67.288  1.00  0.00    -0.142 OA 
HETATM   40  O   UNL     1      -9.156   3.930  65.162  1.00  0.00    -0.128 OA 
BRANCH  34  41
HETATM   41  N   UNL     1      -9.149   4.448  69.936  1.00  0.00    -0.100 NA 
HETATM   42  C   UNL     1      -8.684   3.676  70.963  1.00  0.00    -0.078 A  
HETATM   43  N   UNL     1      -9.315   3.929  72.093  1.00  0.00    -0.119 NA 
HETATM   44  C   UNL     1     -10.251   4.891  71.769  1.00  0.00    -0.200 A  
HETATM   45  C   UNL     1     -11.213   5.578  72.526  1.00  0.00    -0.274 A  
HETATM   46  N   UNL     1     -11.366   5.410  73.895  1.00  0.00    -0.349 NA 
HETATM   47  N   UNL     1     -12.034   6.447  71.891  1.00  0.00    -0.338 NA 
HETATM   48  H1  UNL     1     -12.065   5.910  74.445  1.00  0.00     0.000 HD 
HETATM   49  C   UNL     1     -11.859   6.647  70.566  1.00  0.00    -0.370 A  
HETATM   50  H2  UNL     1     -10.458   5.587  74.326  1.00  0.00     0.000 HD 
HETATM   51  N   UNL     1     -10.939   6.089  69.745  1.00  0.00    -0.372 NA 
HETATM   52  C   UNL     1     -10.181   5.207  70.422  1.00  0.00    -0.264 A  
ENDBRANCH  34  41
ENDBRANCH  31  32
ENDBRANCH  30  31
ENDBRANCH  27  30
ENDBRANCH  26  27
ENDBRANCH  23  26
ENDBRANCH  22  23
ENDBRANCH  21  22
ENDBRANCH  14  21
ENDBRANCH   8  12
ENDBRANCH   4   6
TORSDOF 11
ENDMDL
MODEL      110
REMARK 921   NORMALIZED FREE ENERGY PREDICTED BY IDOCK:   -6.22 KCAL/MOL
REMARK 922        TOTAL FREE ENERGY PREDICTED BY IDOCK:  -12.42 KCAL/MOL
REMARK 923 INTER-LIGAND FREE ENERGY PREDICTED BY IDOCK:  -10.88 KCAL/MOL
REMARK 924 INTRA-LIGAND FREE ENERGY PREDICTED BY IDOCK:   -1.53 KCAL/MOL
REMARK 927      BINDING AFFINITY PREDICTED BY RF-SCORE:    0.00 PKD
ROOT
HETATM    1  N   UNL     1      -7.132   3.597  69.663  1.00  0.00    -0.042 N  
HETATM    2  H1  UNL     1      -7.307   4.379  70.295  1.00  0.00     0.000 HD 
HETATM    3  H2  UNL     1      -6.366   2.952  69.858  1.00  0.00     0.000 HD 
HETATM    4  C   UNL     1      -7.904   3.406  68.571  1.00  0.00    -0.058 C  
HETATM    5  O   UNL     1      -7.694   2.463  67.808  1.00  0.00    -0.059 OA 
ENDROOT
BRANCH   4   6
HETATM    6  C   UNL     1      -8.989   4.388  68.343  1.00  0.00    -0.149 C  
HETATM    7  C   UNL     1      -9.639   4.827  69.437  1.00  0.00    -0.179 C  
HETATM    8  N   UNL     1     -10.639   5.795  69.404  1.00  0.00    -0.287 NA 
HETATM    9  C   UNL     1      -9.310   4.938  66.980  1.00  0.00    -0.136 C  
HETATM   10  C   UNL     1     -11.085   6.217  68.146  1.00  0.00    -0.227 C  
HETATM   11  C   UNL     1     -10.511   5.851  66.991  1.00  0.00    -0.341 C  
BRANCH   8  12
HETATM   12  C   UNL     1     -11.141   6.513  70.596  1.00  0.00    -0.309 C  
HETATM   13  O   UNL     1     -11.228   7.922  70.287  1.00  0.00    -0.264 OA 
HETATM   14  C   UNL     1      -9.960   8.525  70.629  1.00  0.00    -0.189 C  
HETATM   15  H   UNL     1     -10.588   6.774  73.842  1.00  0.00     0.000 HD 
HETATM   16  C   UNL     1      -9.303   7.632  71.678  1.00  0.00    -0.138 C  
HETATM   17  H   UNL     1      -8.672   7.804  73.545  1.00  0.00     0.000 HD 
HETATM   18  C   UNL     1     -10.298   6.493  71.881  1.00  0.00    -0.200 C  
HETATM   19  O   UNL     1      -9.082   8.360  72.892  1.00  0.00    -0.254 OA 
HETATM   20  O   UNL     1     -11.109   6.786  73.047  1.00  0.00    -0.263 OA 
BRANCH  14  21
HETATM   21  C   UNL     1      -9.088   8.684  69.374  1.00  0.00    -0.149 C  
BRANCH  21  22
HETATM   22  O   UNL     1      -9.778   9.398  68.355  1.00  0.00    -0.145 OA 
BRANCH  22  23
HETATM   23  P   UNL     1      -8.953   9.882  67.077  1.00  0.00    -0.139 P  
HETATM   24  O   UNL     1      -7.583   9.321  66.898  1.00  0.00    -0.090 OA 
HETATM   25  O   UNL     1      -9.886   9.362  65.874  1.00  0.00    -0.281 OA 
BRANCH  23  26
HETATM   26  O   UNL     1      -9.112  11.451  66.973  1.00  0.00    -0.161 OA 
BRANCH  26  27
HETATM   27  P   UNL     1      -8.403  12.500  67.921  1.00  0.00    -0.189 P  
HETATM   28  O   UNL     1      -7.177  13.020  67.021  1.00  0.00    -0.020 OA 
HETATM   29  O   UNL     1      -7.889  12.021  69.236  1.00  0.00     0.160 OA 
BRANCH  27  30
HETATM   30  O   UNL     1      -9.356  13.788  68.004  1.00  0.00    -0.186 OA 
BRANCH  30  31
HETATM   31  C   UNL     1     -10.742  13.692  67.695  1.00  0.00    -0.245 C  
BRANCH  31  32
HETATM   32  C   UNL     1     -11.260  14.855  66.855  1.00  0.00    -0.343 C  
HETATM   33  O   UNL     1     -10.779  16.118  67.353  1.00  0.00    -0.312 OA 
HETATM   34  C   UNL     1     -11.024  17.033  66.268  1.00  0.00     0.190 C  
HETATM   35  H   UNL     1     -11.399  14.011  63.693  1.00  0.00     0.000 HD 
HETATM   36  C   UNL     1     -10.661  16.255  64.993  1.00  0.00    -0.298 C  
HETATM   37  C   UNL     1     -10.785  14.787  65.407  1.00  0.00    -0.371 C  
HETATM   38  H   UNL     1     -11.291  16.062  63.093  1.00  0.00     0.000 HD 
HETATM   39  O   UNL     1     -11.514  16.543  63.881  1.00  0.00    -1.145 OA 
HETATM   40  O   UNL     1     -11.694  14.054  64.595  1.00  0.00    -0.367 OA 
BRANCH  34  41
HETATM   41  N   UNL     1     -10.250  18.246  66.438  1.00  0.00    -0.386 NA 
HETATM   42  C   UNL     1     -10.705  19.503  66.724  1.00  0.00    -0.460 A  
HETATM   43  N   UNL     1      -9.716  20.365  66.854  1.00  0.00    -0.439 NA 
HETATM   44  C   UNL     1      -8.572  19.633  66.613  1.00  0.00    -0.343 A  
HETATM   45  C   UNL     1      -7.208  19.967  66.612  1.00  0.00    -0.249 A  
HETATM   46  N   UNL     1      -6.734  21.231  66.935  1.00  0.00    -0.658 NA 
HETATM   47  N   UNL     1      -6.309  19.011  66.278  1.00  0.00    -0.178 NA 
HETATM   48  H1  UNL     1      -5.743  21.473  66.935  1.00  0.00     0.000 HD 
HETATM   49  C   UNL     1      -6.763  17.768  66.007  1.00  0.00    -0.281 A  
HETATM   50  H2  UNL     1      -7.104  21.467  67.856  1.00  0.00     0.000 HD 
HETATM   51  N   UNL     1      -8.037  17.314  66.026  1.00  0.00    -0.525 NA 
HETATM   52  C   UNL     1      -8.886  18.315  66.324  1.00  0.00    -0.178 A  
ENDBRANCH  34  41
ENDBRANCH  31  32
ENDBRANCH  30  31
ENDBRANCH  27  30
ENDBRANCH  26  27
ENDBRANCH  23  26
ENDBRANCH  22  23
ENDBRANCH  21  22
ENDBRANCH  14  21
ENDBRANCH   8  12
ENDBRANCH   4   6
TORSDOF 11
ENDMDL
MODEL      111
REMARK 921   NORMALIZED FREE ENERGY PREDICTED BY IDOCK:   -6.17 KCAL/MOL
REMARK 922        TOTAL FREE ENERGY PREDICTED BY IDOCK:  -12.34 KCAL/MOL
REMARK 923 INTER-LIGAND FREE ENERGY PREDICTED BY IDOCK:   -9.31 KCAL/MOL
REMARK 924 INTRA-LIGAND FREE ENERGY PREDICTED BY IDOCK:   -3.03 KCAL/MOL
REMARK 927      BINDING AFFINITY PREDICTED BY RF-SCORE:    0.00 PKD
ROOT
HETATM    1  N   UNL     1      -7.731   8.053  67.575  1.00  0.00    -0.104 N  
HETATM    2  H1  UNL     1      -7.294   8.862  68.017  1.00  0.00     0.000 HD 
HETATM    3  H2  UNL     1      -7.426   7.759  66.647  1.00  0.00     0.000 HD 
HETATM    4  C   UNL     1      -8.710   7.366  68.205  1.00  0.00    -0.122 C  
HETATM    5  O   UNL     1      -9.237   6.390  67.672  1.00  0.00    -0.118 OA 
ENDROOT
BRANCH   4   6
HETATM    6  C   UNL     1      -9.111   7.857  69.543  1.00  0.00    -0.149 C  
HETATM    7  C   UNL     1     -10.390   8.257  69.675  1.00  0.00    -0.218 C  
HETATM    8  N   UNL     1     -10.944   8.686  70.878  1.00  0.00    -0.244 NA 
HETATM    9  C   UNL     1      -8.179   7.845  70.723  1.00  0.00    -0.110 C  
HETATM   10  C   UNL     1     -10.077   8.846  71.965  1.00  0.00    -0.281 C  
HETATM   11  C   UNL     1      -8.788   8.477  71.950  1.00  0.00    -0.284 C  
BRANCH   8  12
HETATM   12  C   UNL     1     -12.397   8.826  71.121  1.00  0.00    -0.219 C  
HETATM   13  O   UNL     1     -12.997   9.483  69.981  1.00  0.00     0.579 OA 
HETATM   14  C   UNL     1     -12.960  10.906  70.227  1.00  0.00    -0.043 C  
HETATM   15  H   UNL     1     -14.512   9.865  73.434  1.00  0.00     0.000 HD 
HETATM   16  C   UNL     1     -12.881  11.103  71.739  1.00  0.00    -0.374 C  
HETATM   17  H   UNL     1     -13.961  11.970  73.150  1.00  0.00     0.000 HD 
HETATM   18  C   UNL     1     -12.871   9.685  72.304  1.00  0.00    -0.325 C  
HETATM   19  O   UNL     1     -14.010  11.848  72.209  1.00  0.00    -0.002 OA 
HETATM   20  O   UNL     1     -14.219   9.333  72.703  1.00  0.00    -0.498 OA 
BRANCH  14  21
HETATM   21  C   UNL     1     -11.768  11.544  69.496  1.00  0.00    -0.346 C  
BRANCH  21  22
HETATM   22  O   UNL     1     -12.039  11.699  68.108  1.00  0.00    -0.577 OA 
BRANCH  22  23
HETATM   23  P   UNL     1     -11.444  12.976  67.358  1.00  0.00    -0.371 P  
HETATM   24  O   UNL     1     -12.419  13.989  66.860  1.00  0.00    -0.364 OA 
HETATM   25  O   UNL     1     -10.551  13.645  68.516  1.00  0.00    -0.240 OA 
BRANCH  23  26
HETATM   26  O   UNL     1     -10.349  12.464  66.340  1.00  0.00    -0.229 OA 
BRANCH  26  27
HETATM   27  P   UNL     1      -9.567  11.095  66.461  1.00  0.00    -0.211 P  
HETATM   28  O   UNL     1      -8.673  11.077  65.126  1.00  0.00    -0.161 OA 
HETATM   29  O   UNL     1     -10.364   9.838  66.543  1.00  0.00    -0.234 OA 
BRANCH  27  30
HETATM   30  O   UNL     1      -8.473  11.270  67.621  1.00  0.00    -0.120 OA 
BRANCH  30  31
HETATM   31  C   UNL     1      -7.115  11.559  67.306  1.00  0.00    -0.128 C  
BRANCH  31  32
HETATM   32  C   UNL     1      -6.695  12.980  67.669  1.00  0.00    -0.157 C  
HETATM   33  O   UNL     1      -7.301  13.947  66.790  1.00  0.00     0.325 OA 
HETATM   34  C   UNL     1      -7.126  15.199  67.480  1.00  0.00    -0.198 C  
HETATM   35  H   UNL     1      -6.428  13.301  70.917  1.00  0.00     0.000 HD 
HETATM   36  C   UNL     1      -7.393  14.885  68.961  1.00  0.00    -0.143 C  
HETATM   37  C   UNL     1      -7.139  13.380  69.072  1.00  0.00    -0.053 C  
HETATM   38  H   UNL     1      -6.719  15.417  70.779  1.00  0.00     0.000 HD 
HETATM   39  O   UNL     1      -6.554  15.611  69.863  1.00  0.00    -0.171 OA 
HETATM   40  O   UNL     1      -6.152  13.052  70.043  1.00  0.00    -0.139 OA 
BRANCH  34  41
HETATM   41  N   UNL     1      -8.013  16.209  66.939  1.00  0.00    -0.218 NA 
HETATM   42  C   UNL     1      -9.155  16.026  66.212  1.00  0.00    -0.344 A  
HETATM   43  N   UNL     1      -9.740  17.170  65.919  1.00  0.00    -0.529 NA 
HETATM   44  C   UNL     1      -8.919  18.138  66.462  1.00  0.00    -0.275 A  
HETATM   45  C   UNL     1      -8.995  19.540  66.503  1.00  0.00    -0.361 A  
HETATM   46  N   UNL     1     -10.059  20.260  65.979  1.00  0.00    -0.585 NA 
HETATM   47  N   UNL     1      -7.980  20.224  67.081  1.00  0.00    -0.328 NA 
HETATM   48  H1  UNL     1     -10.114  21.278  66.010  1.00  0.00     0.000 HD 
HETATM   49  C   UNL     1      -6.964  19.525  67.632  1.00  0.00    -0.234 A  
HETATM   50  H2  UNL     1     -10.911  19.897  66.407  1.00  0.00     0.000 HD 
HETATM   51  N   UNL     1      -6.806  18.183  67.702  1.00  0.00    -0.195 NA 
HETATM   52  C   UNL     1      -7.821  17.559  67.078  1.00  0.00    -0.214 A  
ENDBRANCH  34  41
ENDBRANCH  31  32
ENDBRANCH  30  31
ENDBRANCH  27  30
ENDBRANCH  26  27
ENDBRANCH  23  26
ENDBRANCH  22  23
ENDBRANCH  21  22
ENDBRANCH  14  21
ENDBRANCH   8  12
ENDBRANCH   4   6
TORSDOF 11
ENDMDL
MODEL      112
REMARK 921   NORMALIZED FREE ENERGY PREDICTED BY IDOCK:   -6.16 KCAL/MOL
REMARK 922        TOTAL FREE ENERGY PREDICTED BY IDOCK:  -12.32 KCAL/MOL
REMARK 923 INTER-LIGAND FREE ENERGY PREDICTED BY IDOCK:  -11.04 KCAL/MOL
REMARK 924 INTRA-LIGAND FREE ENERGY PREDICTED BY IDOCK:   -1.29 KCAL/MOL
REMARK 927      BINDING AFFINITY PREDICTED BY RF-SCORE:    0.00 PKD
ROOT
HETATM    1  N   UNL     1     -11.329   4.781  65.241  1.00  0.00    -0.965 N  
HETATM    2  H1  UNL     1     -11.770   5.507  65.807  1.00  0.00     0.000 HD 
HETATM    3  H2  UNL     1     -11.803   4.435  64.407  1.00  0.00     0.000 HD 
HETATM    4  C   UNL     1     -10.125   4.274  65.585  1.00  0.00    -0.219 C  
HETATM    5  O   UNL     1      -9.593   3.398  64.902  1.00  0.00    -0.155 OA 
ENDROOT
BRANCH   4   6
HETATM    6  C   UNL     1      -9.502   4.813  66.815  1.00  0.00    -0.163 C  
HETATM    7  C   UNL     1     -10.342   5.176  67.802  1.00  0.00    -0.094 C  
HETATM    8  N   UNL     1      -9.919   5.642  69.044  1.00  0.00    -0.160 NA 
HETATM    9  C   UNL     1      -8.011   4.888  67.002  1.00  0.00    -0.103 C  
HETATM   10  C   UNL     1      -8.550   5.882  69.208  1.00  0.00    -0.112 C  
HETATM   11  C   UNL     1      -7.622   5.556  68.297  1.00  0.00    -0.081 C  
BRANCH   8  12
HETATM   12  C   UNL     1     -10.791   5.745  70.235  1.00  0.00    -0.303 C  
HETATM   13  O   UNL     1     -11.802   6.747  69.985  1.00  0.00    -0.316 OA 
HETATM   14  C   UNL     1     -11.277   8.018  70.431  1.00  0.00    -0.229 C  
HETATM   15  H   UNL     1     -10.607   6.065  73.516  1.00  0.00     0.000 HD 
HETATM   16  C   UNL     1     -10.205   7.723  71.477  1.00  0.00    -0.182 C  
HETATM   17  H   UNL     1      -9.884   8.133  73.385  1.00  0.00     0.000 HD 
HETATM   18  C   UNL     1     -10.174   6.200  71.567  1.00  0.00    -0.203 C  
HETATM   19  O   UNL     1     -10.551   8.317  72.734  1.00  0.00    -0.340 OA 
HETATM   20  O   UNL     1     -10.988   5.784  72.692  1.00  0.00    -0.235 OA 
BRANCH  14  21
HETATM   21  C   UNL     1     -10.723   8.816  69.241  1.00  0.00    -0.151 C  
BRANCH  21  22
HETATM   22  O   UNL     1     -10.400  10.148  69.621  1.00  0.00    -0.219 OA 
BRANCH  22  23
HETATM   23  P   UNL     1     -11.235  11.345  68.972  1.00  0.00    -0.308 P  
HETATM   24  O   UNL     1     -12.155  11.003  67.848  1.00  0.00    -0.600 OA 
HETATM   25  O   UNL     1     -12.113  11.842  70.225  1.00  0.00    -0.338 OA 
BRANCH  23  26
HETATM   26  O   UNL     1     -10.243  12.555  68.753  1.00  0.00    -0.188 OA 
BRANCH  26  27
HETATM   27  P   UNL     1      -9.036  12.566  67.732  1.00  0.00    -0.209 P  
HETATM   28  O   UNL     1      -9.269  13.935  66.923  1.00  0.00    -0.242 OA 
HETATM   29  O   UNL     1      -8.922  11.433  66.770  1.00  0.00    -0.165 OA 
BRANCH  27  30
HETATM   30  O   UNL     1      -7.703  12.869  68.571  1.00  0.00    -0.129 OA 
BRANCH  30  31
HETATM   31  C   UNL     1      -6.476  13.160  67.912  1.00  0.00    -0.138 C  
BRANCH  31  32
HETATM   32  C   UNL     1      -5.977  14.581  68.156  1.00  0.00    -0.136 C  
HETATM   33  O   UNL     1      -6.467  15.490  67.150  1.00  0.00    -0.302 OA 
HETATM   34  C   UNL     1      -6.241  16.792  67.722  1.00  0.00    -0.144 C  
HETATM   35  H   UNL     1      -5.858  15.219  71.366  1.00  0.00     0.000 HD 
HETATM   36  C   UNL     1      -6.607  16.651  69.208  1.00  0.00    -0.214 C  
HETATM   37  C   UNL     1      -6.464  15.152  69.483  1.00  0.00    -0.151 C  
HETATM   38  H   UNL     1      -5.992  17.323  71.000  1.00  0.00     0.000 HD 
HETATM   39  O   UNL     1      -5.766  17.411  70.081  1.00  0.00    -0.240 OA 
HETATM   40  O   UNL     1      -5.554  14.864  70.539  1.00  0.00    -0.129 OA 
BRANCH  34  41
HETATM   41  N   UNL     1      -7.026  17.796  67.031  1.00  0.00    -0.170 NA 
HETATM   42  C   UNL     1      -6.626  18.637  66.031  1.00  0.00    -0.241 A  
HETATM   43  N   UNL     1      -7.616  19.394  65.602  1.00  0.00    -0.438 NA 
HETATM   44  C   UNL     1      -8.698  19.042  66.383  1.00  0.00    -0.317 A  
HETATM   45  C   UNL     1     -10.034  19.473  66.412  1.00  0.00    -0.438 A  
HETATM   46  N   UNL     1     -10.553  20.402  65.522  1.00  0.00    -0.247 NA 
HETATM   47  N   UNL     1     -10.858  18.957  67.354  1.00  0.00    -0.441 NA 
HETATM   48  H1  UNL     1     -11.524  20.715  65.543  1.00  0.00     0.000 HD 
HETATM   49  C   UNL     1     -10.369  18.019  68.194  1.00  0.00    -0.388 A  
HETATM   50  H2  UNL     1     -10.365  20.059  64.580  1.00  0.00     0.000 HD 
HETATM   51  N   UNL     1      -9.124  17.489  68.230  1.00  0.00    -0.266 NA 
HETATM   52  C   UNL     1      -8.342  18.066  67.300  1.00  0.00    -0.229 A  
ENDBRANCH  34  41
ENDBRANCH  31  32
ENDBRANCH  30  31
ENDBRANCH  27  30
ENDBRANCH  26  27
ENDBRANCH  23  26
ENDBRANCH  22  23
ENDBRANCH  21  22
ENDBRANCH  14  21
ENDBRANCH   8  12
ENDBRANCH   4   6
TORSDOF 11
ENDMDL
MODEL      113
REMARK 921   NORMALIZED FREE ENERGY PREDICTED BY IDOCK:   -6.13 KCAL/MOL
REMARK 922        TOTAL FREE ENERGY PREDICTED BY IDOCK:  -12.28 KCAL/MOL
REMARK 923 INTER-LIGAND FREE ENERGY PREDICTED BY IDOCK:  -10.68 KCAL/MOL
REMARK 924 INTRA-LIGAND FREE ENERGY PREDICTED BY IDOCK:   -1.60 KCAL/MOL
REMARK 927      BINDING AFFINITY PREDICTED BY RF-SCORE:    0.00 PKD
ROOT
HETATM    1  N   UNL     1     -11.870  16.427  71.743  1.00  0.00    -0.662 N  
HETATM    2  H1  UNL     1     -11.666  17.366  71.399  1.00  0.00     0.000 HD 
HETATM    3  H2  UNL     1     -12.123  16.293  72.722  1.00  0.00     0.000 HD 
HETATM    4  C   UNL     1     -11.807  15.360  70.917  1.00  0.00    -0.356 C  
HETATM    5  O   UNL     1     -12.052  14.227  71.332  1.00  0.00    -0.340 OA 
ENDROOT
BRANCH   4   6
HETATM    6  C   UNL     1     -11.419  15.627  69.513  1.00  0.00    -0.349 C  
HETATM    7  C   UNL     1     -11.769  14.694  68.608  1.00  0.00    -0.329 C  
HETATM    8  N   UNL     1     -11.536  14.820  67.240  1.00  0.00    -0.379 NA 
HETATM    9  C   UNL     1     -10.739  16.900  69.089  1.00  0.00    -0.298 C  
HETATM   10  C   UNL     1     -10.765  15.909  66.817  1.00  0.00    -0.281 C  
HETATM   11  C   UNL     1     -10.366  16.899  67.628  1.00  0.00    -0.317 C  
BRANCH   8  12
HETATM   12  C   UNL     1     -12.179  13.979  66.207  1.00  0.00    -0.462 C  
HETATM   13  O   UNL     1     -11.872  12.593  66.480  1.00  0.00    -0.396 OA 
HETATM   14  C   UNL     1     -10.648  12.270  65.783  1.00  0.00    -0.254 C  
HETATM   15  H   UNL     1     -12.494  13.757  62.927  1.00  0.00     0.000 HD 
HETATM   16  C   UNL     1     -10.512  13.256  64.626  1.00  0.00    -0.402 C  
HETATM   17  H   UNL     1     -10.396  13.175  62.653  1.00  0.00     0.000 HD 
HETATM   18  C   UNL     1     -11.745  14.147  64.741  1.00  0.00    -0.410 C  
HETATM   19  O   UNL     1     -10.481  12.561  63.374  1.00  0.00    -0.397 OA 
HETATM   20  O   UNL     1     -12.762  13.654  63.833  1.00  0.00    -0.675 OA 
BRANCH  14  21
HETATM   21  C   UNL     1      -9.451  12.337  66.746  1.00  0.00    -0.222 C  
BRANCH  21  22
HETATM   22  O   UNL     1      -8.986  11.035  67.078  1.00  0.00    -0.145 OA 
BRANCH  22  23
HETATM   23  P   UNL     1      -7.410  10.784  67.134  1.00  0.00    -0.113 P  
HETATM   24  O   UNL     1      -6.526  11.981  67.033  1.00  0.00    -0.149 OA 
HETATM   25  O   UNL     1      -7.237  10.135  68.595  1.00  0.00    -0.076 OA 
BRANCH  23  26
HETATM   26  O   UNL     1      -7.088   9.564  66.182  1.00  0.00    -0.089 OA 
BRANCH  26  27
HETATM   27  P   UNL     1      -8.106   8.414  65.804  1.00  0.00    -0.133 P  
HETATM   28  O   UNL     1      -7.135   7.204  65.385  1.00  0.00    -0.061 OA 
HETATM   29  O   UNL     1      -9.081   8.674  64.707  1.00  0.00    -0.001 OA 
BRANCH  27  30
HETATM   30  O   UNL     1      -8.761   7.888  67.171  1.00  0.00    -0.128 OA 
BRANCH  30  31
HETATM   31  C   UNL     1      -9.969   7.135  67.159  1.00  0.00    -0.209 C  
BRANCH  31  32
HETATM   32  C   UNL     1     -10.815   7.323  68.415  1.00  0.00    -0.058 C  
HETATM   33  O   UNL     1     -10.743   6.168  69.273  1.00  0.00    -0.247 OA 
HETATM   34  C   UNL     1     -11.253   6.642  70.534  1.00  0.00    -0.334 C  
HETATM   35  H   UNL     1     -10.681  10.432  69.433  1.00  0.00     0.000 HD 
HETATM   36  C   UNL     1     -10.667   8.054  70.702  1.00  0.00    -0.228 C  
HETATM   37  C   UNL     1     -10.338   8.490  69.272  1.00  0.00    -0.221 C  
HETATM   38  H   UNL     1     -11.203   9.851  71.426  1.00  0.00     0.000 HD 
HETATM   39  O   UNL     1     -11.565   8.979  71.322  1.00  0.00    -0.275 OA 
HETATM   40  O   UNL     1     -10.978   9.705  68.900  1.00  0.00    -0.202 OA 
BRANCH  34  41
HETATM   41  N   UNL     1     -10.887   5.739  71.606  1.00  0.00    -0.255 NA 
HETATM   42  C   UNL     1     -11.612   5.412  72.717  1.00  0.00    -0.226 A  
HETATM   43  N   UNL     1     -10.991   4.520  73.464  1.00  0.00    -0.280 NA 
HETATM   44  C   UNL     1      -9.797   4.283  72.814  1.00  0.00    -0.144 A  
HETATM   45  C   UNL     1      -8.712   3.435  73.092  1.00  0.00    -0.081 A  
HETATM   46  N   UNL     1      -8.685   2.563  74.171  1.00  0.00    -0.073 NA 
HETATM   47  N   UNL     1      -7.639   3.469  72.268  1.00  0.00    -0.057 NA 
HETATM   48  H1  UNL     1      -7.897   1.947  74.373  1.00  0.00     0.000 HD 
HETATM   49  C   UNL     1      -7.680   4.283  71.191  1.00  0.00    -0.067 A  
HETATM   50  H2  UNL     1      -9.520   1.979  74.111  1.00  0.00     0.000 HD 
HETATM   51  N   UNL     1      -8.681   5.101  70.791  1.00  0.00    -0.126 NA 
HETATM   52  C   UNL     1      -9.701   5.055  71.668  1.00  0.00    -0.170 A  
ENDBRANCH  34  41
ENDBRANCH  31  32
ENDBRANCH  30  31
ENDBRANCH  27  30
ENDBRANCH  26  27
ENDBRANCH  23  26
ENDBRANCH  22  23
ENDBRANCH  21  22
ENDBRANCH  14  21
ENDBRANCH   8  12
ENDBRANCH   4   6
TORSDOF 11
ENDMDL
MODEL      114
REMARK 921   NORMALIZED FREE ENERGY PREDICTED BY IDOCK:   -6.13 KCAL/MOL
REMARK 922        TOTAL FREE ENERGY PREDICTED BY IDOCK:  -12.27 KCAL/MOL
REMARK 923 INTER-LIGAND FREE ENERGY PREDICTED BY IDOCK:  -10.27 KCAL/MOL
REMARK 924 INTRA-LIGAND FREE ENERGY PREDICTED BY IDOCK:   -2.00 KCAL/MOL
REMARK 927      BINDING AFFINITY PREDICTED BY RF-SCORE:    0.00 PKD
ROOT
HETATM    1  N   UNL     1     -13.106   9.027  70.947  1.00  0.00    -0.515 N  
HETATM    2  H1  UNL     1     -13.704   8.202  70.892  1.00  0.00     0.000 HD 
HETATM    3  H2  UNL     1     -13.528   9.950  71.053  1.00  0.00     0.000 HD 
HETATM    4  C   UNL     1     -11.761   8.910  70.881  1.00  0.00    -0.267 C  
HETATM    5  O   UNL     1     -11.040   9.905  70.947  1.00  0.00    -0.319 OA 
ENDROOT
BRANCH   4   6
HETATM    6  C   UNL     1     -11.220   7.543  70.713  1.00  0.00    -0.287 C  
HETATM    7  C   UNL     1     -10.527   7.042  71.753  1.00  0.00    -0.202 C  
HETATM    8  N   UNL     1     -10.005   5.751  71.783  1.00  0.00    -0.166 NA 
HETATM    9  C   UNL     1     -11.483   6.712  69.487  1.00  0.00    -0.323 C  
HETATM   10  C   UNL     1     -10.083   4.998  70.606  1.00  0.00    -0.243 C  
HETATM   11  C   UNL     1     -10.752   5.393  69.512  1.00  0.00    -0.249 C  
BRANCH   8  12
HETATM   12  C   UNL     1      -9.525   5.077  73.009  1.00  0.00    -0.142 C  
HETATM   13  O   UNL     1      -8.416   5.830  73.549  1.00  0.00    -0.115 OA 
HETATM   14  C   UNL     1      -7.204   5.311  72.957  1.00  0.00    -0.090 C  
HETATM   15  H   UNL     1      -8.645   2.088  74.103  1.00  0.00     0.000 HD 
HETATM   16  C   UNL     1      -7.495   3.880  72.512  1.00  0.00    -0.063 C  
HETATM   17  H   UNL     1      -6.807   2.068  72.904  1.00  0.00     0.000 HD 
HETATM   18  C   UNL     1      -8.954   3.654  72.897  1.00  0.00    -0.096 C  
HETATM   19  O   UNL     1      -6.626   2.959  73.181  1.00  0.00    -0.020 OA 
HETATM   20  O   UNL     1      -8.998   2.967  74.172  1.00  0.00    -0.079 OA 
BRANCH  14  21
HETATM   21  C   UNL     1      -6.756   6.203  71.788  1.00  0.00    -0.063 C  
BRANCH  21  22
HETATM   22  O   UNL     1      -6.032   7.335  72.254  1.00  0.00    -0.040 OA 
BRANCH  22  23
HETATM   23  P   UNL     1      -6.541   8.787  71.828  1.00  0.00    -0.005 P  
HETATM   24  O   UNL     1      -7.964   9.124  72.122  1.00  0.00    -0.310 OA 
HETATM   25  O   UNL     1      -5.592   9.735  72.715  1.00  0.00    -0.297 OA 
BRANCH  23  26
HETATM   26  O   UNL     1      -6.019   9.064  70.362  1.00  0.00    -0.033 OA 
BRANCH  26  27
HETATM   27  P   UNL     1      -6.942   9.287  69.097  1.00  0.00    -0.060 P  
HETATM   28  O   UNL     1      -8.016   8.100  69.228  1.00  0.00    -0.111 OA 
HETATM   29  O   UNL     1      -6.306   9.238  67.750  1.00  0.00    -0.057 OA 
BRANCH  27  30
HETATM   30  O   UNL     1      -7.823  10.599  69.375  1.00  0.00    -0.149 OA 
BRANCH  30  31
HETATM   31  C   UNL     1      -7.847  11.673  68.440  1.00  0.00    -0.137 C  
BRANCH  31  32
HETATM   32  C   UNL     1      -9.253  12.176  68.129  1.00  0.00    -0.197 C  
HETATM   33  O   UNL     1      -9.257  13.592  67.863  1.00  0.00    -0.194 OA 
HETATM   34  C   UNL     1     -10.531  13.821  67.231  1.00  0.00    -0.264 C  
HETATM   35  H   UNL     1     -10.919   9.937  66.416  1.00  0.00     0.000 HD 
HETATM   36  C   UNL     1     -10.737  12.623  66.290  1.00  0.00    -0.256 C  
HETATM   37  C   UNL     1      -9.842  11.531  66.879  1.00  0.00    -0.197 C  
HETATM   38  H   UNL     1     -12.222  11.441  65.629  1.00  0.00     0.000 HD 
HETATM   39  O   UNL     1     -12.095  12.181  66.210  1.00  0.00    -0.626 OA 
HETATM   40  O   UNL     1     -10.553  10.339  67.194  1.00  0.00    -0.247 OA 
BRANCH  34  41
HETATM   41  N   UNL     1     -10.539  15.097  66.545  1.00  0.00    -0.298 NA 
HETATM   42  C   UNL     1     -10.700  15.335  65.210  1.00  0.00    -0.415 A  
HETATM   43  N   UNL     1     -10.699  16.625  64.937  1.00  0.00    -0.717 NA 
HETATM   44  C   UNL     1     -10.500  17.245  66.153  1.00  0.00    -0.278 A  
HETATM   45  C   UNL     1     -10.415  18.595  66.533  1.00  0.00    -0.420 A  
HETATM   46  N   UNL     1     -10.579  19.647  65.644  1.00  0.00    -0.464 NA 
HETATM   47  N   UNL     1     -10.157  18.885  67.830  1.00  0.00    -0.352 NA 
HETATM   48  H1  UNL     1     -10.517  20.627  65.920  1.00  0.00     0.000 HD 
HETATM   49  C   UNL     1     -10.041  17.864  68.707  1.00  0.00    -0.384 A  
HETATM   50  H2  UNL     1     -11.481  19.518  65.184  1.00  0.00     0.000 HD 
HETATM   51  N   UNL     1     -10.155  16.536  68.474  1.00  0.00    -0.243 NA 
HETATM   52  C   UNL     1     -10.370  16.308  67.165  1.00  0.00    -0.285 A  
ENDBRANCH  34  41
ENDBRANCH  31  32
ENDBRANCH  30  31
ENDBRANCH  27  30
ENDBRANCH  26  27
ENDBRANCH  23  26
ENDBRANCH  22  23
ENDBRANCH  21  22
ENDBRANCH  14  21
ENDBRANCH   8  12
ENDBRANCH   4   6
TORSDOF 11
ENDMDL
MODEL      115
REMARK 921   NORMALIZED FREE ENERGY PREDICTED BY IDOCK:   -6.12 KCAL/MOL
REMARK 922        TOTAL FREE ENERGY PREDICTED BY IDOCK:  -12.26 KCAL/MOL
REMARK 923 INTER-LIGAND FREE ENERGY PREDICTED BY IDOCK:  -10.60 KCAL/MOL
REMARK 924 INTRA-LIGAND FREE ENERGY PREDICTED BY IDOCK:   -1.66 KCAL/MOL
REMARK 927      BINDING AFFINITY PREDICTED BY RF-SCORE:    0.00 PKD
ROOT
HETATM    1  N   UNL     1     -13.241   8.755  71.142  1.00  0.00    -0.528 N  
HETATM    2  H1  UNL     1     -13.814   7.911  71.134  1.00  0.00     0.000 HD 
HETATM    3  H2  UNL     1     -13.688   9.667  71.232  1.00  0.00     0.000 HD 
HETATM    4  C   UNL     1     -11.896   8.678  71.035  1.00  0.00    -0.265 C  
HETATM    5  O   UNL     1     -11.205   9.697  71.044  1.00  0.00    -0.316 OA 
ENDROOT
BRANCH   4   6
HETATM    6  C   UNL     1     -11.316   7.323  70.895  1.00  0.00    -0.308 C  
HETATM    7  C   UNL     1     -10.878   6.740  72.026  1.00  0.00    -0.227 C  
HETATM    8  N   UNL     1     -10.364   5.446  72.078  1.00  0.00    -0.206 NA 
HETATM    9  C   UNL     1     -11.280   6.590  69.582  1.00  0.00    -0.446 C  
HETATM   10  C   UNL     1     -10.160   4.785  70.861  1.00  0.00    -0.205 C  
HETATM   11  C   UNL     1     -10.561   5.267  69.675  1.00  0.00    -0.261 C  
BRANCH   8  12
HETATM   12  C   UNL     1     -10.174   4.677  73.327  1.00  0.00    -0.169 C  
HETATM   13  O   UNL     1      -9.237   5.384  74.170  1.00  0.00    -0.121 OA 
HETATM   14  C   UNL     1      -7.911   4.912  73.842  1.00  0.00    -0.102 C  
HETATM   15  H   UNL     1      -9.524   1.610  74.365  1.00  0.00     0.000 HD 
HETATM   16  C   UNL     1      -8.063   3.521  73.232  1.00  0.00    -0.075 C  
HETATM   17  H   UNL     1      -7.455   1.683  73.635  1.00  0.00     0.000 HD 
HETATM   18  C   UNL     1      -9.568   3.267  73.244  1.00  0.00    -0.105 C  
HETATM   19  O   UNL     1      -7.360   2.549  74.015  1.00  0.00    -0.036 OA 
HETATM   20  O   UNL     1      -9.899   2.482  74.416  1.00  0.00    -0.093 OA 
BRANCH  14  21
HETATM   21  C   UNL     1      -7.216   5.892  72.883  1.00  0.00    -0.090 C  
BRANCH  21  22
HETATM   22  O   UNL     1      -6.665   6.998  73.589  1.00  0.00    -0.070 OA 
BRANCH  22  23
HETATM   23  P   UNL     1      -7.237   8.456  73.279  1.00  0.00     0.054 P  
HETATM   24  O   UNL     1      -8.720   8.604  73.201  1.00  0.00    -0.371 OA 
HETATM   25  O   UNL     1      -6.701   9.289  74.546  1.00  0.00    -0.376 OA 
BRANCH  23  26
HETATM   26  O   UNL     1      -6.385   9.059  72.093  1.00  0.00    -0.190 OA 
BRANCH  26  27
HETATM   27  P   UNL     1      -6.845   9.115  70.581  1.00  0.00    -0.106 P  
HETATM   28  O   UNL     1      -7.673   7.748  70.412  1.00  0.00    -0.085 OA 
HETATM   29  O   UNL     1      -5.791   9.193  69.530  1.00  0.00    -0.033 OA 
BRANCH  27  30
HETATM   30  O   UNL     1      -7.985  10.238  70.471  1.00  0.00    -0.056 OA 
BRANCH  30  31
HETATM   31  C   UNL     1      -8.082  11.069  69.319  1.00  0.00    -0.003 C  
BRANCH  31  32
HETATM   32  C   UNL     1      -9.162  10.623  68.337  1.00  0.00    -0.159 C  
HETATM   33  O   UNL     1      -9.891  11.749  67.811  1.00  0.00    -0.175 OA 
HETATM   34  C   UNL     1     -10.572  11.213  66.661  1.00  0.00    -0.264 C  
HETATM   35  H   UNL     1      -8.121   8.068  66.573  1.00  0.00     0.000 HD 
HETATM   36  C   UNL     1      -9.555  10.275  65.990  1.00  0.00    -0.206 C  
HETATM   37  C   UNL     1      -8.585   9.913  67.117  1.00  0.00    -0.125 C  
HETATM   38  H   UNL     1      -9.514   8.519  65.012  1.00  0.00     0.000 HD 
HETATM   39  O   UNL     1     -10.142   9.098  65.426  1.00  0.00     0.041 OA 
HETATM   40  O   UNL     1      -8.480   8.510  67.332  1.00  0.00    -0.125 OA 
BRANCH  34  41
HETATM   41  N   UNL     1     -11.027  12.280  65.793  1.00  0.00    -0.290 NA 
HETATM   42  C   UNL     1     -12.006  12.232  64.841  1.00  0.00    -0.357 A  
HETATM   43  N   UNL     1     -12.190  13.405  64.267  1.00  0.00    -0.535 NA 
HETATM   44  C   UNL     1     -11.265  14.240  64.860  1.00  0.00    -0.379 A  
HETATM   45  C   UNL     1     -10.968  15.603  64.697  1.00  0.00    -0.325 A  
HETATM   46  N   UNL     1     -11.671  16.438  63.841  1.00  0.00    -1.527 NA 
HETATM   47  N   UNL     1      -9.944  16.130  65.409  1.00  0.00    -0.497 NA 
HETATM   48  H1  UNL     1     -11.455  17.428  63.723  1.00  0.00     0.000 HD 
HETATM   49  C   UNL     1      -9.286  15.331  66.277  1.00  0.00    -0.315 A  
HETATM   50  H2  UNL     1     -12.658  16.370  64.093  1.00  0.00     0.000 HD 
HETATM   51  N   UNL     1      -9.512  14.027  66.559  1.00  0.00    -0.285 NA 
HETATM   52  C   UNL     1     -10.511  13.549  65.795  1.00  0.00    -0.291 A  
ENDBRANCH  34  41
ENDBRANCH  31  32
ENDBRANCH  30  31
ENDBRANCH  27  30
ENDBRANCH  26  27
ENDBRANCH  23  26
ENDBRANCH  22  23
ENDBRANCH  21  22
ENDBRANCH  14  21
ENDBRANCH   8  12
ENDBRANCH   4   6
TORSDOF 11
ENDMDL
MODEL      116
REMARK 921   NORMALIZED FREE ENERGY PREDICTED BY IDOCK:   -6.12 KCAL/MOL
REMARK 922        TOTAL FREE ENERGY PREDICTED BY IDOCK:  -12.25 KCAL/MOL
REMARK 923 INTER-LIGAND FREE ENERGY PREDICTED BY IDOCK:  -10.28 KCAL/MOL
REMARK 924 INTRA-LIGAND FREE ENERGY PREDICTED BY IDOCK:   -1.97 KCAL/MOL
REMARK 927      BINDING AFFINITY PREDICTED BY RF-SCORE:    0.00 PKD
ROOT
HETATM    1  N   UNL     1      -6.749  20.151  65.657  1.00  0.00    -0.252 N  
HETATM    2  H1  UNL     1      -7.440  20.902  65.674  1.00  0.00     0.000 HD 
HETATM    3  H2  UNL     1      -5.849  20.303  65.201  1.00  0.00     0.000 HD 
HETATM    4  C   UNL     1      -7.013  18.956  66.231  1.00  0.00    -0.233 C  
HETATM    5  O   UNL     1      -6.180  18.050  66.210  1.00  0.00    -0.171 OA 
ENDROOT
BRANCH   4   6
HETATM    6  C   UNL     1      -8.343  18.801  66.862  1.00  0.00    -0.277 C  
HETATM    7  C   UNL     1      -8.468  17.803  67.757  1.00  0.00    -0.236 C  
HETATM    8  N   UNL     1      -9.630  17.560  68.484  1.00  0.00    -0.294 NA 
HETATM    9  C   UNL     1      -9.484  19.743  66.589  1.00  0.00    -0.491 C  
HETATM   10  C   UNL     1     -10.767  18.305  68.150  1.00  0.00    -0.199 C  
HETATM   11  C   UNL     1     -10.759  19.325  67.278  1.00  0.00    -0.594 C  
BRANCH   8  12
HETATM   12  C   UNL     1      -9.696  16.691  69.680  1.00  0.00     0.136 C  
HETATM   13  O   UNL     1      -8.934  15.490  69.423  1.00  0.00    -0.257 OA 
HETATM   14  C   UNL     1      -9.831  14.519  68.839  1.00  0.00    -0.191 C  
HETATM   15  H   UNL     1     -11.890  15.417  71.795  1.00  0.00     0.000 HD 
HETATM   16  C   UNL     1     -11.247  14.894  69.268  1.00  0.00    -0.284 C  
HETATM   17  H   UNL     1     -12.727  14.063  70.283  1.00  0.00     0.000 HD 
HETATM   18  C   UNL     1     -11.063  16.144  70.124  1.00  0.00    -0.371 C  
HETATM   19  O   UNL     1     -11.845  13.829  70.016  1.00  0.00    -0.293 OA 
HETATM   20  O   UNL     1     -11.045  15.755  71.520  1.00  0.00    -0.292 OA 
BRANCH  14  21
HETATM   21  C   UNL     1      -9.674  14.498  67.310  1.00  0.00    -0.232 C  
BRANCH  21  22
HETATM   22  O   UNL     1     -10.927  14.687  66.663  1.00  0.00    -0.310 OA 
BRANCH  22  23
HETATM   23  P   UNL     1     -10.927  15.196  65.149  1.00  0.00    -0.431 P  
HETATM   24  O   UNL     1     -11.145  16.654  64.921  1.00  0.00    -0.557 OA 
HETATM   25  O   UNL     1      -9.437  14.816  64.680  1.00  0.00     0.486 OA 
BRANCH  23  26
HETATM   26  O   UNL     1     -11.812  14.192  64.309  1.00  0.00    -0.422 OA 
BRANCH  26  27
HETATM   27  P   UNL     1     -11.632  12.621  64.289  1.00  0.00    -0.448 P  
HETATM   28  O   UNL     1     -12.690  12.156  63.173  1.00  0.00    -0.621 OA 
HETATM   29  O   UNL     1     -11.880  11.871  65.554  1.00  0.00    -0.364 OA 
BRANCH  27  30
HETATM   30  O   UNL     1     -10.219  12.312  63.594  1.00  0.00    -0.416 OA 
BRANCH  30  31
HETATM   31  C   UNL     1      -9.818  10.974  63.320  1.00  0.00    -0.368 C  
BRANCH  31  32
HETATM   32  C   UNL     1      -8.810  10.423  64.324  1.00  0.00    -0.208 C  
HETATM   33  O   UNL     1      -9.469   9.757  65.418  1.00  0.00    -0.230 OA 
HETATM   34  C   UNL     1      -8.419   8.991  66.039  1.00  0.00    -0.130 C  
HETATM   35  H   UNL     1      -6.144   9.313  62.779  1.00  0.00     0.000 HD 
HETATM   36  C   UNL     1      -7.590   8.425  64.875  1.00  0.00    -0.100 C  
HETATM   37  C   UNL     1      -7.889   9.374  63.711  1.00  0.00    -0.132 C  
HETATM   38  H   UNL     1      -5.672   8.025  64.422  1.00  0.00     0.000 HD 
HETATM   39  O   UNL     1      -6.185   8.374  65.141  1.00  0.00    -0.051 OA 
HETATM   40  O   UNL     1      -6.718   9.966  63.161  1.00  0.00    -0.115 OA 
BRANCH  34  41
HETATM   41  N   UNL     1      -8.975   7.965  66.898  1.00  0.00    -0.131 NA 
HETATM   42  C   UNL     1      -9.835   6.958  66.560  1.00  0.00    -0.103 A  
HETATM   43  N   UNL     1     -10.101   6.174  67.587  1.00  0.00    -0.140 NA 
HETATM   44  C   UNL     1      -9.400   6.722  68.642  1.00  0.00    -0.131 A  
HETATM   45  C   UNL     1      -9.261   6.350  69.990  1.00  0.00    -0.156 A  
HETATM   46  N   UNL     1      -9.841   5.211  70.528  1.00  0.00    -0.198 NA 
HETATM   47  N   UNL     1      -8.525   7.142  70.805  1.00  0.00    -0.132 NA 
HETATM   48  H1  UNL     1      -9.739   4.941  71.507  1.00  0.00     0.000 HD 
HETATM   49  C   UNL     1      -7.921   8.227  70.274  1.00  0.00    -0.102 A  
HETATM   50  H2  UNL     1      -9.538   4.418  69.962  1.00  0.00     0.000 HD 
HETATM   51  N   UNL     1      -7.937   8.657  68.990  1.00  0.00    -0.113 NA 
HETATM   52  C   UNL     1      -8.714   7.855  68.238  1.00  0.00    -0.130 A  
ENDBRANCH  34  41
ENDBRANCH  31  32
ENDBRANCH  30  31
ENDBRANCH  27  30
ENDBRANCH  26  27
ENDBRANCH  23  26
ENDBRANCH  22  23
ENDBRANCH  21  22
ENDBRANCH  14  21
ENDBRANCH   8  12
ENDBRANCH   4   6
TORSDOF 11
ENDMDL
MODEL      117
REMARK 921   NORMALIZED FREE ENERGY PREDICTED BY IDOCK:   -6.12 KCAL/MOL
REMARK 922        TOTAL FREE ENERGY PREDICTED BY IDOCK:  -12.25 KCAL/MOL
REMARK 923 INTER-LIGAND FREE ENERGY PREDICTED BY IDOCK:  -10.10 KCAL/MOL
REMARK 924 INTRA-LIGAND FREE ENERGY PREDICTED BY IDOCK:   -2.15 KCAL/MOL
REMARK 927      BINDING AFFINITY PREDICTED BY RF-SCORE:    0.00 PKD
ROOT
HETATM    1  N   UNL     1     -10.962   5.187  65.895  1.00  0.00    -0.777 N  
HETATM    2  H1  UNL     1     -11.595   5.312  66.685  1.00  0.00     0.000 HD 
HETATM    3  H2  UNL     1     -11.340   5.120  64.950  1.00  0.00     0.000 HD 
HETATM    4  C   UNL     1      -9.626   5.111  66.086  1.00  0.00    -0.164 C  
HETATM    5  O   UNL     1      -8.861   4.961  65.133  1.00  0.00    -0.146 OA 
ENDROOT
BRANCH   4   6
HETATM    6  C   UNL     1      -9.147   5.203  67.484  1.00  0.00    -0.118 C  
HETATM    7  C   UNL     1     -10.087   5.405  68.426  1.00  0.00    -0.173 C  
HETATM    8  N   UNL     1      -9.814   5.453  69.791  1.00  0.00    -0.182 NA 
HETATM    9  C   UNL     1      -7.705   5.006  67.860  1.00  0.00    -0.084 C  
HETATM   10  C   UNL     1      -8.470   5.437  70.179  1.00  0.00    -0.119 C  
HETATM   11  C   UNL     1      -7.452   5.236  69.329  1.00  0.00    -0.062 C  
BRANCH   8  12
HETATM   12  C   UNL     1     -10.844   5.357  70.848  1.00  0.00    -0.120 C  
HETATM   13  O   UNL     1     -11.738   6.487  70.730  1.00  0.00    -0.361 OA 
HETATM   14  C   UNL     1     -11.202   7.556  71.542  1.00  0.00    -0.243 C  
HETATM   15  H   UNL     1     -11.128   4.869  74.102  1.00  0.00     0.000 HD 
HETATM   16  C   UNL     1     -10.318   6.914  72.609  1.00  0.00    -0.203 C  
HETATM   17  H   UNL     1     -10.257   6.825  74.584  1.00  0.00     0.000 HD 
HETATM   18  C   UNL     1     -10.403   5.418  72.319  1.00  0.00    -0.209 C  
HETATM   19  O   UNL     1     -10.807   7.225  73.920  1.00  0.00    -0.284 OA 
HETATM   20  O   UNL     1     -11.400   4.831  73.192  1.00  0.00    -0.303 OA 
BRANCH  14  21
HETATM   21  C   UNL     1     -10.425   8.553  70.668  1.00  0.00    -0.201 C  
BRANCH  21  22
HETATM   22  O   UNL     1     -11.188   8.946  69.534  1.00  0.00    -0.075 OA 
BRANCH  22  23
HETATM   23  P   UNL     1     -10.410   9.489  68.249  1.00  0.00    -0.215 P  
HETATM   24  O   UNL     1     -10.557   8.712  66.985  1.00  0.00    -0.294 OA 
HETATM   25  O   UNL     1     -11.088  10.934  68.049  1.00  0.00    -0.247 OA 
BRANCH  23  26
HETATM   26  O   UNL     1      -8.944   9.864  68.703  1.00  0.00    -0.122 OA 
BRANCH  26  27
HETATM   27  P   UNL     1      -7.655   9.749  67.794  1.00  0.00    -0.090 P  
HETATM   28  O   UNL     1      -8.003  10.719  66.561  1.00  0.00    -0.132 OA 
HETATM   29  O   UNL     1      -7.279   8.402  67.278  1.00  0.00    -0.081 OA 
BRANCH  27  30
HETATM   30  O   UNL     1      -6.472  10.533  68.542  1.00  0.00    -0.054 OA 
BRANCH  30  31
HETATM   31  C   UNL     1      -5.587  11.382  67.818  1.00  0.00    -0.046 C  
BRANCH  31  32
HETATM   32  C   UNL     1      -5.684  12.849  68.225  1.00  0.00    -0.076 C  
HETATM   33  O   UNL     1      -6.256  13.649  67.171  1.00  0.00    -0.229 OA 
HETATM   34  C   UNL     1      -6.624  14.875  67.831  1.00  0.00    -0.158 C  
HETATM   35  H   UNL     1      -6.436  13.111  71.402  1.00  0.00     0.000 HD 
HETATM   36  C   UNL     1      -7.202  14.447  69.189  1.00  0.00    -0.118 C  
HETATM   37  C   UNL     1      -6.594  13.063  69.429  1.00  0.00    -0.063 C  
HETATM   38  H   UNL     1      -7.233  15.074  71.099  1.00  0.00     0.000 HD 
HETATM   39  O   UNL     1      -6.876  15.338  70.259  1.00  0.00    -0.067 OA 
HETATM   40  O   UNL     1      -5.869  12.978  70.651  1.00  0.00    -0.176 OA 
BRANCH  34  41
HETATM   41  N   UNL     1      -7.561  15.628  67.021  1.00  0.00    -0.221 NA 
HETATM   42  C   UNL     1      -7.408  16.883  66.502  1.00  0.00    -0.281 A  
HETATM   43  N   UNL     1      -8.446  17.243  65.774  1.00  0.00    -0.494 NA 
HETATM   44  C   UNL     1      -9.322  16.180  65.853  1.00  0.00    -0.281 A  
HETATM   45  C   UNL     1     -10.588  15.943  65.292  1.00  0.00    -0.419 A  
HETATM   46  N   UNL     1     -11.216  16.830  64.430  1.00  0.00    -1.271 NA 
HETATM   47  N   UNL     1     -11.228  14.793  65.608  1.00  0.00    -0.338 NA 
HETATM   48  H1  UNL     1     -12.136  16.658  64.023  1.00  0.00     0.000 HD 
HETATM   49  C   UNL     1     -10.601  13.906  66.411  1.00  0.00    -0.280 A  
HETATM   50  H2  UNL     1     -10.572  17.013  63.660  1.00  0.00     0.000 HD 
HETATM   51  N   UNL     1      -9.370  13.996  66.965  1.00  0.00    -0.240 NA 
HETATM   52  C   UNL     1      -8.799  15.174  66.650  1.00  0.00    -0.286 A  
ENDBRANCH  34  41
ENDBRANCH  31  32
ENDBRANCH  30  31
ENDBRANCH  27  30
ENDBRANCH  26  27
ENDBRANCH  23  26
ENDBRANCH  22  23
ENDBRANCH  21  22
ENDBRANCH  14  21
ENDBRANCH   8  12
ENDBRANCH   4   6
TORSDOF 11
ENDMDL
MODEL      118
REMARK 921   NORMALIZED FREE ENERGY PREDICTED BY IDOCK:   -6.08 KCAL/MOL
REMARK 922        TOTAL FREE ENERGY PREDICTED BY IDOCK:  -12.18 KCAL/MOL
REMARK 923 INTER-LIGAND FREE ENERGY PREDICTED BY IDOCK:  -10.25 KCAL/MOL
REMARK 924 INTRA-LIGAND FREE ENERGY PREDICTED BY IDOCK:   -1.93 KCAL/MOL
REMARK 927      BINDING AFFINITY PREDICTED BY RF-SCORE:    0.00 PKD
ROOT
HETATM    1  N   UNL     1     -11.221   4.696  65.205  1.00  0.00    -0.987 N  
HETATM    2  H1  UNL     1     -11.626   5.619  65.364  1.00  0.00     0.000 HD 
HETATM    3  H2  UNL     1     -11.753   3.993  64.691  1.00  0.00     0.000 HD 
HETATM    4  C   UNL     1      -9.988   4.393  65.667  1.00  0.00    -0.236 C  
HETATM    5  O   UNL     1      -9.500   3.279  65.475  1.00  0.00    -0.159 OA 
ENDROOT
BRANCH   4   6
HETATM    6  C   UNL     1      -9.279   5.455  66.416  1.00  0.00    -0.150 C  
HETATM    7  C   UNL     1      -8.871   5.140  67.659  1.00  0.00    -0.105 C  
HETATM    8  N   UNL     1      -8.137   6.001  68.472  1.00  0.00    -0.106 NA 
HETATM    9  C   UNL     1      -8.955   6.794  65.811  1.00  0.00    -0.043 C  
HETATM   10  C   UNL     1      -7.951   7.312  68.018  1.00  0.00    -0.119 C  
HETATM   11  C   UNL     1      -8.311   7.736  66.798  1.00  0.00    -0.125 C  
BRANCH   8  12
HETATM   12  C   UNL     1      -7.415   5.579  69.693  1.00  0.00    -0.070 C  
HETATM   13  O   UNL     1      -8.297   4.761  70.494  1.00  0.00    -0.091 OA 
HETATM   14  C   UNL     1      -9.015   5.639  71.390  1.00  0.00    -0.140 C  
HETATM   15  H   UNL     1      -5.578   6.829  72.136  1.00  0.00     0.000 HD 
HETATM   16  C   UNL     1      -8.173   6.900  71.558  1.00  0.00    -0.110 C  
HETATM   17  H   UNL     1      -7.287   7.871  73.036  1.00  0.00     0.000 HD 
HETATM   18  C   UNL     1      -6.946   6.655  70.685  1.00  0.00    -0.064 C  
HETATM   19  O   UNL     1      -7.811   7.085  72.932  1.00  0.00    -0.097 OA 
HETATM   20  O   UNL     1      -5.869   6.164  71.522  1.00  0.00    -0.026 OA 
BRANCH  14  21
HETATM   21  C   UNL     1     -10.414   5.944  70.833  1.00  0.00    -0.244 C  
BRANCH  21  22
HETATM   22  O   UNL     1     -10.724   7.327  70.954  1.00  0.00    -0.229 OA 
BRANCH  22  23
HETATM   23  P   UNL     1     -11.803   7.769  72.045  1.00  0.00    -0.331 P  
HETATM   24  O   UNL     1     -13.109   7.047  72.043  1.00  0.00    -0.246 OA 
HETATM   25  O   UNL     1     -11.031   7.435  73.416  1.00  0.00    -0.378 OA 
BRANCH  23  26
HETATM   26  O   UNL     1     -11.848   9.348  72.059  1.00  0.00    -0.355 OA 
BRANCH  26  27
HETATM   27  P   UNL     1     -12.867  10.234  71.236  1.00  0.00    -0.471 P  
HETATM   28  O   UNL     1     -13.275  11.377  72.289  1.00  0.00    -0.415 OA 
HETATM   29  O   UNL     1     -14.098   9.580  70.709  1.00  0.00     0.015 OA 
BRANCH  27  30
HETATM   30  O   UNL     1     -12.019  11.044  70.141  1.00  0.00    -0.297 OA 
BRANCH  30  31
HETATM   31  C   UNL     1     -12.284  10.889  68.751  1.00  0.00     0.106 C  
BRANCH  31  32
HETATM   32  C   UNL     1     -11.629  11.960  67.884  1.00  0.00    -0.323 C  
HETATM   33  O   UNL     1     -11.935  13.284  68.364  1.00  0.00    -0.340 OA 
HETATM   34  C   UNL     1     -10.967  14.122  67.706  1.00  0.00    -0.262 C  
HETATM   35  H   UNL     1      -8.679  10.965  66.867  1.00  0.00     0.000 HD 
HETATM   36  C   UNL     1      -9.653  13.324  67.736  1.00  0.00    -0.214 C  
HETATM   37  C   UNL     1     -10.107  11.871  67.896  1.00  0.00    -0.192 C  
HETATM   38  H   UNL     1      -8.046  12.989  66.576  1.00  0.00     0.000 HD 
HETATM   39  O   UNL     1      -8.857  13.482  66.557  1.00  0.00    -0.124 OA 
HETATM   40  O   UNL     1      -9.627  11.021  66.860  1.00  0.00    -0.178 OA 
BRANCH  34  41
HETATM   41  N   UNL     1     -10.871  15.408  68.366  1.00  0.00    -0.258 NA 
HETATM   42  C   UNL     1     -10.927  15.674  69.706  1.00  0.00    -0.304 A  
HETATM   43  N   UNL     1     -10.759  16.957  69.960  1.00  0.00    -0.101 NA 
HETATM   44  C   UNL     1     -10.617  17.548  68.721  1.00  0.00    -0.241 A  
HETATM   45  C   UNL     1     -10.398  18.876  68.317  1.00  0.00    -0.335 A  
HETATM   46  N   UNL     1     -10.228  19.924  69.210  1.00  0.00    -0.588 NA 
HETATM   47  N   UNL     1     -10.353  19.148  66.992  1.00  0.00    -0.384 NA 
HETATM   48  H1  UNL     1     -10.069  20.888  68.917  1.00  0.00     0.000 HD 
HETATM   49  C   UNL     1     -10.474  18.124  66.120  1.00  0.00    -0.364 A  
HETATM   50  H2  UNL     1      -9.464  19.668  69.837  1.00  0.00     0.000 HD 
HETATM   51  N   UNL     1     -10.634  16.806  66.385  1.00  0.00    -0.244 NA 
HETATM   52  C   UNL     1     -10.712  16.602  67.713  1.00  0.00    -0.327 A  
ENDBRANCH  34  41
ENDBRANCH  31  32
ENDBRANCH  30  31
ENDBRANCH  27  30
ENDBRANCH  26  27
ENDBRANCH  23  26
ENDBRANCH  22  23
ENDBRANCH  21  22
ENDBRANCH  14  21
ENDBRANCH   8  12
ENDBRANCH   4   6
TORSDOF 11
ENDMDL
MODEL      119
REMARK 921   NORMALIZED FREE ENERGY PREDICTED BY IDOCK:   -6.04 KCAL/MOL
REMARK 922        TOTAL FREE ENERGY PREDICTED BY IDOCK:  -12.12 KCAL/MOL
REMARK 923 INTER-LIGAND FREE ENERGY PREDICTED BY IDOCK:   -9.74 KCAL/MOL
REMARK 924 INTRA-LIGAND FREE ENERGY PREDICTED BY IDOCK:   -2.38 KCAL/MOL
REMARK 927      BINDING AFFINITY PREDICTED BY RF-SCORE:    0.00 PKD
ROOT
HETATM    1  N   UNL     1     -12.021  16.422  71.601  1.00  0.00    -0.657 N  
HETATM    2  H1  UNL     1     -11.458  17.127  71.126  1.00  0.00     0.000 HD 
HETATM    3  H2  UNL     1     -12.566  16.682  72.424  1.00  0.00     0.000 HD 
HETATM    4  C   UNL     1     -12.054  15.147  71.154  1.00  0.00    -0.333 C  
HETATM    5  O   UNL     1     -12.734  14.296  71.728  1.00  0.00    -0.324 OA 
ENDROOT
BRANCH   4   6
HETATM    6  C   UNL     1     -11.228  14.838  69.965  1.00  0.00    -0.274 C  
HETATM    7  C   UNL     1     -11.624  13.790  69.218  1.00  0.00    -0.312 C  
HETATM    8  N   UNL     1     -10.997  13.405  68.036  1.00  0.00    -0.237 NA 
HETATM    9  C   UNL     1     -10.054  15.682  69.553  1.00  0.00    -0.277 C  
HETATM   10  C   UNL     1      -9.805  14.057  67.697  1.00  0.00    -0.233 C  
HETATM   11  C   UNL     1      -9.320  15.114  68.364  1.00  0.00    -0.197 C  
BRANCH   8  12
HETATM   12  C   UNL     1     -11.586  12.476  67.047  1.00  0.00    -0.368 C  
HETATM   13  O   UNL     1     -12.038  11.289  67.736  1.00  0.00    -0.631 OA 
HETATM   14  C   UNL     1     -10.940  10.349  67.757  1.00  0.00    -0.309 C  
HETATM   15  H   UNL     1     -10.917  11.098  64.121  1.00  0.00     0.000 HD 
HETATM   16  C   UNL     1     -10.019  10.704  66.592  1.00  0.00    -0.212 C  
HETATM   17  H   UNL     1      -9.338   9.824  64.958  1.00  0.00     0.000 HD 
HETATM   18  C   UNL     1     -10.687  11.909  65.936  1.00  0.00    -0.284 C  
HETATM   19  O   UNL     1      -9.911   9.603  65.683  1.00  0.00    -0.290 OA 
HETATM   20  O   UNL     1     -11.472  11.448  64.808  1.00  0.00    -0.145 OA 
BRANCH  14  21
HETATM   21  C   UNL     1     -10.212  10.406  69.110  1.00  0.00    -0.222 C  
BRANCH  21  22
HETATM   22  O   UNL     1     -10.411   9.209  69.851  1.00  0.00    -0.206 OA 
BRANCH  22  23
HETATM   23  P   UNL     1     -11.255   9.287  71.204  1.00  0.00    -0.405 P  
HETATM   24  O   UNL     1     -12.050  10.526  71.441  1.00  0.00    -0.344 OA 
HETATM   25  O   UNL     1     -12.267   8.050  71.027  1.00  0.00    -0.280 OA 
BRANCH  23  26
HETATM   26  O   UNL     1     -10.319   8.791  72.378  1.00  0.00    -0.300 OA 
BRANCH  26  27
HETATM   27  P   UNL     1      -8.835   8.275  72.199  1.00  0.00    -0.222 P  
HETATM   28  O   UNL     1      -8.544   7.540  73.599  1.00  0.00    -0.155 OA 
HETATM   29  O   UNL     1      -7.769   9.283  71.934  1.00  0.00    -0.297 OA 
BRANCH  27  30
HETATM   30  O   UNL     1      -8.877   7.055  71.158  1.00  0.00    -0.140 OA 
BRANCH  30  31
HETATM   31  C   UNL     1      -7.708   6.290  70.883  1.00  0.00    -0.098 C  
BRANCH  31  32
HETATM   32  C   UNL     1      -7.285   6.333  69.418  1.00  0.00    -0.082 C  
HETATM   33  O   UNL     1      -7.983   5.341  68.640  1.00  0.00    -0.086 OA 
HETATM   34  C   UNL     1      -7.772   5.757  67.278  1.00  0.00    -0.101 C  
HETATM   35  H   UNL     1      -6.742   9.420  68.470  1.00  0.00     0.000 HD 
HETATM   36  C   UNL     1      -7.903   7.289  67.298  1.00  0.00    -0.111 C  
HETATM   37  C   UNL     1      -7.612   7.666  68.753  1.00  0.00    -0.102 C  
HETATM   38  H   UNL     1      -7.083   8.902  66.422  1.00  0.00     0.000 HD 
HETATM   39  O   UNL     1      -7.002   7.955  66.410  1.00  0.00    -0.064 OA 
HETATM   40  O   UNL     1      -6.538   8.590  68.884  1.00  0.00    -0.051 OA 
BRANCH  34  41
HETATM   41  N   UNL     1      -8.721   5.113  66.393  1.00  0.00    -0.112 NA 
HETATM   42  C   UNL     1     -10.069   4.966  66.566  1.00  0.00    -0.255 A  
HETATM   43  N   UNL     1     -10.634   4.365  65.537  1.00  0.00    -0.232 NA 
HETATM   44  C   UNL     1      -9.593   4.087  64.674  1.00  0.00    -0.175 A  
HETATM   45  C   UNL     1      -9.540   3.474  63.411  1.00  0.00    -0.123 A  
HETATM   46  N   UNL     1     -10.667   3.039  62.729  1.00  0.00    -0.179 NA 
HETATM   47  N   UNL     1      -8.330   3.299  62.829  1.00  0.00    -0.073 NA 
HETATM   48  H1  UNL     1     -10.628   2.594  61.811  1.00  0.00     0.000 HD 
HETATM   49  C   UNL     1      -7.235   3.762  63.470  1.00  0.00    -0.050 A  
HETATM   50  H2  UNL     1     -11.303   3.833  62.655  1.00  0.00     0.000 HD 
HETATM   51  N   UNL     1      -7.164   4.411  64.656  1.00  0.00    -0.065 NA 
HETATM   52  C   UNL     1      -8.389   4.520  65.203  1.00  0.00    -0.122 A  
ENDBRANCH  34  41
ENDBRANCH  31  32
ENDBRANCH  30  31
ENDBRANCH  27  30
ENDBRANCH  26  27
ENDBRANCH  23  26
ENDBRANCH  22  23
ENDBRANCH  21  22
ENDBRANCH  14  21
ENDBRANCH   8  12
ENDBRANCH   4   6
TORSDOF 11
ENDMDL
MODEL      120
REMARK 921   NORMALIZED FREE ENERGY PREDICTED BY IDOCK:   -6.03 KCAL/MOL
REMARK 922        TOTAL FREE ENERGY PREDICTED BY IDOCK:  -12.11 KCAL/MOL
REMARK 923 INTER-LIGAND FREE ENERGY PREDICTED BY IDOCK:  -10.64 KCAL/MOL
REMARK 924 INTRA-LIGAND FREE ENERGY PREDICTED BY IDOCK:   -1.47 KCAL/MOL
REMARK 927      BINDING AFFINITY PREDICTED BY RF-SCORE:    0.00 PKD
ROOT
HETATM    1  N   UNL     1     -11.682   6.988  72.734  1.00  0.00    -0.520 N  
HETATM    2  H1  UNL     1     -11.665   7.587  71.908  1.00  0.00     0.000 HD 
HETATM    3  H2  UNL     1     -12.199   7.286  73.562  1.00  0.00     0.000 HD 
HETATM    4  C   UNL     1     -11.027   5.807  72.745  1.00  0.00    -0.272 C  
HETATM    5  O   UNL     1     -11.047   5.085  73.742  1.00  0.00    -0.308 OA 
ENDROOT
BRANCH   4   6
HETATM    6  C   UNL     1     -10.286   5.445  71.515  1.00  0.00    -0.289 C  
HETATM    7  C   UNL     1      -9.709   6.460  70.844  1.00  0.00    -0.176 C  
HETATM    8  N   UNL     1      -8.926   6.286  69.706  1.00  0.00    -0.139 NA 
HETATM    9  C   UNL     1     -10.111   4.021  71.064  1.00  0.00    -0.085 C  
HETATM   10  C   UNL     1      -8.867   5.000  69.156  1.00  0.00    -0.092 C  
HETATM   11  C   UNL     1      -9.399   3.916  69.738  1.00  0.00    -0.242 C  
BRANCH   8  12
HETATM   12  C   UNL     1      -8.035   7.325  69.143  1.00  0.00    -0.119 C  
HETATM   13  O   UNL     1      -8.616   8.623  69.400  1.00  0.00    -0.124 OA 
HETATM   14  C   UNL     1      -9.472   8.948  68.282  1.00  0.00    -0.140 C  
HETATM   15  H   UNL     1      -6.419   8.070  66.361  1.00  0.00     0.000 HD 
HETATM   16  C   UNL     1      -8.977   8.143  67.083  1.00  0.00    -0.139 C  
HETATM   17  H   UNL     1      -8.272   8.516  65.273  1.00  0.00     0.000 HD 
HETATM   18  C   UNL     1      -7.793   7.349  67.625  1.00  0.00    -0.113 C  
HETATM   19  O   UNL     1      -8.581   9.017  66.019  1.00  0.00    -0.129 OA 
HETATM   20  O   UNL     1      -6.569   8.055  67.300  1.00  0.00    -0.055 OA 
BRANCH  14  21
HETATM   21  C   UNL     1     -10.938   8.638  68.623  1.00  0.00     0.163 C  
BRANCH  21  22
HETATM   22  O   UNL     1     -11.192   8.816  70.011  1.00  0.00    -0.215 OA 
BRANCH  22  23
HETATM   23  P   UNL     1     -12.000  10.113  70.474  1.00  0.00    -0.293 P  
HETATM   24  O   UNL     1     -13.407  10.246  69.996  1.00  0.00     0.066 OA 
HETATM   25  O   UNL     1     -12.012   9.933  72.072  1.00  0.00    -0.247 OA 
BRANCH  23  26
HETATM   26  O   UNL     1     -11.049  11.361  70.282  1.00  0.00    -0.048 OA 
BRANCH  26  27
HETATM   27  P   UNL     1     -11.320  12.565  69.294  1.00  0.00    -0.172 P  
HETATM   28  O   UNL     1      -9.838  13.085  68.952  1.00  0.00    -0.034 OA 
HETATM   29  O   UNL     1     -12.146  13.704  69.787  1.00  0.00    -0.320 OA 
BRANCH  27  30
HETATM   30  O   UNL     1     -11.808  11.938  67.900  1.00  0.00    -0.492 OA 
BRANCH  30  31
HETATM   31  C   UNL     1     -11.208  12.334  66.672  1.00  0.00    -0.316 C  
BRANCH  31  32
HETATM   32  C   UNL     1     -11.572  13.753  66.246  1.00  0.00    -0.350 C  
HETATM   33  O   UNL     1     -10.655  14.718  66.799  1.00  0.00    -0.291 OA 
HETATM   34  C   UNL     1     -10.892  15.905  66.019  1.00  0.00    -0.225 C  
HETATM   35  H   UNL     1     -12.694  13.776  63.170  1.00  0.00     0.000 HD 
HETATM   36  C   UNL     1     -11.077  15.411  64.575  1.00  0.00    -0.256 C  
HETATM   37  C   UNL     1     -11.496  13.948  64.736  1.00  0.00    -0.362 C  
HETATM   38  H   UNL     1     -12.173  15.839  62.945  1.00  0.00     0.000 HD 
HETATM   39  O   UNL     1     -12.059  16.145  63.838  1.00  0.00    -0.956 OA 
HETATM   40  O   UNL     1     -12.741  13.654  64.110  1.00  0.00    -0.657 OA 
BRANCH  34  41
HETATM   41  N   UNL     1      -9.797  16.842  66.169  1.00  0.00    -0.348 NA 
HETATM   42  C   UNL     1      -8.456  16.591  66.083  1.00  0.00    -0.285 A  
HETATM   43  N   UNL     1      -7.741  17.689  66.227  1.00  0.00    -0.348 NA 
HETATM   44  C   UNL     1      -8.666  18.690  66.446  1.00  0.00    -0.276 A  
HETATM   45  C   UNL     1      -8.544  20.073  66.657  1.00  0.00    -0.321 A  
HETATM   46  N   UNL     1      -7.328  20.741  66.635  1.00  0.00    -0.505 NA 
HETATM   47  N   UNL     1      -9.666  20.791  66.896  1.00  0.00    -0.302 NA 
HETATM   48  H1  UNL     1      -7.239  21.746  66.789  1.00  0.00     0.000 HD 
HETATM   49  C   UNL     1     -10.856  20.152  66.874  1.00  0.00     0.047 A  
HETATM   50  H2  UNL     1      -6.881  20.530  65.742  1.00  0.00     0.000 HD 
HETATM   51  N   UNL     1     -11.105  18.845  66.630  1.00  0.00     0.017 NA 
HETATM   52  C   UNL     1      -9.953  18.176  66.441  1.00  0.00    -0.376 A  
ENDBRANCH  34  41
ENDBRANCH  31  32
ENDBRANCH  30  31
ENDBRANCH  27  30
ENDBRANCH  26  27
ENDBRANCH  23  26
ENDBRANCH  22  23
ENDBRANCH  21  22
ENDBRANCH  14  21
ENDBRANCH   8  12
ENDBRANCH   4   6
TORSDOF 11
ENDMDL
MODEL      121
REMARK 921   NORMALIZED FREE ENERGY PREDICTED BY IDOCK:   -6.00 KCAL/MOL
REMARK 922        TOTAL FREE ENERGY PREDICTED BY IDOCK:  -12.07 KCAL/MOL
REMARK 923 INTER-LIGAND FREE ENERGY PREDICTED BY IDOCK:   -9.77 KCAL/MOL
REMARK 924 INTRA-LIGAND FREE ENERGY PREDICTED BY IDOCK:   -2.30 KCAL/MOL
REMARK 927      BINDING AFFINITY PREDICTED BY RF-SCORE:    0.00 PKD
ROOT
HETATM    1  N   UNL     1      -8.196   9.882  70.162  1.00  0.00    -0.275 N  
HETATM    2  H1  UNL     1      -7.283   9.465  70.345  1.00  0.00     0.000 HD 
HETATM    3  H2  UNL     1      -8.954   9.752  70.833  1.00  0.00     0.000 HD 
HETATM    4  C   UNL     1      -8.414  10.605  69.041  1.00  0.00    -0.145 C  
HETATM    5  O   UNL     1      -9.516  11.108  68.820  1.00  0.00    -0.191 OA 
ENDROOT
BRANCH   4   6
HETATM    6  C   UNL     1      -7.274  10.741  68.106  1.00  0.00    -0.083 C  
HETATM    7  C   UNL     1      -6.862   9.614  67.496  1.00  0.00    -0.082 C  
HETATM    8  N   UNL     1      -5.847   9.579  66.544  1.00  0.00    -0.054 NA 
HETATM    9  C   UNL     1      -6.647  12.070  67.781  1.00  0.00    -0.093 C  
HETATM   10  C   UNL     1      -5.126  10.759  66.327  1.00  0.00    -0.085 C  
HETATM   11  C   UNL     1      -5.449  11.940  66.875  1.00  0.00    -0.096 C  
BRANCH   8  12
HETATM   12  C   UNL     1      -5.592   8.433  65.642  1.00  0.00    -0.043 C  
HETATM   13  O   UNL     1      -5.344   8.937  64.311  1.00  0.00    -0.054 OA 
HETATM   14  C   UNL     1      -6.615   9.013  63.627  1.00  0.00    -0.089 C  
HETATM   15  H   UNL     1      -6.870   5.504  64.810  1.00  0.00     0.000 HD 
HETATM   16  C   UNL     1      -7.555   8.023  64.309  1.00  0.00    -0.118 C  
HETATM   17  H   UNL     1      -8.591   6.417  63.801  1.00  0.00     0.000 HD 
HETATM   18  C   UNL     1      -6.711   7.403  65.419  1.00  0.00    -0.048 C  
HETATM   19  O   UNL     1      -8.006   7.033  63.376  1.00  0.00    -0.118 OA 
HETATM   20  O   UNL     1      -6.178   6.140  64.949  1.00  0.00    -0.029 OA 
BRANCH  14  21
HETATM   21  C   UNL     1      -7.158  10.450  63.666  1.00  0.00     0.005 C  
BRANCH  21  22
HETATM   22  O   UNL     1      -8.253  10.562  64.567  1.00  0.00    -0.154 OA 
BRANCH  22  23
HETATM   23  P   UNL     1      -9.705  10.837  63.964  1.00  0.00    -0.358 P  
HETATM   24  O   UNL     1      -9.968  10.360  62.575  1.00  0.00    -0.123 OA 
HETATM   25  O   UNL     1     -10.639  10.011  64.979  1.00  0.00     0.066 OA 
BRANCH  23  26
HETATM   26  O   UNL     1     -10.084  12.335  64.299  1.00  0.00    -0.308 OA 
BRANCH  26  27
HETATM   27  P   UNL     1     -11.548  12.931  64.262  1.00  0.00    -0.444 P  
HETATM   28  O   UNL     1     -12.188  12.386  65.632  1.00  0.00    -0.599 OA 
HETATM   29  O   UNL     1     -12.428  12.557  63.118  1.00  0.00    -0.561 OA 
BRANCH  27  30
HETATM   30  O   UNL     1     -11.428  14.508  64.527  1.00  0.00    -0.378 OA 
BRANCH  30  31
HETATM   31  C   UNL     1     -10.175  15.101  64.850  1.00  0.00    -0.196 C  
BRANCH  31  32
HETATM   32  C   UNL     1     -10.062  15.527  66.311  1.00  0.00    -0.295 C  
HETATM   33  O   UNL     1     -11.162  15.020  67.092  1.00  0.00    -0.331 OA 
HETATM   34  C   UNL     1     -10.718  15.171  68.453  1.00  0.00    -0.248 C  
HETATM   35  H   UNL     1      -6.929  15.537  67.264  1.00  0.00     0.000 HD 
HETATM   36  C   UNL     1      -9.232  14.776  68.440  1.00  0.00    -0.189 C  
HETATM   37  C   UNL     1      -8.808  14.981  66.984  1.00  0.00    -0.234 C  
HETATM   38  H   UNL     1      -7.504  15.315  69.314  1.00  0.00     0.000 HD 
HETATM   39  O   UNL     1      -8.422  15.559  69.322  1.00  0.00    -0.235 OA 
HETATM   40  O   UNL     1      -7.711  15.877  66.845  1.00  0.00    -0.213 OA 
BRANCH  34  41
HETATM   41  N   UNL     1     -11.519  14.358  69.345  1.00  0.00    -0.273 NA 
HETATM   42  C   UNL     1     -12.004  13.099  69.131  1.00  0.00    -0.281 A  
HETATM   43  N   UNL     1     -12.659  12.640  70.179  1.00  0.00     0.011 NA 
HETATM   44  C   UNL     1     -12.617  13.665  71.101  1.00  0.00    -0.371 A  
HETATM   45  C   UNL     1     -13.116  13.793  72.408  1.00  0.00    -0.422 A  
HETATM   46  N   UNL     1     -13.772  12.769  73.076  1.00  0.00    -0.369 NA 
HETATM   47  N   UNL     1     -12.950  14.974  73.049  1.00  0.00    -0.451 NA 
HETATM   48  H1  UNL     1     -14.134  12.862  74.025  1.00  0.00     0.000 HD 
HETATM   49  C   UNL     1     -12.273  15.958  72.419  1.00  0.00    -0.498 A  
HETATM   50  H2  UNL     1     -13.156  11.955  73.064  1.00  0.00     0.000 HD 
HETATM   51  N   UNL     1     -11.703  15.937  71.192  1.00  0.00    -0.410 NA 
HETATM   52  C   UNL     1     -11.935  14.756  70.589  1.00  0.00    -0.309 A  
ENDBRANCH  34  41
ENDBRANCH  31  32
ENDBRANCH  30  31
ENDBRANCH  27  30
ENDBRANCH  26  27
ENDBRANCH  23  26
ENDBRANCH  22  23
ENDBRANCH  21  22
ENDBRANCH  14  21
ENDBRANCH   8  12
ENDBRANCH   4   6
TORSDOF 11
ENDMDL
MODEL      122
REMARK 921   NORMALIZED FREE ENERGY PREDICTED BY IDOCK:   -6.00 KCAL/MOL
REMARK 922        TOTAL FREE ENERGY PREDICTED BY IDOCK:  -12.06 KCAL/MOL
REMARK 923 INTER-LIGAND FREE ENERGY PREDICTED BY IDOCK:   -9.32 KCAL/MOL
REMARK 924 INTRA-LIGAND FREE ENERGY PREDICTED BY IDOCK:   -2.74 KCAL/MOL
REMARK 927      BINDING AFFINITY PREDICTED BY RF-SCORE:    0.00 PKD
ROOT
HETATM    1  N   UNL     1      -9.445  11.188  65.065  1.00  0.00    -0.225 N  
HETATM    2  H1  UNL     1      -9.327  10.883  66.031  1.00  0.00     0.000 HD 
HETATM    3  H2  UNL     1     -10.151  11.890  64.840  1.00  0.00     0.000 HD 
HETATM    4  C   UNL     1      -8.677  10.674  64.079  1.00  0.00    -0.131 C  
HETATM    5  O   UNL     1      -8.820  11.042  62.913  1.00  0.00    -0.242 OA 
ENDROOT
BRANCH   4   6
HETATM    6  C   UNL     1      -7.683   9.651  64.476  1.00  0.00    -0.131 C  
HETATM    7  C   UNL     1      -7.981   8.375  64.167  1.00  0.00    -0.151 C  
HETATM    8  N   UNL     1      -7.129   7.302  64.412  1.00  0.00    -0.059 NA 
HETATM    9  C   UNL     1      -6.371  10.004  65.121  1.00  0.00    -0.114 C  
HETATM   10  C   UNL     1      -5.970   7.557  65.155  1.00  0.00    -0.038 C  
HETATM   11  C   UNL     1      -5.571   8.787  65.512  1.00  0.00    -0.046 C  
BRANCH   8  12
HETATM   12  C   UNL     1      -7.287   5.960  63.810  1.00  0.00    -0.064 C  
HETATM   13  O   UNL     1      -8.646   5.515  64.017  1.00  0.00    -0.091 OA 
HETATM   14  C   UNL     1      -8.686   4.802  65.274  1.00  0.00    -0.142 C  
HETATM   15  H   UNL     1      -5.823   3.000  63.746  1.00  0.00     0.000 HD 
HETATM   16  C   UNL     1      -7.273   4.301  65.556  1.00  0.00    -0.068 C  
HETATM   17  H   UNL     1      -6.374   2.559  65.824  1.00  0.00     0.000 HD 
HETATM   18  C   UNL     1      -6.453   4.795  64.367  1.00  0.00    -0.038 C  
HETATM   19  O   UNL     1      -7.255   2.871  65.649  1.00  0.00    -0.067 OA 
HETATM   20  O   UNL     1      -6.339   3.720  63.401  1.00  0.00    -0.024 OA 
BRANCH  14  21
HETATM   21  C   UNL     1      -9.211   5.718  66.391  1.00  0.00    -0.151 C  
BRANCH  21  22
HETATM   22  O   UNL     1      -8.335   5.714  67.512  1.00  0.00    -0.102 OA 
BRANCH  22  23
HETATM   23  P   UNL     1      -8.949   5.399  68.952  1.00  0.00    -0.121 P  
HETATM   24  O   UNL     1     -10.429   5.231  69.040  1.00  0.00    -0.205 OA 
HETATM   25  O   UNL     1      -8.248   3.995  69.301  1.00  0.00    -0.062 OA 
BRANCH  23  26
HETATM   26  O   UNL     1      -8.269   6.383  69.985  1.00  0.00    -0.121 OA 
BRANCH  26  27
HETATM   27  P   UNL     1      -7.929   7.901  69.705  1.00  0.00    -0.121 P  
HETATM   28  O   UNL     1      -6.597   7.806  68.810  1.00  0.00    -0.046 OA 
HETATM   29  O   UNL     1      -7.681   8.791  70.874  1.00  0.00    -0.084 OA 
BRANCH  27  30
HETATM   30  O   UNL     1      -9.020   8.450  68.665  1.00  0.00    -0.139 OA 
BRANCH  30  31
HETATM   31  C   UNL     1     -10.307   8.865  69.108  1.00  0.00    -0.220 C  
BRANCH  31  32
HETATM   32  C   UNL     1     -10.408  10.366  69.362  1.00  0.00    -0.237 C  
HETATM   33  O   UNL     1     -10.313  11.113  68.133  1.00  0.00    -0.176 OA 
HETATM   34  C   UNL     1     -10.799  12.422  68.487  1.00  0.00    -0.242 C  
HETATM   35  H   UNL     1     -12.536  10.981  71.774  1.00  0.00     0.000 HD 
HETATM   36  C   UNL     1     -11.998  12.171  69.416  1.00  0.00    -0.270 C  
HETATM   37  C   UNL     1     -11.747  10.767  69.972  1.00  0.00    -0.336 C  
HETATM   38  H   UNL     1     -12.853  12.970  71.051  1.00  0.00     0.000 HD 
HETATM   39  O   UNL     1     -12.113  13.125  70.476  1.00  0.00    -0.357 OA 
HETATM   40  O   UNL     1     -11.702  10.731  71.394  1.00  0.00    -0.129 OA 
BRANCH  34  41
HETATM   41  N   UNL     1     -11.144  13.177  67.299  1.00  0.00    -0.271 NA 
HETATM   42  C   UNL     1     -12.136  12.919  66.395  1.00  0.00    -0.329 A  
HETATM   43  N   UNL     1     -12.196  13.842  65.455  1.00  0.00    -0.413 NA 
HETATM   44  C   UNL     1     -11.174  14.720  65.754  1.00  0.00    -0.337 A  
HETATM   45  C   UNL     1     -10.728  15.906  65.148  1.00  0.00    -0.429 A  
HETATM   46  N   UNL     1     -11.345  16.475  64.043  1.00  0.00    -1.559 NA 
HETATM   47  N   UNL     1      -9.640  16.526  65.665  1.00  0.00    -0.516 NA 
HETATM   48  H1  UNL     1     -11.021  17.336  63.603  1.00  0.00     0.000 HD 
HETATM   49  C   UNL     1      -9.064  15.999  66.767  1.00  0.00    -0.244 A  
HETATM   50  H2  UNL     1     -12.329  16.606  64.279  1.00  0.00     0.000 HD 
HETATM   51  N   UNL     1      -9.431  14.901  67.467  1.00  0.00    -0.198 NA 
HETATM   52  C   UNL     1     -10.489  14.307  66.885  1.00  0.00    -0.272 A  
ENDBRANCH  34  41
ENDBRANCH  31  32
ENDBRANCH  30  31
ENDBRANCH  27  30
ENDBRANCH  26  27
ENDBRANCH  23  26
ENDBRANCH  22  23
ENDBRANCH  21  22
ENDBRANCH  14  21
ENDBRANCH   8  12
ENDBRANCH   4   6
TORSDOF 11
ENDMDL
MODEL      123
REMARK 921   NORMALIZED FREE ENERGY PREDICTED BY IDOCK:   -5.99 KCAL/MOL
REMARK 922        TOTAL FREE ENERGY PREDICTED BY IDOCK:  -12.05 KCAL/MOL
REMARK 923 INTER-LIGAND FREE ENERGY PREDICTED BY IDOCK:  -10.40 KCAL/MOL
REMARK 924 INTRA-LIGAND FREE ENERGY PREDICTED BY IDOCK:   -1.64 KCAL/MOL
REMARK 927      BINDING AFFINITY PREDICTED BY RF-SCORE:    0.00 PKD
ROOT
HETATM    1  N   UNL     1     -11.463   5.290  72.672  1.00  0.00    -0.240 N  
HETATM    2  H1  UNL     1     -10.716   4.732  73.088  1.00  0.00     0.000 HD 
HETATM    3  H2  UNL     1     -12.392   5.280  73.092  1.00  0.00     0.000 HD 
HETATM    4  C   UNL     1     -11.234   6.041  71.573  1.00  0.00    -0.264 C  
HETATM    5  O   UNL     1     -12.134   6.714  71.071  1.00  0.00    -0.369 OA 
ENDROOT
BRANCH   4   6
HETATM    6  C   UNL     1      -9.865   5.997  71.009  1.00  0.00    -0.220 C  
HETATM    7  C   UNL     1      -9.662   5.133  69.997  1.00  0.00    -0.205 C  
HETATM    8  N   UNL     1      -8.454   5.012  69.316  1.00  0.00    -0.088 NA 
HETATM    9  C   UNL     1      -8.767   6.912  71.476  1.00  0.00    -0.122 C  
HETATM   10  C   UNL     1      -7.358   5.724  69.818  1.00  0.00    -0.071 C  
HETATM   11  C   UNL     1      -7.444   6.615  70.817  1.00  0.00    -0.087 C  
BRANCH   8  12
HETATM   12  C   UNL     1      -8.296   4.315  68.020  1.00  0.00    -0.094 C  
HETATM   13  O   UNL     1      -7.764   5.249  67.053  1.00  0.00    -0.094 OA 
HETATM   14  C   UNL     1      -8.884   5.898  66.410  1.00  0.00    -0.134 C  
HETATM   15  H   UNL     1      -9.978   2.382  65.937  1.00  0.00     0.000 HD 
HETATM   16  C   UNL     1     -10.086   4.968  66.547  1.00  0.00    -0.248 C  
HETATM   17  H   UNL     1     -11.327   4.008  65.342  1.00  0.00     0.000 HD 
HETATM   18  C   UNL     1      -9.548   3.766  67.318  1.00  0.00    -0.169 C  
HETATM   19  O   UNL     1     -10.578   4.587  65.256  1.00  0.00    -0.237 OA 
HETATM   20  O   UNL     1      -9.204   2.722  66.372  1.00  0.00    -0.143 OA 
BRANCH  14  21
HETATM   21  C   UNL     1      -9.140   7.275  67.043  1.00  0.00    -0.135 C  
BRANCH  21  22
HETATM   22  O   UNL     1      -8.213   8.241  66.563  1.00  0.00    -0.102 OA 
BRANCH  22  23
HETATM   23  P   UNL     1      -8.784   9.539  65.828  1.00  0.00    -0.169 P  
HETATM   24  O   UNL     1      -7.890  10.732  65.760  1.00  0.00    -0.156 OA 
HETATM   25  O   UNL     1      -9.022   8.987  64.337  1.00  0.00    -0.137 OA 
BRANCH  23  26
HETATM   26  O   UNL     1     -10.260   9.768  66.344  1.00  0.00    -0.242 OA 
BRANCH  26  27
HETATM   27  P   UNL     1     -10.737  11.001  67.211  1.00  0.00    -0.289 P  
HETATM   28  O   UNL     1      -9.584  11.121  68.323  1.00  0.00    -0.171 OA 
HETATM   29  O   UNL     1     -12.067  10.915  67.879  1.00  0.00    -0.527 OA 
BRANCH  27  30
HETATM   30  O   UNL     1     -10.518  12.321  66.325  1.00  0.00    -0.231 OA 
BRANCH  30  31
HETATM   31  C   UNL     1     -11.251  13.511  66.595  1.00  0.00    -0.312 C  
BRANCH  31  32
HETATM   32  C   UNL     1     -10.714  14.298  67.786  1.00  0.00    -0.251 C  
HETATM   33  O   UNL     1      -9.960  15.449  67.358  1.00  0.00    -0.227 OA 
HETATM   34  C   UNL     1      -9.865  16.260  68.544  1.00  0.00    -0.223 C  
HETATM   35  H   UNL     1     -12.879  14.278  70.243  1.00  0.00     0.000 HD 
HETATM   36  C   UNL     1     -11.244  16.159  69.216  1.00  0.00    -0.337 C  
HETATM   37  C   UNL     1     -11.826  14.853  68.669  1.00  0.00    -0.300 C  
HETATM   38  H   UNL     1     -12.039  16.069  71.060  1.00  0.00     0.000 HD 
HETATM   39  O   UNL     1     -11.187  16.132  70.645  1.00  0.00    -0.368 OA 
HETATM   40  O   UNL     1     -12.186  13.933  69.693  1.00  0.00    -0.333 OA 
BRANCH  34  41
HETATM   41  N   UNL     1      -9.491  17.619  68.206  1.00  0.00    -0.285 NA 
HETATM   42  C   UNL     1     -10.250  18.750  68.302  1.00  0.00    -0.375 A  
HETATM   43  N   UNL     1      -9.575  19.827  67.949  1.00  0.00    -0.358 NA 
HETATM   44  C   UNL     1      -8.329  19.359  67.581  1.00  0.00    -0.299 A  
HETATM   45  C   UNL     1      -7.166  20.002  67.127  1.00  0.00    -0.249 A  
HETATM   46  N   UNL     1      -7.057  21.379  67.001  1.00  0.00    -0.835 NA 
HETATM   47  N   UNL     1      -6.097  19.240  66.793  1.00  0.00    -0.167 NA 
HETATM   48  H1  UNL     1      -6.211  21.845  66.671  1.00  0.00     0.000 HD 
HETATM   49  C   UNL     1      -6.184  17.902  66.956  1.00  0.00    -0.155 A  
HETATM   50  H2  UNL     1      -7.294  21.786  67.906  1.00  0.00     0.000 HD 
HETATM   51  N   UNL     1      -7.223  17.178  67.432  1.00  0.00    -0.149 NA 
HETATM   52  C   UNL     1      -8.267  17.981  67.708  1.00  0.00    -0.238 A  
ENDBRANCH  34  41
ENDBRANCH  31  32
ENDBRANCH  30  31
ENDBRANCH  27  30
ENDBRANCH  26  27
ENDBRANCH  23  26
ENDBRANCH  22  23
ENDBRANCH  21  22
ENDBRANCH  14  21
ENDBRANCH   8  12
ENDBRANCH   4   6
TORSDOF 11
ENDMDL
MODEL      124
REMARK 921   NORMALIZED FREE ENERGY PREDICTED BY IDOCK:   -5.96 KCAL/MOL
REMARK 922        TOTAL FREE ENERGY PREDICTED BY IDOCK:  -12.00 KCAL/MOL
REMARK 923 INTER-LIGAND FREE ENERGY PREDICTED BY IDOCK:   -9.45 KCAL/MOL
REMARK 924 INTRA-LIGAND FREE ENERGY PREDICTED BY IDOCK:   -2.55 KCAL/MOL
REMARK 927      BINDING AFFINITY PREDICTED BY RF-SCORE:    0.00 PKD
ROOT
HETATM    1  N   UNL     1      -6.296   8.248  63.649  1.00  0.00    -0.072 N  
HETATM    2  H1  UNL     1      -5.708   8.592  64.409  1.00  0.00     0.000 HD 
HETATM    3  H2  UNL     1      -5.870   7.743  62.871  1.00  0.00     0.000 HD 
HETATM    4  C   UNL     1      -7.631   8.455  63.660  1.00  0.00    -0.132 C  
HETATM    5  O   UNL     1      -8.340   8.041  62.743  1.00  0.00    -0.145 OA 
ENDROOT
BRANCH   4   6
HETATM    6  C   UNL     1      -8.178   9.207  64.812  1.00  0.00    -0.150 C  
HETATM    7  C   UNL     1      -7.510   9.091  65.975  1.00  0.00    -0.094 C  
HETATM    8  N   UNL     1      -7.854   9.780  67.135  1.00  0.00    -0.099 NA 
HETATM    9  C   UNL     1      -9.369  10.119  64.692  1.00  0.00    -0.334 C  
HETATM   10  C   UNL     1      -9.046  10.512  67.119  1.00  0.00    -0.143 C  
HETATM   11  C   UNL     1      -9.789  10.701  66.018  1.00  0.00    -0.280 C  
BRANCH   8  12
HETATM   12  C   UNL     1      -6.971   9.915  68.314  1.00  0.00    -0.072 C  
HETATM   13  O   UNL     1      -6.455   8.610  68.661  1.00  0.00    -0.052 OA 
HETATM   14  C   UNL     1      -7.379   8.009  69.596  1.00  0.00    -0.085 C  
HETATM   15  H   UNL     1      -6.924  11.260  71.330  1.00  0.00     0.000 HD 
HETATM   16  C   UNL     1      -8.141   9.145  70.273  1.00  0.00    -0.148 C  
HETATM   17  H   UNL     1      -8.397   9.831  72.110  1.00  0.00     0.000 HD 
HETATM   18  C   UNL     1      -7.574  10.412  69.638  1.00  0.00    -0.153 C  
HETATM   19  O   UNL     1      -7.922   9.124  71.689  1.00  0.00    -0.342 OA 
HETATM   20  O   UNL     1      -6.551  10.953  70.511  1.00  0.00    -0.309 OA 
BRANCH  14  21
HETATM   21  C   UNL     1      -8.317   7.034  68.868  1.00  0.00    -0.125 C  
BRANCH  21  22
HETATM   22  O   UNL     1      -8.016   5.685  69.203  1.00  0.00    -0.094 OA 
BRANCH  22  23
HETATM   23  P   UNL     1      -9.091   4.853  70.040  1.00  0.00    -0.126 P  
HETATM   24  O   UNL     1     -10.530   5.086  69.722  1.00  0.00    -0.263 OA 
HETATM   25  O   UNL     1      -8.713   3.341  69.641  1.00  0.00    -0.061 OA 
BRANCH  23  26
HETATM   26  O   UNL     1      -8.666   4.917  71.560  1.00  0.00    -0.125 OA 
BRANCH  26  27
HETATM   27  P   UNL     1      -9.539   4.394  72.770  1.00  0.00    -0.142 P  
HETATM   28  O   UNL     1      -8.431   4.039  73.879  1.00  0.00    -0.091 OA 
HETATM   29  O   UNL     1     -10.414   3.209  72.542  1.00  0.00    -0.141 OA 
BRANCH  27  30
HETATM   30  O   UNL     1     -10.284   5.665  73.405  1.00  0.00    -0.182 OA 
BRANCH  30  31
HETATM   31  C   UNL     1     -10.056   6.975  72.896  1.00  0.00    -0.196 C  
BRANCH  31  32
HETATM   32  C   UNL     1     -11.333   7.792  72.727  1.00  0.00    -0.389 C  
HETATM   33  O   UNL     1     -11.046   9.122  72.251  1.00  0.00    -0.226 OA 
HETATM   34  C   UNL     1     -12.322   9.607  71.791  1.00  0.00    -0.392 C  
HETATM   35  H   UNL     1     -13.774   5.895  71.645  1.00  0.00     0.000 HD 
HETATM   36  C   UNL     1     -12.978   8.410  71.085  1.00  0.00    -0.048 C  
HETATM   37  C   UNL     1     -12.279   7.192  71.693  1.00  0.00    -0.350 C  
HETATM   38  H   UNL     1     -14.800   7.593  70.843  1.00  0.00     0.000 HD 
HETATM   39  O   UNL     1     -14.394   8.333  71.279  1.00  0.00    -0.355 OA 
HETATM   40  O   UNL     1     -13.184   6.270  72.289  1.00  0.00     0.002 OA 
BRANCH  34  41
HETATM   41  N   UNL     1     -12.149  10.758  70.928  1.00  0.00    -0.358 NA 
HETATM   42  C   UNL     1     -11.517  10.816  69.718  1.00  0.00    -0.311 A  
HETATM   43  N   UNL     1     -11.588  12.020  69.185  1.00  0.00    -0.288 NA 
HETATM   44  C   UNL     1     -12.276  12.779  70.110  1.00  0.00    -0.249 A  
HETATM   45  C   UNL     1     -12.682  14.123  70.128  1.00  0.00    -0.172 A  
HETATM   46  N   UNL     1     -12.470  14.996  69.072  1.00  0.00    -0.578 NA 
HETATM   47  N   UNL     1     -13.312  14.591  71.231  1.00  0.00    -0.358 NA 
HETATM   48  H1  UNL     1     -12.765  15.973  69.085  1.00  0.00     0.000 HD 
HETATM   49  C   UNL     1     -13.561  13.733  72.244  1.00  0.00    -0.559 A  
HETATM   50  H2  UNL     1     -12.873  14.568  68.238  1.00  0.00     0.000 HD 
HETATM   51  N   UNL     1     -13.268  12.414  72.321  1.00  0.00    -0.414 NA 
HETATM   52  C   UNL     1     -12.610  12.015  71.217  1.00  0.00    -0.252 A  
ENDBRANCH  34  41
ENDBRANCH  31  32
ENDBRANCH  30  31
ENDBRANCH  27  30
ENDBRANCH  26  27
ENDBRANCH  23  26
ENDBRANCH  22  23
ENDBRANCH  21  22
ENDBRANCH  14  21
ENDBRANCH   8  12
ENDBRANCH   4   6
TORSDOF 11
ENDMDL
MODEL      125
REMARK 921   NORMALIZED FREE ENERGY PREDICTED BY IDOCK:   -5.96 KCAL/MOL
REMARK 922        TOTAL FREE ENERGY PREDICTED BY IDOCK:  -11.99 KCAL/MOL
REMARK 923 INTER-LIGAND FREE ENERGY PREDICTED BY IDOCK:   -9.01 KCAL/MOL
REMARK 924 INTRA-LIGAND FREE ENERGY PREDICTED BY IDOCK:   -2.98 KCAL/MOL
REMARK 927      BINDING AFFINITY PREDICTED BY RF-SCORE:    0.00 PKD
ROOT
HETATM    1  N   UNL     1      -8.882   6.366  66.892  1.00  0.00    -0.117 N  
HETATM    2  H1  UNL     1      -7.986   6.717  67.232  1.00  0.00     0.000 HD 
HETATM    3  H2  UNL     1      -8.900   5.670  66.146  1.00  0.00     0.000 HD 
HETATM    4  C   UNL     1     -10.044   6.813  67.417  1.00  0.00    -0.175 C  
HETATM    5  O   UNL     1     -11.124   6.390  67.006  1.00  0.00    -0.384 OA 
ENDROOT
BRANCH   4   6
HETATM    6  C   UNL     1      -9.942   7.832  68.487  1.00  0.00    -0.193 C  
HETATM    7  C   UNL     1     -10.785   8.877  68.399  1.00  0.00    -0.076 C  
HETATM    8  N   UNL     1     -10.862   9.889  69.353  1.00  0.00    -0.230 NA 
HETATM    9  C   UNL     1      -9.008   7.687  69.657  1.00  0.00    -0.140 C  
HETATM   10  C   UNL     1      -9.905   9.885  70.374  1.00  0.00    -0.123 C  
HETATM   11  C   UNL     1      -9.020   8.894  70.562  1.00  0.00    -0.224 C  
BRANCH   8  12
HETATM   12  C   UNL     1     -11.974  10.860  69.447  1.00  0.00    -0.322 C  
HETATM   13  O   UNL     1     -12.354  11.261  68.111  1.00  0.00    -0.500 OA 
HETATM   14  C   UNL     1     -11.559  12.416  67.758  1.00  0.00    -0.352 C  
HETATM   15  H   UNL     1     -12.818  13.632  71.032  1.00  0.00     0.000 HD 
HETATM   16  C   UNL     1     -11.121  13.079  69.061  1.00  0.00    -0.231 C  
HETATM   17  H   UNL     1     -11.341  14.836  69.943  1.00  0.00     0.000 HD 
HETATM   18  C   UNL     1     -11.727  12.203  70.154  1.00  0.00    -0.218 C  
HETATM   19  O   UNL     1     -11.614  14.423  69.132  1.00  0.00    -0.269 OA 
HETATM   20  O   UNL     1     -12.971  12.802  70.595  1.00  0.00    -0.018 OA 
BRANCH  14  21
HETATM   21  C   UNL     1     -10.363  11.996  66.890  1.00  0.00    -0.213 C  
BRANCH  21  22
HETATM   22  O   UNL     1     -10.776  11.164  65.813  1.00  0.00    -0.250 OA 
BRANCH  22  23
HETATM   23  P   UNL     1     -10.607  11.713  64.323  1.00  0.00    -0.404 P  
HETATM   24  O   UNL     1     -11.823  11.724  63.459  1.00  0.00    -0.465 OA 
HETATM   25  O   UNL     1     -10.148  13.231  64.589  1.00  0.00    -0.319 OA 
BRANCH  23  26
HETATM   26  O   UNL     1      -9.297  11.064  63.722  1.00  0.00    -0.219 OA 
BRANCH  26  27
HETATM   27  P   UNL     1      -8.349  10.057  64.488  1.00  0.00    -0.186 P  
HETATM   28  O   UNL     1      -7.129   9.866  63.460  1.00  0.00    -0.113 OA 
HETATM   29  O   UNL     1      -8.900   8.723  64.861  1.00  0.00    -0.167 OA 
BRANCH  27  30
HETATM   30  O   UNL     1      -7.673  10.864  65.699  1.00  0.00    -0.103 OA 
BRANCH  30  31
HETATM   31  C   UNL     1      -6.258  10.920  65.838  1.00  0.00    -0.089 C  
BRANCH  31  32
HETATM   32  C   UNL     1      -5.801  11.465  67.188  1.00  0.00    -0.094 C  
HETATM   33  O   UNL     1      -5.818  12.905  67.207  1.00  0.00    -0.308 OA 
HETATM   34  C   UNL     1      -5.744  13.234  68.607  1.00  0.00    -0.079 C  
HETATM   35  H   UNL     1      -6.863   9.542  69.618  1.00  0.00     0.000 HD 
HETATM   36  C   UNL     1      -6.652  12.212  69.311  1.00  0.00    -0.104 C  
HETATM   37  C   UNL     1      -6.717  11.038  68.330  1.00  0.00    -0.060 C  
HETATM   38  H   UNL     1      -6.719  11.153  71.019  1.00  0.00     0.000 HD 
HETATM   39  O   UNL     1      -6.158  11.785  70.584  1.00  0.00    -0.305 OA 
HETATM   40  O   UNL     1      -6.293   9.808  68.906  1.00  0.00    -0.042 OA 
BRANCH  34  41
HETATM   41  N   UNL     1      -6.147  14.607  68.831  1.00  0.00    -0.084 NA 
HETATM   42  C   UNL     1      -5.572  15.529  69.660  1.00  0.00    -0.114 A  
HETATM   43  N   UNL     1      -6.172  16.701  69.583  1.00  0.00    -0.222 NA 
HETATM   44  C   UNL     1      -7.200  16.515  68.681  1.00  0.00    -0.186 A  
HETATM   45  C   UNL     1      -8.184  17.374  68.166  1.00  0.00    -0.238 A  
HETATM   46  N   UNL     1      -8.261  18.722  68.487  1.00  0.00    -0.338 NA 
HETATM   47  N   UNL     1      -9.104  16.864  67.314  1.00  0.00    -0.216 NA 
HETATM   48  H1  UNL     1      -8.976  19.346  68.113  1.00  0.00     0.000 HD 
HETATM   49  C   UNL     1      -9.006  15.563  66.964  1.00  0.00    -0.226 A  
HETATM   50  H2  UNL     1      -7.353  19.137  68.275  1.00  0.00     0.000 HD 
HETATM   51  N   UNL     1      -8.079  14.655  67.348  1.00  0.00    -0.184 NA 
HETATM   52  C   UNL     1      -7.218  15.207  68.223  1.00  0.00    -0.110 A  
ENDBRANCH  34  41
ENDBRANCH  31  32
ENDBRANCH  30  31
ENDBRANCH  27  30
ENDBRANCH  26  27
ENDBRANCH  23  26
ENDBRANCH  22  23
ENDBRANCH  21  22
ENDBRANCH  14  21
ENDBRANCH   8  12
ENDBRANCH   4   6
TORSDOF 11
ENDMDL
MODEL      126
REMARK 921   NORMALIZED FREE ENERGY PREDICTED BY IDOCK:   -5.96 KCAL/MOL
REMARK 922        TOTAL FREE ENERGY PREDICTED BY IDOCK:  -11.99 KCAL/MOL
REMARK 923 INTER-LIGAND FREE ENERGY PREDICTED BY IDOCK:   -9.47 KCAL/MOL
REMARK 924 INTRA-LIGAND FREE ENERGY PREDICTED BY IDOCK:   -2.52 KCAL/MOL
REMARK 927      BINDING AFFINITY PREDICTED BY RF-SCORE:    0.00 PKD
ROOT
HETATM    1  N   UNL     1     -10.638  17.581  69.193  1.00  0.00    -0.392 N  
HETATM    2  H1  UNL     1     -10.013  17.775  68.411  1.00  0.00     0.000 HD 
HETATM    3  H2  UNL     1     -11.193  18.336  69.595  1.00  0.00     0.000 HD 
HETATM    4  C   UNL     1     -10.739  16.334  69.704  1.00  0.00    -0.338 C  
HETATM    5  O   UNL     1     -11.493  16.099  70.648  1.00  0.00    -0.379 OA 
ENDROOT
BRANCH   4   6
HETATM    6  C   UNL     1      -9.894  15.289  69.080  1.00  0.00    -0.239 C  
HETATM    7  C   UNL     1     -10.538  14.339  68.378  1.00  0.00    -0.253 C  
HETATM    8  N   UNL     1      -9.891  13.323  67.679  1.00  0.00    -0.224 NA 
HETATM    9  C   UNL     1      -8.392  15.314  69.151  1.00  0.00    -0.233 C  
HETATM   10  C   UNL     1      -8.506  13.208  67.847  1.00  0.00    -0.181 C  
HETATM   11  C   UNL     1      -7.761  14.098  68.520  1.00  0.00    -0.138 C  
BRANCH   8  12
HETATM   12  C   UNL     1     -10.541  12.471  66.659  1.00  0.00    -0.237 C  
HETATM   13  O   UNL     1     -11.828  12.046  67.161  1.00  0.00    -0.565 OA 
HETATM   14  C   UNL     1     -11.631  10.804  67.873  1.00  0.00    -0.128 C  
HETATM   15  H   UNL     1      -9.907   9.874  64.720  1.00  0.00     0.000 HD 
HETATM   16  C   UNL     1     -10.359  10.163  67.324  1.00  0.00    -0.237 C  
HETATM   17  H   UNL     1      -9.855   8.481  66.415  1.00  0.00     0.000 HD 
HETATM   18  C   UNL     1      -9.869  11.146  66.265  1.00  0.00    -0.214 C  
HETATM   19  O   UNL     1     -10.647   8.879  66.757  1.00  0.00    -0.243 OA 
HETATM   20  O   UNL     1     -10.322  10.693  64.964  1.00  0.00    -0.310 OA 
BRANCH  14  21
HETATM   21  C   UNL     1     -11.544  11.062  69.386  1.00  0.00    -0.312 C  
BRANCH  21  22
HETATM   22  O   UNL     1     -11.778   9.870  70.125  1.00  0.00    -0.239 OA 
BRANCH  22  23
HETATM   23  P   UNL     1     -12.709   9.951  71.420  1.00  0.00    -0.464 P  
HETATM   24  O   UNL     1     -13.063  11.312  71.920  1.00  0.00    -0.493 OA 
HETATM   25  O   UNL     1     -14.048   9.227  70.900  1.00  0.00    -0.065 OA 
BRANCH  23  26
HETATM   26  O   UNL     1     -12.152   8.914  72.474  1.00  0.00    -0.325 OA 
BRANCH  26  27
HETATM   27  P   UNL     1     -10.795   8.114  72.331  1.00  0.00    -0.346 P  
HETATM   28  O   UNL     1     -10.757   7.237  73.677  1.00  0.00    -0.378 OA 
HETATM   29  O   UNL     1      -9.531   8.895  72.209  1.00  0.00    -0.327 OA 
BRANCH  27  30
HETATM   30  O   UNL     1     -11.011   7.008  71.189  1.00  0.00    -0.238 OA 
BRANCH  30  31
HETATM   31  C   UNL     1     -10.689   5.642  71.426  1.00  0.00    -0.244 C  
BRANCH  31  32
HETATM   32  C   UNL     1      -9.523   5.137  70.582  1.00  0.00    -0.170 C  
HETATM   33  O   UNL     1      -9.557   5.694  69.254  1.00  0.00    -0.128 OA 
HETATM   34  C   UNL     1      -8.236   5.440  68.739  1.00  0.00    -0.094 C  
HETATM   35  H   UNL     1      -6.831   4.821  72.419  1.00  0.00     0.000 HD 
HETATM   36  C   UNL     1      -7.284   5.711  69.915  1.00  0.00    -0.069 C  
HETATM   37  C   UNL     1      -8.169   5.544  71.153  1.00  0.00    -0.120 C  
HETATM   38  H   UNL     1      -5.577   4.989  70.693  1.00  0.00     0.000 HD 
HETATM   39  O   UNL     1      -6.165   4.822  69.966  1.00  0.00    -0.024 OA 
HETATM   40  O   UNL     1      -7.674   4.568  72.063  1.00  0.00    -0.084 OA 
BRANCH  34  41
HETATM   41  N   UNL     1      -7.969   6.272  67.583  1.00  0.00    -0.112 NA 
HETATM   42  C   UNL     1      -7.433   7.528  67.554  1.00  0.00    -0.104 A  
HETATM   43  N   UNL     1      -7.288   7.972  66.321  1.00  0.00    -0.077 NA 
HETATM   44  C   UNL     1      -7.781   6.963  65.520  1.00  0.00    -0.101 A  
HETATM   45  C   UNL     1      -7.895   6.820  64.127  1.00  0.00    -0.106 A  
HETATM   46  N   UNL     1      -7.434   7.768  63.225  1.00  0.00    -0.108 NA 
HETATM   47  N   UNL     1      -8.484   5.703  63.639  1.00  0.00    -0.045 NA 
HETATM   48  H1  UNL     1      -7.517   7.665  62.214  1.00  0.00     0.000 HD 
HETATM   49  C   UNL     1      -8.894   4.758  64.512  1.00  0.00    -0.147 A  
HETATM   50  H2  UNL     1      -6.449   7.933  63.434  1.00  0.00     0.000 HD 
HETATM   51  N   UNL     1      -8.792   4.756  65.861  1.00  0.00    -0.123 NA 
HETATM   52  C   UNL     1      -8.237   5.905  66.290  1.00  0.00    -0.114 A  
ENDBRANCH  34  41
ENDBRANCH  31  32
ENDBRANCH  30  31
ENDBRANCH  27  30
ENDBRANCH  26  27
ENDBRANCH  23  26
ENDBRANCH  22  23
ENDBRANCH  21  22
ENDBRANCH  14  21
ENDBRANCH   8  12
ENDBRANCH   4   6
TORSDOF 11
ENDMDL
MODEL      127
REMARK 921   NORMALIZED FREE ENERGY PREDICTED BY IDOCK:   -5.94 KCAL/MOL
REMARK 922        TOTAL FREE ENERGY PREDICTED BY IDOCK:  -11.96 KCAL/MOL
REMARK 923 INTER-LIGAND FREE ENERGY PREDICTED BY IDOCK:   -9.80 KCAL/MOL
REMARK 924 INTRA-LIGAND FREE ENERGY PREDICTED BY IDOCK:   -2.15 KCAL/MOL
REMARK 927      BINDING AFFINITY PREDICTED BY RF-SCORE:    0.00 PKD
ROOT
HETATM    1  N   UNL     1     -13.482   9.531  70.761  1.00  0.00    -0.588 N  
HETATM    2  H1  UNL     1     -13.780   9.723  69.805  1.00  0.00     0.000 HD 
HETATM    3  H2  UNL     1     -14.147   9.138  71.428  1.00  0.00     0.000 HD 
HETATM    4  C   UNL     1     -12.216   9.791  71.156  1.00  0.00    -0.362 C  
HETATM    5  O   UNL     1     -11.856   9.560  72.311  1.00  0.00    -0.156 OA 
ENDROOT
BRANCH   4   6
HETATM    6  C   UNL     1     -11.309  10.373  70.141  1.00  0.00    -0.397 C  
HETATM    7  C   UNL     1     -11.885  11.122  69.183  1.00  0.00    -0.350 C  
HETATM    8  N   UNL     1     -11.171  11.791  68.192  1.00  0.00    -0.239 NA 
HETATM    9  C   UNL     1      -9.814  10.213  70.203  1.00  0.00    -0.108 C  
HETATM   10  C   UNL     1      -9.796  11.542  68.111  1.00  0.00    -0.194 C  
HETATM   11  C   UNL     1      -9.116  10.818  69.011  1.00  0.00    -0.153 C  
BRANCH   8  12
HETATM   12  C   UNL     1     -11.736  12.856  67.335  1.00  0.00    -0.372 C  
HETATM   13  O   UNL     1     -12.274  12.251  66.137  1.00  0.00    -0.647 OA 
HETATM   14  C   UNL     1     -11.216  12.214  65.153  1.00  0.00    -0.329 C  
HETATM   15  H   UNL     1     -10.950  15.802  66.066  1.00  0.00     0.000 HD 
HETATM   16  C   UNL     1     -10.215  13.305  65.523  1.00  0.00    -0.290 C  
HETATM   17  H   UNL     1      -9.473  14.939  64.691  1.00  0.00     0.000 HD 
HETATM   18  C   UNL     1     -10.796  13.940  66.783  1.00  0.00    -0.286 C  
HETATM   19  O   UNL     1     -10.096  14.260  64.460  1.00  0.00    -0.254 OA 
HETATM   20  O   UNL     1     -11.531  15.132  66.408  1.00  0.00    -0.285 OA 
BRANCH  14  21
HETATM   21  C   UNL     1     -10.569  10.820  65.117  1.00  0.00    -0.169 C  
BRANCH  21  22
HETATM   22  O   UNL     1      -9.928  10.584  63.870  1.00  0.00    -0.325 OA 
BRANCH  22  23
HETATM   23  P   UNL     1      -8.461   9.952  63.879  1.00  0.00    -0.215 P  
HETATM   24  O   UNL     1      -7.597  10.217  62.692  1.00  0.00    -0.135 OA 
HETATM   25  O   UNL     1      -7.809  10.669  65.163  1.00  0.00    -0.119 OA 
BRANCH  23  26
HETATM   26  O   UNL     1      -8.591   8.452  64.360  1.00  0.00    -0.095 OA 
BRANCH  26  27
HETATM   27  P   UNL     1      -7.556   7.302  64.035  1.00  0.00    -0.110 P  
HETATM   28  O   UNL     1      -6.210   7.827  64.739  1.00  0.00    -0.041 OA 
HETATM   29  O   UNL     1      -7.281   6.990  62.604  1.00  0.00    -0.059 OA 
BRANCH  27  30
HETATM   30  O   UNL     1      -7.956   6.033  64.932  1.00  0.00    -0.113 OA 
BRANCH  30  31
HETATM   31  C   UNL     1      -6.960   5.273  65.606  1.00  0.00    -0.066 C  
BRANCH  31  32
HETATM   32  C   UNL     1      -7.455   4.633  66.899  1.00  0.00    -0.086 C  
HETATM   33  O   UNL     1      -8.220   5.566  67.687  1.00  0.00    -0.101 OA 
HETATM   34  C   UNL     1      -8.912   4.731  68.636  1.00  0.00    -0.107 C  
HETATM   35  H   UNL     1      -8.260   1.499  66.393  1.00  0.00     0.000 HD 
HETATM   36  C   UNL     1      -9.355   3.494  67.838  1.00  0.00    -0.187 C  
HETATM   37  C   UNL     1      -8.393   3.457  66.648  1.00  0.00    -0.101 C  
HETATM   38  H   UNL     1      -9.562   1.510  68.091  1.00  0.00     0.000 HD 
HETATM   39  O   UNL     1      -9.289   2.275  68.584  1.00  0.00    -0.162 OA 
HETATM   40  O   UNL     1      -7.677   2.231  66.549  1.00  0.00    -0.069 OA 
BRANCH  34  41
HETATM   41  N   UNL     1     -10.016   5.450  69.239  1.00  0.00    -0.188 NA 
HETATM   42  C   UNL     1     -10.853   6.356  68.651  1.00  0.00    -0.314 A  
HETATM   43  N   UNL     1     -11.779   6.783  69.486  1.00  0.00    -0.126 NA 
HETATM   44  C   UNL     1     -11.508   6.141  70.677  1.00  0.00    -0.261 A  
HETATM   45  C   UNL     1     -12.131   6.160  71.935  1.00  0.00    -0.165 A  
HETATM   46  N   UNL     1     -13.285   6.883  72.201  1.00  0.00    -0.548 NA 
HETATM   47  N   UNL     1     -11.580   5.440  72.940  1.00  0.00    -0.289 NA 
HETATM   48  H1  UNL     1     -13.738   6.897  73.115  1.00  0.00     0.000 HD 
HETATM   49  C   UNL     1     -10.482   4.699  72.673  1.00  0.00    -0.199 A  
HETATM   50  H2  UNL     1     -13.988   6.596  71.518  1.00  0.00     0.000 HD 
HETATM   51  N   UNL     1      -9.826   4.558  71.498  1.00  0.00    -0.181 NA 
HETATM   52  C   UNL     1     -10.394   5.326  70.550  1.00  0.00    -0.266 A  
ENDBRANCH  34  41
ENDBRANCH  31  32
ENDBRANCH  30  31
ENDBRANCH  27  30
ENDBRANCH  26  27
ENDBRANCH  23  26
ENDBRANCH  22  23
ENDBRANCH  21  22
ENDBRANCH  14  21
ENDBRANCH   8  12
ENDBRANCH   4   6
TORSDOF 11
ENDMDL
MODEL      128
REMARK 921   NORMALIZED FREE ENERGY PREDICTED BY IDOCK:   -5.91 KCAL/MOL
REMARK 922        TOTAL FREE ENERGY PREDICTED BY IDOCK:  -11.92 KCAL/MOL
REMARK 923 INTER-LIGAND FREE ENERGY PREDICTED BY IDOCK:  -10.18 KCAL/MOL
REMARK 924 INTRA-LIGAND FREE ENERGY PREDICTED BY IDOCK:   -1.74 KCAL/MOL
REMARK 927      BINDING AFFINITY PREDICTED BY RF-SCORE:    0.00 PKD
ROOT
HETATM    1  N   UNL     1     -12.673   7.236  70.818  1.00  0.00    -0.604 N  
HETATM    2  H1  UNL     1     -12.215   6.395  70.468  1.00  0.00     0.000 HD 
HETATM    3  H2  UNL     1     -13.530   7.567  70.373  1.00  0.00     0.000 HD 
HETATM    4  C   UNL     1     -12.160   7.917  71.867  1.00  0.00    -0.312 C  
HETATM    5  O   UNL     1     -12.714   8.932  72.290  1.00  0.00    -0.376 OA 
ENDROOT
BRANCH   4   6
HETATM    6  C   UNL     1     -10.909   7.388  72.455  1.00  0.00    -0.327 C  
HETATM    7  C   UNL     1     -10.732   6.056  72.388  1.00  0.00    -0.228 C  
HETATM    8  N   UNL     1      -9.586   5.405  72.836  1.00  0.00    -0.144 NA 
HETATM    9  C   UNL     1      -9.845   8.281  73.033  1.00  0.00    -0.248 C  
HETATM   10  C   UNL     1      -8.640   6.172  73.527  1.00  0.00    -0.125 C  
HETATM   11  C   UNL     1      -8.709   7.505  73.651  1.00  0.00    -0.255 C  
BRANCH   8  12
HETATM   12  C   UNL     1      -9.233   4.010  72.494  1.00  0.00    -0.114 C  
HETATM   13  O   UNL     1      -7.882   3.984  71.981  1.00  0.00    -0.075 OA 
HETATM   14  C   UNL     1      -7.954   4.171  70.549  1.00  0.00    -0.055 C  
HETATM   15  H   UNL     1     -10.417   1.409  70.839  1.00  0.00     0.000 HD 
HETATM   16  C   UNL     1      -9.346   3.728  70.105  1.00  0.00    -0.174 C  
HETATM   17  H   UNL     1     -10.121   2.374  68.890  1.00  0.00     0.000 HD 
HETATM   18  C   UNL     1     -10.034   3.292  71.395  1.00  0.00    -0.050 C  
HETATM   19  O   UNL     1      -9.255   2.649  69.167  1.00  0.00    -0.123 OA 
HETATM   20  O   UNL     1      -9.923   1.852  71.518  1.00  0.00    -0.151 OA 
BRANCH  14  21
HETATM   21  C   UNL     1      -7.667   5.636  70.186  1.00  0.00    -0.086 C  
BRANCH  21  22
HETATM   22  O   UNL     1      -8.678   6.161  69.334  1.00  0.00    -0.122 OA 
BRANCH  22  23
HETATM   23  P   UNL     1      -8.296   6.487  67.818  1.00  0.00    -0.118 P  
HETATM   24  O   UNL     1      -7.613   5.411  67.041  1.00  0.00    -0.090 OA 
HETATM   25  O   UNL     1      -9.745   6.751  67.170  1.00  0.00    -0.138 OA 
BRANCH  23  26
HETATM   26  O   UNL     1      -7.646   7.927  67.788  1.00  0.00    -0.104 OA 
BRANCH  26  27
HETATM   27  P   UNL     1      -8.162   9.173  68.613  1.00  0.00    -0.115 P  
HETATM   28  O   UNL     1      -7.286  10.381  68.017  1.00  0.00    -0.082 OA 
HETATM   29  O   UNL     1      -8.018   9.139  70.097  1.00  0.00    -0.091 OA 
BRANCH  27  30
HETATM   30  O   UNL     1      -9.640   9.512  68.091  1.00  0.00    -0.137 OA 
BRANCH  30  31
HETATM   31  C   UNL     1      -9.938  10.778  67.514  1.00  0.00    -0.174 C  
BRANCH  31  32
HETATM   32  C   UNL     1     -10.257  11.857  68.544  1.00  0.00    -0.215 C  
HETATM   33  O   UNL     1      -9.814  13.154  68.102  1.00  0.00    -0.217 OA 
HETATM   34  C   UNL     1     -10.510  14.071  68.967  1.00  0.00    -0.156 C  
HETATM   35  H   UNL     1     -13.133  11.246  69.988  1.00  0.00     0.000 HD 
HETATM   36  C   UNL     1     -11.927  13.493  69.113  1.00  0.00    -0.333 C  
HETATM   37  C   UNL     1     -11.755  12.007  68.788  1.00  0.00    -0.321 C  
HETATM   38  H   UNL     1     -13.363  13.309  70.508  1.00  0.00     0.000 HD 
HETATM   39  O   UNL     1     -12.487  13.667  70.418  1.00  0.00    -0.326 OA 
HETATM   40  O   UNL     1     -12.200  11.153  69.836  1.00  0.00    -0.314 OA 
BRANCH  34  41
HETATM   41  N   UNL     1     -10.492  15.410  68.414  1.00  0.00    -0.235 NA 
HETATM   42  C   UNL     1     -10.257  16.588  69.065  1.00  0.00    -0.285 A  
HETATM   43  N   UNL     1     -10.273  17.617  68.240  1.00  0.00    -0.352 NA 
HETATM   44  C   UNL     1     -10.560  17.076  67.003  1.00  0.00    -0.226 A  
HETATM   45  C   UNL     1     -10.701  17.640  65.725  1.00  0.00    -0.110 A  
HETATM   46  N   UNL     1     -10.509  18.989  65.463  1.00  0.00    -0.499 NA 
HETATM   47  N   UNL     1     -11.043  16.829  64.695  1.00  0.00    -0.937 NA 
HETATM   48  H1  UNL     1     -10.611  19.399  64.535  1.00  0.00     0.000 HD 
HETATM   49  C   UNL     1     -11.187  15.508  64.937  1.00  0.00    -0.389 A  
HETATM   50  H2  UNL     1      -9.578  19.235  65.802  1.00  0.00     0.000 HD 
HETATM   51  N   UNL     1     -11.026  14.844  66.105  1.00  0.00    -0.330 NA 
HETATM   52  C   UNL     1     -10.727  15.704  67.096  1.00  0.00    -0.314 A  
ENDBRANCH  34  41
ENDBRANCH  31  32
ENDBRANCH  30  31
ENDBRANCH  27  30
ENDBRANCH  26  27
ENDBRANCH  23  26
ENDBRANCH  22  23
ENDBRANCH  21  22
ENDBRANCH  14  21
ENDBRANCH   8  12
ENDBRANCH   4   6
TORSDOF 11
ENDMDL
MODEL      129
REMARK 921   NORMALIZED FREE ENERGY PREDICTED BY IDOCK:   -5.90 KCAL/MOL
REMARK 922        TOTAL FREE ENERGY PREDICTED BY IDOCK:  -11.90 KCAL/MOL
REMARK 923 INTER-LIGAND FREE ENERGY PREDICTED BY IDOCK:  -10.49 KCAL/MOL
REMARK 924 INTRA-LIGAND FREE ENERGY PREDICTED BY IDOCK:   -1.41 KCAL/MOL
REMARK 927      BINDING AFFINITY PREDICTED BY RF-SCORE:    0.00 PKD
ROOT
HETATM    1  N   UNL     1     -12.312  13.779  63.090  1.00  0.00    -1.106 N  
HETATM    2  H1  UNL     1     -11.483  13.466  62.585  1.00  0.00     0.000 HD 
HETATM    3  H2  UNL     1     -13.109  14.150  62.573  1.00  0.00     0.000 HD 
HETATM    4  C   UNL     1     -12.367  13.707  64.439  1.00  0.00    -0.338 C  
HETATM    5  O   UNL     1     -13.367  14.085  65.049  1.00  0.00    -0.578 OA 
ENDROOT
BRANCH   4   6
HETATM    6  C   UNL     1     -11.170  13.171  65.126  1.00  0.00    -0.317 C  
HETATM    7  C   UNL     1     -10.453  14.049  65.851  1.00  0.00    -0.309 C  
HETATM    8  N   UNL     1      -9.338  13.697  66.608  1.00  0.00    -0.267 NA 
HETATM    9  C   UNL     1     -10.802  11.713  65.091  1.00  0.00    -0.346 C  
HETATM   10  C   UNL     1      -8.861  12.387  66.479  1.00  0.00    -0.106 C  
HETATM   11  C   UNL     1      -9.495  11.428  65.789  1.00  0.00    -0.256 C  
BRANCH   8  12
HETATM   12  C   UNL     1      -8.732  14.559  67.646  1.00  0.00    -0.183 C  
HETATM   13  O   UNL     1      -9.111  14.056  68.947  1.00  0.00    -0.095 OA 
HETATM   14  C   UNL     1     -10.345  14.706  69.325  1.00  0.00    -0.173 C  
HETATM   15  H   UNL     1      -8.401  17.745  68.448  1.00  0.00     0.000 HD 
HETATM   16  C   UNL     1     -10.421  16.019  68.549  1.00  0.00    -0.258 C  
HETATM   17  H   UNL     1     -10.525  17.949  68.965  1.00  0.00     0.000 HD 
HETATM   18  C   UNL     1      -9.144  16.038  67.714  1.00  0.00    -0.196 C  
HETATM   19  O   UNL     1     -10.477  17.133  69.449  1.00  0.00    -0.321 OA 
HETATM   20  O   UNL     1      -8.147  16.830  68.406  1.00  0.00    -0.199 OA 
BRANCH  14  21
HETATM   21  C   UNL     1     -11.544  13.790  69.034  1.00  0.00    -0.313 C  
BRANCH  21  22
HETATM   22  O   UNL     1     -11.632  12.739  69.989  1.00  0.00    -0.236 OA 
BRANCH  22  23
HETATM   23  P   UNL     1     -11.645  11.233  69.459  1.00  0.00    -0.384 P  
HETATM   24  O   UNL     1     -12.236  10.991  68.110  1.00  0.00    -0.578 OA 
HETATM   25  O   UNL     1     -10.073  10.897  69.402  1.00  0.00    -0.189 OA 
BRANCH  23  26
HETATM   26  O   UNL     1     -12.145  10.315  70.644  1.00  0.00    -0.291 OA 
BRANCH  26  27
HETATM   27  P   UNL     1     -11.394   9.029  71.175  1.00  0.00    -0.363 P  
HETATM   28  O   UNL     1     -12.476   8.369  72.163  1.00  0.00    -0.335 OA 
HETATM   29  O   UNL     1     -10.106   9.220  71.902  1.00  0.00    -0.250 OA 
BRANCH  27  30
HETATM   30  O   UNL     1     -11.329   7.980  69.963  1.00  0.00    -0.161 OA 
BRANCH  30  31
HETATM   31  C   UNL     1     -11.890   6.678  70.094  1.00  0.00    -0.284 C  
BRANCH  31  32
HETATM   32  C   UNL     1     -10.855   5.560  70.021  1.00  0.00    -0.231 C  
HETATM   33  O   UNL     1     -10.333   5.415  68.686  1.00  0.00    -0.185 OA 
HETATM   34  C   UNL     1      -9.142   4.625  68.865  1.00  0.00    -0.119 C  
HETATM   35  H   UNL     1      -9.060   5.478  72.760  1.00  0.00     0.000 HD 
HETATM   36  C   UNL     1      -8.485   5.168  70.144  1.00  0.00    -0.100 C  
HETATM   37  C   UNL     1      -9.638   5.831  70.900  1.00  0.00    -0.168 C  
HETATM   38  H   UNL     1      -7.460   4.493  71.737  1.00  0.00     0.000 HD 
HETATM   39  O   UNL     1      -7.865   4.157  70.946  1.00  0.00    -0.057 OA 
HETATM   40  O   UNL     1      -9.818   5.310  72.212  1.00  0.00    -0.162 OA 
BRANCH  34  41
HETATM   41  N   UNL     1      -8.287   4.717  67.698  1.00  0.00    -0.104 NA 
HETATM   42  C   UNL     1      -6.953   5.006  67.652  1.00  0.00    -0.061 A  
HETATM   43  N   UNL     1      -6.483   4.961  66.421  1.00  0.00    -0.040 NA 
HETATM   44  C   UNL     1      -7.575   4.656  65.635  1.00  0.00    -0.082 A  
HETATM   45  C   UNL     1      -7.730   4.458  64.253  1.00  0.00    -0.080 A  
HETATM   46  N   UNL     1      -6.673   4.499  63.355  1.00  0.00    -0.037 NA 
HETATM   47  N   UNL     1      -8.972   4.215  63.771  1.00  0.00    -0.126 NA 
HETATM   48  H1  UNL     1      -6.786   4.355  62.352  1.00  0.00     0.000 HD 
HETATM   49  C   UNL     1      -9.997   4.130  64.647  1.00  0.00    -0.173 A  
HETATM   50  H2  UNL     1      -5.972   3.833  63.681  1.00  0.00     0.000 HD 
HETATM   51  N   UNL     1      -9.965   4.248  65.995  1.00  0.00    -0.225 NA 
HETATM   52  C   UNL     1      -8.716   4.528  66.411  1.00  0.00    -0.112 A  
ENDBRANCH  34  41
ENDBRANCH  31  32
ENDBRANCH  30  31
ENDBRANCH  27  30
ENDBRANCH  26  27
ENDBRANCH  23  26
ENDBRANCH  22  23
ENDBRANCH  21  22
ENDBRANCH  14  21
ENDBRANCH   8  12
ENDBRANCH   4   6
TORSDOF 11
ENDMDL
MODEL      130
REMARK 921   NORMALIZED FREE ENERGY PREDICTED BY IDOCK:   -5.87 KCAL/MOL
REMARK 922        TOTAL FREE ENERGY PREDICTED BY IDOCK:  -11.85 KCAL/MOL
REMARK 923 INTER-LIGAND FREE ENERGY PREDICTED BY IDOCK:  -10.75 KCAL/MOL
REMARK 924 INTRA-LIGAND FREE ENERGY PREDICTED BY IDOCK:   -1.10 KCAL/MOL
REMARK 927      BINDING AFFINITY PREDICTED BY RF-SCORE:    0.00 PKD
ROOT
HETATM    1  N   UNL     1     -12.901  10.491  72.239  1.00  0.00    -0.324 N  
HETATM    2  H1  UNL     1     -11.964  10.810  71.990  1.00  0.00     0.000 HD 
HETATM    3  H2  UNL     1     -13.587  11.162  72.585  1.00  0.00     0.000 HD 
HETATM    4  C   UNL     1     -13.243   9.190  72.114  1.00  0.00    -0.458 C  
HETATM    5  O   UNL     1     -14.373   8.804  72.414  1.00  0.00    -0.509 OA 
ENDROOT
BRANCH   4   6
HETATM    6  C   UNL     1     -12.193   8.270  71.619  1.00  0.00    -0.350 C  
HETATM    7  C   UNL     1     -10.919   8.679  71.772  1.00  0.00    -0.326 C  
HETATM    8  N   UNL     1      -9.814   7.909  71.419  1.00  0.00    -0.166 NA 
HETATM    9  C   UNL     1     -12.507   6.916  71.044  1.00  0.00    -0.364 C  
HETATM   10  C   UNL     1     -10.056   6.713  70.733  1.00  0.00    -0.184 C  
HETATM   11  C   UNL     1     -11.281   6.206  70.528  1.00  0.00    -0.403 C  
BRANCH   8  12
HETATM   12  C   UNL     1      -8.430   8.190  71.858  1.00  0.00    -0.150 C  
HETATM   13  O   UNL     1      -8.133   9.580  71.595  1.00  0.00    -0.147 OA 
HETATM   14  C   UNL     1      -7.580   9.666  70.263  1.00  0.00    -0.166 C  
HETATM   15  H   UNL     1      -5.366   6.991  71.576  1.00  0.00     0.000 HD 
HETATM   16  C   UNL     1      -6.993   8.297  69.928  1.00  0.00    -0.044 C  
HETATM   17  H   UNL     1      -5.223   7.550  69.458  1.00  0.00     0.000 HD 
HETATM   18  C   UNL     1      -7.270   7.454  71.169  1.00  0.00    -0.071 C  
HETATM   19  O   UNL     1      -5.588   8.403  69.667  1.00  0.00    -0.029 OA 
HETATM   20  O   UNL     1      -6.083   7.446  72.001  1.00  0.00    -0.040 OA 
BRANCH  14  21
HETATM   21  C   UNL     1      -8.663  10.094  69.260  1.00  0.00    -0.179 C  
BRANCH  21  22
HETATM   22  O   UNL     1      -8.196  11.137  68.413  1.00  0.00    -0.129 OA 
BRANCH  22  23
HETATM   23  P   UNL     1      -8.139  10.867  66.841  1.00  0.00    -0.147 P  
HETATM   24  O   UNL     1      -6.810  11.001  66.174  1.00  0.00    -0.124 OA 
HETATM   25  O   UNL     1      -8.604   9.329  66.759  1.00  0.00    -0.125 OA 
BRANCH  23  26
HETATM   26  O   UNL     1      -9.359  11.624  66.182  1.00  0.00    -0.216 OA 
BRANCH  26  27
HETATM   27  P   UNL     1     -10.874  11.432  66.591  1.00  0.00    -0.254 P  
HETATM   28  O   UNL     1     -10.990   9.842  66.789  1.00  0.00    -0.074 OA 
HETATM   29  O   UNL     1     -11.922  11.893  65.635  1.00  0.00    -0.429 OA 
BRANCH  27  30
HETATM   30  O   UNL     1     -11.040  11.992  68.085  1.00  0.00    -0.214 OA 
BRANCH  30  31
HETATM   31  C   UNL     1     -11.844  13.136  68.351  1.00  0.00    -0.351 C  
BRANCH  31  32
HETATM   32  C   UNL     1     -11.160  14.163  69.248  1.00  0.00    -0.250 C  
HETATM   33  O   UNL     1     -10.480  15.168  68.471  1.00  0.00    -0.225 OA 
HETATM   34  C   UNL     1     -10.235  16.228  69.415  1.00  0.00    -0.265 C  
HETATM   35  H   UNL     1     -12.980  14.756  71.906  1.00  0.00     0.000 HD 
HETATM   36  C   UNL     1     -11.512  16.314  70.267  1.00  0.00    -0.230 C  
HETATM   37  C   UNL     1     -12.150  14.931  70.117  1.00  0.00    -0.327 C  
HETATM   38  H   UNL     1     -12.054  16.667  72.171  1.00  0.00     0.000 HD 
HETATM   39  O   UNL     1     -11.265  16.614  71.644  1.00  0.00    -0.025 OA 
HETATM   40  O   UNL     1     -12.363  14.278  71.364  1.00  0.00    -0.334 OA 
BRANCH  34  41
HETATM   41  N   UNL     1      -9.921  17.463  68.727  1.00  0.00    -0.317 NA 
HETATM   42  C   UNL     1     -10.780  18.317  68.095  1.00  0.00    -0.199 A  
HETATM   43  N   UNL     1     -10.156  19.374  67.612  1.00  0.00    -0.371 NA 
HETATM   44  C   UNL     1      -8.827  19.175  67.925  1.00  0.00    -0.304 A  
HETATM   45  C   UNL     1      -7.669  19.938  67.699  1.00  0.00    -0.291 A  
HETATM   46  N   UNL     1      -7.686  21.184  67.090  1.00  0.00    -0.694 NA 
HETATM   47  N   UNL     1      -6.477  19.433  68.094  1.00  0.00    -0.228 NA 
HETATM   48  H1  UNL     1      -6.846  21.738  66.926  1.00  0.00     0.000 HD 
HETATM   49  C   UNL     1      -6.461  18.240  68.727  1.00  0.00    -0.225 A  
HETATM   50  H2  UNL     1      -8.339  21.769  67.614  1.00  0.00     0.000 HD 
HETATM   51  N   UNL     1      -7.506  17.442  69.047  1.00  0.00    -0.225 NA 
HETATM   52  C   UNL     1      -8.657  17.975  68.596  1.00  0.00    -0.264 A  
ENDBRANCH  34  41
ENDBRANCH  31  32
ENDBRANCH  30  31
ENDBRANCH  27  30
ENDBRANCH  26  27
ENDBRANCH  23  26
ENDBRANCH  22  23
ENDBRANCH  21  22
ENDBRANCH  14  21
ENDBRANCH   8  12
ENDBRANCH   4   6
TORSDOF 11
ENDMDL
MODEL      131
REMARK 921   NORMALIZED FREE ENERGY PREDICTED BY IDOCK:   -5.86 KCAL/MOL
REMARK 922        TOTAL FREE ENERGY PREDICTED BY IDOCK:  -11.83 KCAL/MOL
REMARK 923 INTER-LIGAND FREE ENERGY PREDICTED BY IDOCK:  -10.47 KCAL/MOL
REMARK 924 INTRA-LIGAND FREE ENERGY PREDICTED BY IDOCK:   -1.36 KCAL/MOL
REMARK 927      BINDING AFFINITY PREDICTED BY RF-SCORE:    0.00 PKD
ROOT
HETATM    1  N   UNL     1      -8.233   4.403  62.998  1.00  0.00    -0.084 N  
HETATM    2  H1  UNL     1      -7.358   4.818  63.320  1.00  0.00     0.000 HD 
HETATM    3  H2  UNL     1      -8.402   4.295  61.998  1.00  0.00     0.000 HD 
HETATM    4  C   UNL     1      -9.169   3.993  63.883  1.00  0.00    -0.142 C  
HETATM    5  O   UNL     1     -10.224   3.491  63.495  1.00  0.00    -0.168 OA 
ENDROOT
BRANCH   4   6
HETATM    6  C   UNL     1      -8.862   4.192  65.317  1.00  0.00    -0.129 C  
HETATM    7  C   UNL     1      -9.682   5.016  65.996  1.00  0.00    -0.180 C  
HETATM    8  N   UNL     1      -9.571   5.262  67.362  1.00  0.00    -0.127 NA 
HETATM    9  C   UNL     1      -7.746   3.464  66.015  1.00  0.00    -0.081 C  
HETATM   10  C   UNL     1      -8.453   4.737  68.022  1.00  0.00    -0.102 C  
HETATM   11  C   UNL     1      -7.574   3.902  67.448  1.00  0.00    -0.072 C  
BRANCH   8  12
HETATM   12  C   UNL     1     -10.626   5.898  68.181  1.00  0.00    -0.244 C  
HETATM   13  O   UNL     1     -11.343   6.847  67.359  1.00  0.00    -0.227 OA 
HETATM   14  C   UNL     1     -10.675   8.122  67.480  1.00  0.00    -0.156 C  
HETATM   15  H   UNL     1     -11.048   7.384  71.099  1.00  0.00     0.000 HD 
HETATM   16  C   UNL     1      -9.917   8.113  68.806  1.00  0.00    -0.189 C  
HETATM   17  H   UNL     1      -9.912   9.159  70.484  1.00  0.00     0.000 HD 
HETATM   18  C   UNL     1     -10.213   6.738  69.399  1.00  0.00    -0.187 C  
HETATM   19  O   UNL     1     -10.384   9.165  69.659  1.00  0.00    -0.203 OA 
HETATM   20  O   UNL     1     -11.303   6.864  70.346  1.00  0.00    -0.290 OA 
BRANCH  14  21
HETATM   21  C   UNL     1      -9.742   8.354  66.281  1.00  0.00    -0.207 C  
BRANCH  21  22
HETATM   22  O   UNL     1     -10.389   9.112  65.266  1.00  0.00     0.580 OA 
BRANCH  22  23
HETATM   23  P   UNL     1     -10.052  10.669  65.153  1.00  0.00    -0.277 P  
HETATM   24  O   UNL     1      -9.112  11.238  66.162  1.00  0.00    -0.194 OA 
HETATM   25  O   UNL     1      -9.360  10.745  63.703  1.00  0.00    -0.227 OA 
BRANCH  23  26
HETATM   26  O   UNL     1     -11.414  11.436  64.919  1.00  0.00    -0.121 OA 
BRANCH  26  27
HETATM   27  P   UNL     1     -11.555  12.837  64.200  1.00  0.00    -0.473 P  
HETATM   28  O   UNL     1     -12.790  13.511  64.976  1.00  0.00    -0.684 OA 
HETATM   29  O   UNL     1     -11.822  12.848  62.733  1.00  0.00     0.030 OA 
BRANCH  27  30
HETATM   30  O   UNL     1     -10.309  13.737  64.660  1.00  0.00    -0.426 OA 
BRANCH  30  31
HETATM   31  C   UNL     1     -10.429  15.152  64.763  1.00  0.00    -0.209 C  
BRANCH  31  32
HETATM   32  C   UNL     1     -10.540  15.649  66.201  1.00  0.00    -0.320 C  
HETATM   33  O   UNL     1     -11.441  14.831  66.972  1.00  0.00    -0.350 OA 
HETATM   34  C   UNL     1     -11.143  15.179  68.337  1.00  0.00    -0.282 C  
HETATM   35  H   UNL     1      -7.647  16.763  67.256  1.00  0.00     0.000 HD 
HETATM   36  C   UNL     1      -9.612  15.312  68.395  1.00  0.00    -0.206 C  
HETATM   37  C   UNL     1      -9.210  15.590  66.944  1.00  0.00    -0.236 C  
HETATM   38  H   UNL     1      -8.213  16.442  69.294  1.00  0.00     0.000 HD 
HETATM   39  O   UNL     1      -9.159  16.359  69.258  1.00  0.00    -0.235 OA 
HETATM   40  O   UNL     1      -8.475  16.799  66.793  1.00  0.00    -0.195 OA 
BRANCH  34  41
HETATM   41  N   UNL     1     -11.666  14.179  69.246  1.00  0.00    -0.301 NA 
HETATM   42  C   UNL     1     -11.426  12.834  69.246  1.00  0.00    -0.289 A  
HETATM   43  N   UNL     1     -12.032  12.227  70.248  1.00  0.00    -0.335 NA 
HETATM   44  C   UNL     1     -12.718  13.228  70.906  1.00  0.00    -0.254 A  
HETATM   45  C   UNL     1     -13.536  13.231  72.048  1.00  0.00    -0.507 A  
HETATM   46  N   UNL     1     -13.779  12.100  72.814  1.00  0.00    -0.361 NA 
HETATM   47  N   UNL     1     -14.117  14.396  72.421  1.00  0.00    -0.532 NA 
HETATM   48  H1  UNL     1     -14.372  12.103  73.643  1.00  0.00     0.000 HD 
HETATM   49  C   UNL     1     -13.848  15.508  71.705  1.00  0.00    -0.456 A  
HETATM   50  H2  UNL     1     -12.873  11.720  73.090  1.00  0.00     0.000 HD 
HETATM   51  N   UNL     1     -13.041  15.641  70.627  1.00  0.00    -0.463 NA 
HETATM   52  C   UNL     1     -12.524  14.448  70.279  1.00  0.00    -0.354 A  
ENDBRANCH  34  41
ENDBRANCH  31  32
ENDBRANCH  30  31
ENDBRANCH  27  30
ENDBRANCH  26  27
ENDBRANCH  23  26
ENDBRANCH  22  23
ENDBRANCH  21  22
ENDBRANCH  14  21
ENDBRANCH   8  12
ENDBRANCH   4   6
TORSDOF 11
ENDMDL
MODEL      132
REMARK 921   NORMALIZED FREE ENERGY PREDICTED BY IDOCK:   -5.85 KCAL/MOL
REMARK 922        TOTAL FREE ENERGY PREDICTED BY IDOCK:  -11.82 KCAL/MOL
REMARK 923 INTER-LIGAND FREE ENERGY PREDICTED BY IDOCK:  -10.21 KCAL/MOL
REMARK 924 INTRA-LIGAND FREE ENERGY PREDICTED BY IDOCK:   -1.61 KCAL/MOL
REMARK 927      BINDING AFFINITY PREDICTED BY RF-SCORE:    0.00 PKD
ROOT
HETATM    1  N   UNL     1     -12.263  16.094  71.573  1.00  0.00    -0.600 N  
HETATM    2  H1  UNL     1     -11.871  17.003  71.328  1.00  0.00     0.000 HD 
HETATM    3  H2  UNL     1     -12.640  15.942  72.509  1.00  0.00     0.000 HD 
HETATM    4  C   UNL     1     -12.290  15.087  70.671  1.00  0.00    -0.348 C  
HETATM    5  O   UNL     1     -12.763  13.990  70.967  1.00  0.00    -0.327 OA 
ENDROOT
BRANCH   4   6
HETATM    6  C   UNL     1     -11.714  15.373  69.338  1.00  0.00    -0.369 C  
HETATM    7  C   UNL     1     -12.041  14.520  68.349  1.00  0.00    -0.214 C  
HETATM    8  N   UNL     1     -11.636  14.680  67.026  1.00  0.00    -0.373 NA 
HETATM    9  C   UNL     1     -10.869  16.587  69.064  1.00  0.00    -0.329 C  
HETATM   10  C   UNL     1     -10.719  15.701  66.753  1.00  0.00    -0.300 C  
HETATM   11  C   UNL     1     -10.326  16.611  67.657  1.00  0.00    -0.305 C  
BRANCH   8  12
HETATM   12  C   UNL     1     -12.229  13.953  65.882  1.00  0.00    -0.467 C  
HETATM   13  O   UNL     1     -12.244  12.541  66.187  1.00  0.00    -0.609 OA 
HETATM   14  C   UNL     1     -10.998  11.978  65.720  1.00  0.00    -0.307 C  
HETATM   15  H   UNL     1     -11.984  13.726  62.596  1.00  0.00     0.000 HD 
HETATM   16  C   UNL     1     -10.471  12.896  64.620  1.00  0.00    -0.363 C  
HETATM   17  H   UNL     1     -10.019  12.753  62.700  1.00  0.00     0.000 HD 
HETATM   18  C   UNL     1     -11.515  14.005  64.522  1.00  0.00    -0.370 C  
HETATM   19  O   UNL     1     -10.347  12.181  63.384  1.00  0.00    -0.437 OA 
HETATM   20  O   UNL     1     -12.425  13.694  63.438  1.00  0.00    -0.784 OA 
BRANCH  14  21
HETATM   21  C   UNL     1     -10.004  11.839  66.884  1.00  0.00    -0.199 C  
BRANCH  21  22
HETATM   22  O   UNL     1      -9.132  10.733  66.685  1.00  0.00    -0.155 OA 
BRANCH  22  23
HETATM   23  P   UNL     1      -8.818   9.782  67.929  1.00  0.00    -0.120 P  
HETATM   24  O   UNL     1      -7.758   8.748  67.745  1.00  0.00    -0.099 OA 
HETATM   25  O   UNL     1      -8.318  10.844  69.029  1.00  0.00    -0.152 OA 
BRANCH  23  26
HETATM   26  O   UNL     1     -10.201   9.304  68.524  1.00  0.00    -0.187 OA 
BRANCH  26  27
HETATM   27  P   UNL     1     -10.378   8.172  69.614  1.00  0.00    -0.220 P  
HETATM   28  O   UNL     1     -11.621   8.705  70.482  1.00  0.00    -0.243 OA 
HETATM   29  O   UNL     1      -9.227   7.882  70.516  1.00  0.00    -0.156 OA 
BRANCH  27  30
HETATM   30  O   UNL     1     -10.987   6.886  68.871  1.00  0.00    -0.219 OA 
BRANCH  30  31
HETATM   31  C   UNL     1     -10.904   6.754  67.456  1.00  0.00    -0.318 C  
BRANCH  31  32
HETATM   32  C   UNL     1      -9.772   5.841  66.996  1.00  0.00    -0.142 C  
HETATM   33  O   UNL     1      -8.865   5.544  68.076  1.00  0.00    -0.107 OA 
HETATM   34  C   UNL     1      -8.116   4.412  67.596  1.00  0.00    -0.099 C  
HETATM   35  H   UNL     1     -10.872   3.661  64.813  1.00  0.00     0.000 HD 
HETATM   36  C   UNL     1      -9.143   3.522  66.877  1.00  0.00    -0.166 C  
HETATM   37  C   UNL     1     -10.275   4.486  66.511  1.00  0.00    -0.191 C  
HETATM   38  H   UNL     1      -9.262   2.326  65.265  1.00  0.00     0.000 HD 
HETATM   39  O   UNL     1      -8.627   2.875  65.710  1.00  0.00    -0.107 OA 
HETATM   40  O   UNL     1     -10.559   4.505  65.116  1.00  0.00    -0.206 OA 
BRANCH  34  41
HETATM   41  N   UNL     1      -7.445   3.742  68.692  1.00  0.00    -0.054 NA 
HETATM   42  C   UNL     1      -6.111   3.479  68.829  1.00  0.00    -0.028 A  
HETATM   43  N   UNL     1      -5.842   2.891  69.978  1.00  0.00    -0.018 NA 
HETATM   44  C   UNL     1      -7.067   2.744  70.597  1.00  0.00    -0.033 A  
HETATM   45  C   UNL     1      -7.450   2.207  71.837  1.00  0.00    -0.040 A  
HETATM   46  N   UNL     1      -6.544   1.719  72.768  1.00  0.00    -0.017 NA 
HETATM   47  N   UNL     1      -8.769   2.160  72.140  1.00  0.00    -0.067 NA 
HETATM   48  H1  UNL     1      -6.823   1.330  73.669  1.00  0.00     0.000 HD 
HETATM   49  C   UNL     1      -9.651   2.674  71.255  1.00  0.00    -0.156 A  
HETATM   50  H2  UNL     1      -5.871   2.463  72.954  1.00  0.00     0.000 HD 
HETATM   51  N   UNL     1      -9.402   3.262  70.062  1.00  0.00    -0.159 NA 
HETATM   52  C   UNL     1      -8.082   3.243  69.798  1.00  0.00    -0.048 A  
ENDBRANCH  34  41
ENDBRANCH  31  32
ENDBRANCH  30  31
ENDBRANCH  27  30
ENDBRANCH  26  27
ENDBRANCH  23  26
ENDBRANCH  22  23
ENDBRANCH  21  22
ENDBRANCH  14  21
ENDBRANCH   8  12
ENDBRANCH   4   6
TORSDOF 11
ENDMDL
MODEL      133
REMARK 921   NORMALIZED FREE ENERGY PREDICTED BY IDOCK:   -5.85 KCAL/MOL
REMARK 922        TOTAL FREE ENERGY PREDICTED BY IDOCK:  -11.81 KCAL/MOL
REMARK 923 INTER-LIGAND FREE ENERGY PREDICTED BY IDOCK:  -10.10 KCAL/MOL
REMARK 924 INTRA-LIGAND FREE ENERGY PREDICTED BY IDOCK:   -1.71 KCAL/MOL
REMARK 927      BINDING AFFINITY PREDICTED BY RF-SCORE:    0.00 PKD
ROOT
HETATM    1  N   UNL     1     -11.834  16.707  72.092  1.00  0.00    -0.597 N  
HETATM    2  H1  UNL     1     -11.674  17.490  71.458  1.00  0.00     0.000 HD 
HETATM    3  H2  UNL     1     -11.959  16.883  73.089  1.00  0.00     0.000 HD 
HETATM    4  C   UNL     1     -11.883  15.440  71.625  1.00  0.00    -0.401 C  
HETATM    5  O   UNL     1     -12.077  14.495  72.390  1.00  0.00    -0.233 OA 
ENDROOT
BRANCH   4   6
HETATM    6  C   UNL     1     -11.680  15.258  70.170  1.00  0.00    -0.342 C  
HETATM    7  C   UNL     1     -10.886  16.157  69.560  1.00  0.00    -0.329 C  
HETATM    8  N   UNL     1     -10.543  16.094  68.212  1.00  0.00    -0.275 NA 
HETATM    9  C   UNL     1     -12.257  14.094  69.411  1.00  0.00    -0.329 C  
HETATM   10  C   UNL     1     -11.183  15.125  67.429  1.00  0.00    -0.323 C  
HETATM   11  C   UNL     1     -11.988  14.177  67.929  1.00  0.00    -0.378 C  
BRANCH   8  12
HETATM   12  C   UNL     1      -9.441  16.868  67.597  1.00  0.00    -0.241 C  
HETATM   13  O   UNL     1      -8.548  15.951  66.927  1.00  0.00    -0.198 OA 
HETATM   14  C   UNL     1      -7.542  15.543  67.882  1.00  0.00    -0.133 C  
HETATM   15  H   UNL     1      -7.241  19.214  68.345  1.00  0.00     0.000 HD 
HETATM   16  C   UNL     1      -7.460  16.633  68.947  1.00  0.00    -0.232 C  
HETATM   17  H   UNL     1      -6.093  17.876  69.653  1.00  0.00     0.000 HD 
HETATM   18  C   UNL     1      -8.497  17.665  68.511  1.00  0.00    -0.289 C  
HETATM   19  O   UNL     1      -6.144  17.197  68.989  1.00  0.00    -0.166 OA 
HETATM   20  O   UNL     1      -7.825  18.721  67.780  1.00  0.00    -0.238 OA 
BRANCH  14  21
HETATM   21  C   UNL     1      -7.898  14.173  68.481  1.00  0.00    -0.140 C  
BRANCH  21  22
HETATM   22  O   UNL     1      -7.669  13.128  67.543  1.00  0.00    -0.148 OA 
BRANCH  22  23
HETATM   23  P   UNL     1      -6.355  12.236  67.708  1.00  0.00    -0.133 P  
HETATM   24  O   UNL     1      -5.334  12.319  66.624  1.00  0.00    -0.333 OA 
HETATM   25  O   UNL     1      -5.724  12.838  69.060  1.00  0.00    -0.067 OA 
BRANCH  23  26
HETATM   26  O   UNL     1      -6.812  10.793  68.163  1.00  0.00    -0.066 OA 
BRANCH  26  27
HETATM   27  P   UNL     1      -7.103   9.583  67.188  1.00  0.00    -0.087 P  
HETATM   28  O   UNL     1      -7.215   8.335  68.194  1.00  0.00    -0.089 OA 
HETATM   29  O   UNL     1      -6.098   9.280  66.129  1.00  0.00    -0.058 OA 
BRANCH  27  30
HETATM   30  O   UNL     1      -8.607   9.749  66.655  1.00  0.00    -0.126 OA 
BRANCH  30  31
HETATM   31  C   UNL     1      -9.505   8.645  66.648  1.00  0.00    -0.207 C  
BRANCH  31  32
HETATM   32  C   UNL     1     -10.647   8.784  67.649  1.00  0.00    -0.213 C  
HETATM   33  O   UNL     1     -10.512   7.846  68.734  1.00  0.00    -0.207 OA 
HETATM   34  C   UNL     1     -11.408   8.351  69.742  1.00  0.00     0.143 C  
HETATM   35  H   UNL     1     -11.506  11.927  67.980  1.00  0.00     0.000 HD 
HETATM   36  C   UNL     1     -11.232   9.878  69.710  1.00  0.00    -0.235 C  
HETATM   37  C   UNL     1     -10.682  10.158  68.309  1.00  0.00    -0.238 C  
HETATM   38  H   UNL     1     -12.338  11.545  69.914  1.00  0.00     0.000 HD 
HETATM   39  O   UNL     1     -12.446  10.601  69.934  1.00  0.00    -0.300 OA 
HETATM   40  O   UNL     1     -11.484  11.071  67.569  1.00  0.00    -0.468 OA 
BRANCH  34  41
HETATM   41  N   UNL     1     -11.106   7.766  71.033  1.00  0.00    -0.253 NA 
HETATM   42  C   UNL     1     -11.208   8.347  72.265  1.00  0.00    -0.376 A  
HETATM   43  N   UNL     1     -10.893   7.507  73.232  1.00  0.00    -0.393 NA 
HETATM   44  C   UNL     1     -10.545   6.338  72.587  1.00  0.00    -0.217 A  
HETATM   45  C   UNL     1     -10.131   5.079  73.052  1.00  0.00    -0.169 A  
HETATM   46  N   UNL     1     -10.037   4.759  74.398  1.00  0.00    -0.199 NA 
HETATM   47  N   UNL     1      -9.807   4.130  72.142  1.00  0.00    -0.162 NA 
HETATM   48  H1  UNL     1      -9.736   3.844  74.736  1.00  0.00     0.000 HD 
HETATM   49  C   UNL     1      -9.940   4.423  70.831  1.00  0.00    -0.172 A  
HETATM   50  H2  UNL     1     -10.944   4.956  74.822  1.00  0.00     0.000 HD 
HETATM   51  N   UNL     1     -10.376   5.572  70.265  1.00  0.00    -0.256 NA 
HETATM   52  C   UNL     1     -10.644   6.489  71.213  1.00  0.00    -0.227 A  
ENDBRANCH  34  41
ENDBRANCH  31  32
ENDBRANCH  30  31
ENDBRANCH  27  30
ENDBRANCH  26  27
ENDBRANCH  23  26
ENDBRANCH  22  23
ENDBRANCH  21  22
ENDBRANCH  14  21
ENDBRANCH   8  12
ENDBRANCH   4   6
TORSDOF 11
ENDMDL
MODEL      134
REMARK 921   NORMALIZED FREE ENERGY PREDICTED BY IDOCK:   -5.84 KCAL/MOL
REMARK 922        TOTAL FREE ENERGY PREDICTED BY IDOCK:  -11.79 KCAL/MOL
REMARK 923 INTER-LIGAND FREE ENERGY PREDICTED BY IDOCK:  -10.95 KCAL/MOL
REMARK 924 INTRA-LIGAND FREE ENERGY PREDICTED BY IDOCK:   -0.84 KCAL/MOL
REMARK 927      BINDING AFFINITY PREDICTED BY RF-SCORE:    0.00 PKD
ROOT
HETATM    1  N   UNL     1      -6.648  18.811  65.171  1.00  0.00    -0.210 N  
HETATM    2  H1  UNL     1      -7.422  19.306  64.727  1.00  0.00     0.000 HD 
HETATM    3  H2  UNL     1      -5.761  18.713  64.676  1.00  0.00     0.000 HD 
HETATM    4  C   UNL     1      -6.784  18.283  66.407  1.00  0.00    -0.220 C  
HETATM    5  O   UNL     1      -5.851  17.685  66.942  1.00  0.00    -0.131 OA 
ENDROOT
BRANCH   4   6
HETATM    6  C   UNL     1      -8.102  18.451  67.060  1.00  0.00    -0.239 C  
HETATM    7  C   UNL     1      -8.512  17.440  67.850  1.00  0.00    -0.228 C  
HETATM    8  N   UNL     1      -9.694  17.466  68.585  1.00  0.00    -0.297 NA 
HETATM    9  C   UNL     1      -8.919  19.706  66.924  1.00  0.00    -0.395 C  
HETATM   10  C   UNL     1     -10.565  18.540  68.366  1.00  0.00    -0.107 C  
HETATM   11  C   UNL     1     -10.261  19.602  67.607  1.00  0.00    -0.567 C  
BRANCH   8  12
HETATM   12  C   UNL     1     -10.010  16.528  69.685  1.00  0.00    -0.044 C  
HETATM   13  O   UNL     1      -9.455  15.232  69.363  1.00  0.00    -0.235 OA 
HETATM   14  C   UNL     1     -10.460  14.495  68.632  1.00  0.00    -0.247 C  
HETATM   15  H   UNL     1     -12.558  15.509  71.522  1.00  0.00     0.000 HD 
HETATM   16  C   UNL     1     -11.816  15.088  69.004  1.00  0.00    -0.300 C  
HETATM   17  H   UNL     1     -13.498  14.463  69.838  1.00  0.00     0.000 HD 
HETATM   18  C   UNL     1     -11.483  16.208  69.986  1.00  0.00    -0.288 C  
HETATM   19  O   UNL     1     -12.653  14.093  69.606  1.00  0.00    -0.262 OA 
HETATM   20  O   UNL     1     -11.647  15.707  71.336  1.00  0.00    -0.356 OA 
BRANCH  14  21
HETATM   21  C   UNL     1     -10.187  14.572  67.122  1.00  0.00    -0.260 C  
BRANCH  21  22
HETATM   22  O   UNL     1     -11.074  15.484  66.485  1.00  0.00    -0.287 OA 
BRANCH  22  23
HETATM   23  P   UNL     1     -11.307  15.341  64.912  1.00  0.00    -0.262 P  
HETATM   24  O   UNL     1     -11.428  16.602  64.124  1.00  0.00    -1.131 OA 
HETATM   25  O   UNL     1      -9.969  14.574  64.456  1.00  0.00    -0.116 OA 
BRANCH  23  26
HETATM   26  O   UNL     1     -12.419  14.240  64.693  1.00  0.00    -0.571 OA 
BRANCH  26  27
HETATM   27  P   UNL     1     -12.180  12.679  64.773  1.00  0.00    -0.445 P  
HETATM   28  O   UNL     1     -13.283  12.099  63.758  1.00  0.00    -0.763 OA 
HETATM   29  O   UNL     1     -12.324  12.015  66.099  1.00  0.00    -0.449 OA 
BRANCH  27  30
HETATM   30  O   UNL     1     -10.800  12.369  64.016  1.00  0.00    -0.332 OA 
BRANCH  30  31
HETATM   31  C   UNL     1     -10.348  11.030  63.842  1.00  0.00    -0.372 C  
BRANCH  31  32
HETATM   32  C   UNL     1      -9.796  10.405  65.120  1.00  0.00    -0.313 C  
HETATM   33  O   UNL     1      -9.648   8.978  64.985  1.00  0.00    -0.014 OA 
HETATM   34  C   UNL     1      -8.790   8.614  66.083  1.00  0.00    -0.171 C  
HETATM   35  H   UNL     1      -7.605  12.397  66.519  1.00  0.00     0.000 HD 
HETATM   36  C   UNL     1      -7.733   9.729  66.156  1.00  0.00    -0.104 C  
HETATM   37  C   UNL     1      -8.405  10.921  65.470  1.00  0.00    -0.079 C  
HETATM   38  H   UNL     1      -6.690  10.752  67.537  1.00  0.00     0.000 HD 
HETATM   39  O   UNL     1      -7.343  10.063  67.491  1.00  0.00    -0.088 OA 
HETATM   40  O   UNL     1      -8.471  12.075  66.300  1.00  0.00    -0.066 OA 
BRANCH  34  41
HETATM   41  N   UNL     1      -8.221   7.298  65.872  1.00  0.00    -0.125 NA 
HETATM   42  C   UNL     1      -6.951   6.983  65.477  1.00  0.00    -0.056 A  
HETATM   43  N   UNL     1      -6.762   5.679  65.430  1.00  0.00    -0.040 NA 
HETATM   44  C   UNL     1      -7.977   5.130  65.785  1.00  0.00    -0.108 A  
HETATM   45  C   UNL     1      -8.418   3.805  65.933  1.00  0.00    -0.110 A  
HETATM   46  N   UNL     1      -7.590   2.704  65.769  1.00  0.00    -0.072 NA 
HETATM   47  N   UNL     1      -9.716   3.589  66.251  1.00  0.00    -0.092 NA 
HETATM   48  H1  UNL     1      -7.910   1.742  65.877  1.00  0.00     0.000 HD 
HETATM   49  C   UNL     1     -10.515   4.658  66.456  1.00  0.00    -0.123 A  
HETATM   50  H2  UNL     1      -6.791   2.830  66.392  1.00  0.00     0.000 HD 
HETATM   51  N   UNL     1     -10.196   5.972  66.395  1.00  0.00    -0.121 NA 
HETATM   52  C   UNL     1      -8.908   6.124  66.037  1.00  0.00    -0.153 A  
ENDBRANCH  34  41
ENDBRANCH  31  32
ENDBRANCH  30  31
ENDBRANCH  27  30
ENDBRANCH  26  27
ENDBRANCH  23  26
ENDBRANCH  22  23
ENDBRANCH  21  22
ENDBRANCH  14  21
ENDBRANCH   8  12
ENDBRANCH   4   6
TORSDOF 11
ENDMDL
MODEL      135
REMARK 921   NORMALIZED FREE ENERGY PREDICTED BY IDOCK:   -5.83 KCAL/MOL
REMARK 922        TOTAL FREE ENERGY PREDICTED BY IDOCK:  -11.78 KCAL/MOL
REMARK 923 INTER-LIGAND FREE ENERGY PREDICTED BY IDOCK:   -9.59 KCAL/MOL
REMARK 924 INTRA-LIGAND FREE ENERGY PREDICTED BY IDOCK:   -2.19 KCAL/MOL
REMARK 927      BINDING AFFINITY PREDICTED BY RF-SCORE:    0.00 PKD
ROOT
HETATM    1  N   UNL     1     -12.138  14.965  68.346  1.00  0.00    -0.573 N  
HETATM    2  H1  UNL     1     -13.056  14.595  68.098  1.00  0.00     0.000 HD 
HETATM    3  H2  UNL     1     -12.049  15.605  69.135  1.00  0.00     0.000 HD 
HETATM    4  C   UNL     1     -11.039  14.618  67.641  1.00  0.00    -0.304 C  
HETATM    5  O   UNL     1      -9.931  15.065  67.941  1.00  0.00    -0.220 OA 
ENDROOT
BRANCH   4   6
HETATM    6  C   UNL     1     -11.244  13.696  66.501  1.00  0.00    -0.321 C  
HETATM    7  C   UNL     1     -10.181  12.958  66.130  1.00  0.00    -0.278 C  
HETATM    8  N   UNL     1     -10.222  12.000  65.119  1.00  0.00    -0.269 NA 
HETATM    9  C   UNL     1     -12.578  13.523  65.829  1.00  0.00    -0.490 C  
HETATM   10  C   UNL     1     -11.394  11.917  64.359  1.00  0.00    -0.326 C  
HETATM   11  C   UNL     1     -12.514  12.599  64.639  1.00  0.00    -0.538 C  
BRANCH   8  12
HETATM   12  C   UNL     1      -9.181  10.970  64.907  1.00  0.00    -0.188 C  
HETATM   13  O   UNL     1      -9.767   9.666  65.117  1.00  0.00    -0.300 OA 
HETATM   14  C   UNL     1      -9.612   9.337  66.516  1.00  0.00    -0.224 C  
HETATM   15  H   UNL     1      -6.085  10.246  65.800  1.00  0.00     0.000 HD 
HETATM   16  C   UNL     1      -8.432  10.149  67.044  1.00  0.00    -0.129 C  
HETATM   17  H   UNL     1      -6.670   9.787  67.865  1.00  0.00     0.000 HD 
HETATM   18  C   UNL     1      -7.957  10.953  65.837  1.00  0.00    -0.105 C  
HETATM   19  O   UNL     1      -7.404   9.281  67.536  1.00  0.00    -0.086 OA 
HETATM   20  O   UNL     1      -6.841  10.258  65.225  1.00  0.00    -0.131 OA 
BRANCH  14  21
HETATM   21  C   UNL     1     -10.910   9.633  67.283  1.00  0.00    -0.142 C  
BRANCH  21  22
HETATM   22  O   UNL     1     -10.702  10.622  68.283  1.00  0.00    -0.189 OA 
BRANCH  22  23
HETATM   23  P   UNL     1     -10.643  10.156  69.809  1.00  0.00    -0.267 P  
HETATM   24  O   UNL     1      -9.293   9.911  70.395  1.00  0.00    -0.193 OA 
HETATM   25  O   UNL     1     -11.309  11.414  70.558  1.00  0.00    -0.090 OA 
BRANCH  23  26
HETATM   26  O   UNL     1     -11.733   9.029  70.006  1.00  0.00    -0.017 OA 
BRANCH  26  27
HETATM   27  P   UNL     1     -12.398   8.640  71.387  1.00  0.00    -0.258 P  
HETATM   28  O   UNL     1     -12.919   7.143  71.121  1.00  0.00    -0.366 OA 
HETATM   29  O   UNL     1     -13.526   9.480  71.883  1.00  0.00    -0.393 OA 
BRANCH  27  30
HETATM   30  O   UNL     1     -11.210   8.423  72.444  1.00  0.00    -0.353 OA 
BRANCH  30  31
HETATM   31  C   UNL     1     -11.277   7.381  73.412  1.00  0.00     0.000 C  
BRANCH  31  32
HETATM   32  C   UNL     1     -10.171   6.342  73.262  1.00  0.00    -0.209 C  
HETATM   33  O   UNL     1     -10.411   5.478  72.134  1.00  0.00    -0.199 OA 
HETATM   34  C   UNL     1      -9.139   4.841  71.910  1.00  0.00    -0.135 C  
HETATM   35  H   UNL     1      -7.267   7.634  74.054  1.00  0.00     0.000 HD 
HETATM   36  C   UNL     1      -8.090   5.945  72.121  1.00  0.00    -0.107 C  
HETATM   37  C   UNL     1      -8.807   6.972  73.001  1.00  0.00    -0.126 C  
HETATM   38  H   UNL     1      -6.242   6.168  72.879  1.00  0.00     0.000 HD 
HETATM   39  O   UNL     1      -6.890   5.486  72.748  1.00  0.00    -0.073 OA 
HETATM   40  O   UNL     1      -8.117   7.241  74.216  1.00  0.00    -0.135 OA 
BRANCH  34  41
HETATM   41  N   UNL     1      -9.090   4.249  70.588  1.00  0.00    -0.104 NA 
HETATM   42  C   UNL     1      -8.507   3.072  70.212  1.00  0.00    -0.056 A  
HETATM   43  N   UNL     1      -8.693   2.818  68.932  1.00  0.00    -0.076 NA 
HETATM   44  C   UNL     1      -9.407   3.899  68.456  1.00  0.00    -0.163 A  
HETATM   45  C   UNL     1      -9.920   4.219  67.188  1.00  0.00    -0.104 A  
HETATM   46  N   UNL     1      -9.815   3.378  66.090  1.00  0.00    -0.411 NA 
HETATM   47  N   UNL     1     -10.547   5.409  67.027  1.00  0.00    -0.255 NA 
HETATM   48  H1  UNL     1     -10.188   3.611  65.169  1.00  0.00     0.000 HD 
HETATM   49  C   UNL     1     -10.691   6.211  68.104  1.00  0.00    -0.294 A  
HETATM   50  H2  UNL     1     -10.212   2.477  66.359  1.00  0.00     0.000 HD 
HETATM   51  N   UNL     1     -10.290   5.991  69.378  1.00  0.00    -0.211 NA 
HETATM   52  C   UNL     1      -9.640   4.816  69.468  1.00  0.00    -0.179 A  
ENDBRANCH  34  41
ENDBRANCH  31  32
ENDBRANCH  30  31
ENDBRANCH  27  30
ENDBRANCH  26  27
ENDBRANCH  23  26
ENDBRANCH  22  23
ENDBRANCH  21  22
ENDBRANCH  14  21
ENDBRANCH   8  12
ENDBRANCH   4   6
TORSDOF 11
ENDMDL
MODEL      136
REMARK 921   NORMALIZED FREE ENERGY PREDICTED BY IDOCK:   -5.82 KCAL/MOL
REMARK 922        TOTAL FREE ENERGY PREDICTED BY IDOCK:  -11.77 KCAL/MOL
REMARK 923 INTER-LIGAND FREE ENERGY PREDICTED BY IDOCK:   -9.84 KCAL/MOL
REMARK 924 INTRA-LIGAND FREE ENERGY PREDICTED BY IDOCK:   -1.92 KCAL/MOL
REMARK 927      BINDING AFFINITY PREDICTED BY RF-SCORE:    0.00 PKD
ROOT
HETATM    1  N   UNL     1      -8.327   2.655  70.361  1.00  0.00    -0.044 N  
HETATM    2  H1  UNL     1      -8.517   3.371  71.062  1.00  0.00     0.000 HD 
HETATM    3  H2  UNL     1      -7.775   1.835  70.614  1.00  0.00     0.000 HD 
HETATM    4  C   UNL     1      -8.797   2.780  69.100  1.00  0.00    -0.097 C  
HETATM    5  O   UNL     1      -8.568   1.917  68.254  1.00  0.00    -0.062 OA 
ENDROOT
BRANCH   4   6
HETATM    6  C   UNL     1      -9.579   4.002  68.800  1.00  0.00    -0.201 C  
HETATM    7  C   UNL     1     -10.067   4.675  69.858  1.00  0.00    -0.187 C  
HETATM    8  N   UNL     1     -10.767   5.874  69.754  1.00  0.00    -0.309 NA 
HETATM    9  C   UNL     1      -9.763   4.522  67.400  1.00  0.00    -0.218 C  
HETATM   10  C   UNL     1     -11.104   6.313  68.468  1.00  0.00    -0.308 C  
HETATM   11  C   UNL     1     -10.670   5.725  67.343  1.00  0.00    -0.332 C  
BRANCH   8  12
HETATM   12  C   UNL     1     -11.034   6.783  70.891  1.00  0.00    -0.260 C  
HETATM   13  O   UNL     1     -10.472   8.080  70.590  1.00  0.00    -0.205 OA 
HETATM   14  C   UNL     1      -9.113   8.092  71.080  1.00  0.00    -0.152 C  
HETATM   15  H   UNL     1     -10.772   6.904  74.180  1.00  0.00     0.000 HD 
HETATM   16  C   UNL     1      -9.021   7.044  72.185  1.00  0.00    -0.130 C  
HETATM   17  H   UNL     1      -8.581   7.000  74.113  1.00  0.00     0.000 HD 
HETATM   18  C   UNL     1     -10.425   6.452  72.262  1.00  0.00    -0.197 C  
HETATM   19  O   UNL     1      -8.638   7.653  73.425  1.00  0.00    -0.148 OA 
HETATM   20  O   UNL     1     -11.149   7.108  73.332  1.00  0.00    -0.289 OA 
BRANCH  14  21
HETATM   21  C   UNL     1      -8.129   7.814  69.933  1.00  0.00    -0.120 C  
BRANCH  21  22
HETATM   22  O   UNL     1      -8.561   8.428  68.724  1.00  0.00    -0.133 OA 
BRANCH  22  23
HETATM   23  P   UNL     1      -7.581   8.393  67.464  1.00  0.00    -0.099 P  
HETATM   24  O   UNL     1      -6.521   7.343  67.454  1.00  0.00    -0.055 OA 
HETATM   25  O   UNL     1      -8.610   8.099  66.263  1.00  0.00    -0.128 OA 
BRANCH  23  26
HETATM   26  O   UNL     1      -7.132   9.879  67.168  1.00  0.00    -0.084 OA 
BRANCH  26  27
HETATM   27  P   UNL     1      -6.536  10.878  68.240  1.00  0.00    -0.059 P  
HETATM   28  O   UNL     1      -5.488  11.739  67.378  1.00  0.00    -0.069 OA 
HETATM   29  O   UNL     1      -5.847  10.300  69.429  1.00  0.00    -0.037 OA 
BRANCH  27  30
HETATM   30  O   UNL     1      -7.680  11.948  68.584  1.00  0.00    -0.129 OA 
BRANCH  30  31
HETATM   31  C   UNL     1      -9.053  11.645  68.362  1.00  0.00    -0.180 C  
BRANCH  31  32
HETATM   32  C   UNL     1      -9.916  12.879  68.119  1.00  0.00    -0.234 C  
HETATM   33  O   UNL     1      -9.115  14.074  68.045  1.00  0.00    -0.175 OA 
HETATM   34  C   UNL     1      -9.996  15.045  67.449  1.00  0.00    -0.226 C  
HETATM   35  H   UNL     1     -12.408  12.161  66.119  1.00  0.00     0.000 HD 
HETATM   36  C   UNL     1     -10.759  14.280  66.354  1.00  0.00    -0.297 C  
HETATM   37  C   UNL     1     -10.667  12.817  66.793  1.00  0.00    -0.260 C  
HETATM   38  H   UNL     1     -12.595  14.212  65.539  1.00  0.00     0.000 HD 
HETATM   39  O   UNL     1     -12.124  14.685  66.215  1.00  0.00    -0.319 OA 
HETATM   40  O   UNL     1     -11.940  12.200  66.944  1.00  0.00    -0.603 OA 
BRANCH  34  41
HETATM   41  N   UNL     1      -9.244  16.174  66.940  1.00  0.00    -0.216 NA 
HETATM   42  C   UNL     1      -8.019  16.166  66.333  1.00  0.00    -0.217 A  
HETATM   43  N   UNL     1      -7.651  17.374  65.954  1.00  0.00    -0.483 NA 
HETATM   44  C   UNL     1      -8.677  18.202  66.363  1.00  0.00    -0.231 A  
HETATM   45  C   UNL     1      -8.889  19.586  66.246  1.00  0.00    -0.361 A  
HETATM   46  N   UNL     1      -8.016  20.436  65.583  1.00  0.00    -0.499 NA 
HETATM   47  N   UNL     1     -10.000  20.118  66.809  1.00  0.00    -0.449 NA 
HETATM   48  H1  UNL     1      -8.171  21.441  65.498  1.00  0.00     0.000 HD 
HETATM   49  C   UNL     1     -10.874  19.287  67.416  1.00  0.00    -0.446 A  
HETATM   50  H2  UNL     1      -7.891  20.067  64.639  1.00  0.00     0.000 HD 
HETATM   51  N   UNL     1     -10.807  17.941  67.546  1.00  0.00    -0.313 NA 
HETATM   52  C   UNL     1      -9.666  17.475  67.005  1.00  0.00    -0.284 A  
ENDBRANCH  34  41
ENDBRANCH  31  32
ENDBRANCH  30  31
ENDBRANCH  27  30
ENDBRANCH  26  27
ENDBRANCH  23  26
ENDBRANCH  22  23
ENDBRANCH  21  22
ENDBRANCH  14  21
ENDBRANCH   8  12
ENDBRANCH   4   6
TORSDOF 11
ENDMDL
MODEL      137
REMARK 921   NORMALIZED FREE ENERGY PREDICTED BY IDOCK:   -5.81 KCAL/MOL
REMARK 922        TOTAL FREE ENERGY PREDICTED BY IDOCK:  -11.75 KCAL/MOL
REMARK 923 INTER-LIGAND FREE ENERGY PREDICTED BY IDOCK:   -9.45 KCAL/MOL
REMARK 924 INTRA-LIGAND FREE ENERGY PREDICTED BY IDOCK:   -2.30 KCAL/MOL
REMARK 927      BINDING AFFINITY PREDICTED BY RF-SCORE:    0.00 PKD
ROOT
HETATM    1  N   UNL     1      -9.765  12.108  63.158  1.00  0.00    -0.363 N  
HETATM    2  H1  UNL     1      -8.830  12.506  63.071  1.00  0.00     0.000 HD 
HETATM    3  H2  UNL     1     -10.538  12.514  62.630  1.00  0.00     0.000 HD 
HETATM    4  C   UNL     1      -9.992  11.048  63.965  1.00  0.00    -0.335 C  
HETATM    5  O   UNL     1     -11.121  10.567  64.070  1.00  0.00     0.518 OA 
ENDROOT
BRANCH   4   6
HETATM    6  C   UNL     1      -8.828  10.519  64.711  1.00  0.00    -0.211 C  
HETATM    7  C   UNL     1      -8.919  10.539  66.054  1.00  0.00    -0.167 C  
HETATM    8  N   UNL     1      -7.941  10.022  66.901  1.00  0.00    -0.112 NA 
HETATM    9  C   UNL     1      -7.633   9.916  64.026  1.00  0.00    -0.138 C  
HETATM   10  C   UNL     1      -6.742   9.599  66.318  1.00  0.00    -0.076 C  
HETATM   11  C   UNL     1      -6.541   9.531  64.993  1.00  0.00    -0.088 C  
BRANCH   8  12
HETATM   12  C   UNL     1      -8.150   9.747  68.340  1.00  0.00    -0.104 C  
HETATM   13  O   UNL     1      -8.548  10.972  68.994  1.00  0.00    -0.146 OA 
HETATM   14  C   UNL     1      -7.347  11.642  69.439  1.00  0.00     0.097 C  
HETATM   15  H   UNL     1      -6.655   8.304  70.907  1.00  0.00     0.000 HD 
HETATM   16  C   UNL     1      -6.264  10.577  69.586  1.00  0.00    -0.063 C  
HETATM   17  H   UNL     1      -5.115   9.862  71.029  1.00  0.00     0.000 HD 
HETATM   18  C   UNL     1      -6.954   9.277  69.185  1.00  0.00    -0.058 C  
HETATM   19  O   UNL     1      -5.790  10.525  70.938  1.00  0.00    -0.170 OA 
HETATM   20  O   UNL     1      -7.394   8.594  70.385  1.00  0.00    -0.052 OA 
BRANCH  14  21
HETATM   21  C   UNL     1      -6.948  12.742  68.442  1.00  0.00    -0.095 C  
BRANCH  21  22
HETATM   22  O   UNL     1      -7.407  14.017  68.874  1.00  0.00    -0.121 OA 
BRANCH  22  23
HETATM   23  P   UNL     1      -6.381  14.972  69.640  1.00  0.00    -0.164 P  
HETATM   24  O   UNL     1      -5.861  14.497  70.956  1.00  0.00    -0.171 OA 
HETATM   25  O   UNL     1      -5.160  15.038  68.596  1.00  0.00    -0.087 OA 
BRANCH  23  26
HETATM   26  O   UNL     1      -6.960  16.441  69.578  1.00  0.00    -0.225 OA 
BRANCH  26  27
HETATM   27  P   UNL     1      -8.045  16.946  68.545  1.00  0.00    -0.255 P  
HETATM   28  O   UNL     1      -7.733  16.061  67.240  1.00  0.00    -0.148 OA 
HETATM   29  O   UNL     1      -8.045  18.391  68.179  1.00  0.00    -0.272 OA 
BRANCH  27  30
HETATM   30  O   UNL     1      -9.465  16.379  69.030  1.00  0.00    -0.248 OA 
BRANCH  30  31
HETATM   31  C   UNL     1     -10.439  15.946  68.086  1.00  0.00    -0.270 C  
BRANCH  31  32
HETATM   32  C   UNL     1     -10.579  14.429  68.009  1.00  0.00    -0.241 C  
HETATM   33  O   UNL     1     -10.828  13.858  69.308  1.00  0.00    -0.221 OA 
HETATM   34  C   UNL     1     -11.304  12.530  69.016  1.00  0.00    -0.290 C  
HETATM   35  H   UNL     1     -12.112  13.558  65.249  1.00  0.00     0.000 HD 
HETATM   36  C   UNL     1     -12.229  12.691  67.799  1.00  0.00     0.122 C  
HETATM   37  C   UNL     1     -11.759  13.994  67.147  1.00  0.00    -0.393 C  
HETATM   38  H   UNL     1     -12.725  11.702  66.120  1.00  0.00     0.000 HD 
HETATM   39  O   UNL     1     -12.154  11.603  66.873  1.00  0.00    -0.512 OA 
HETATM   40  O   UNL     1     -11.377  13.829  65.786  1.00  0.00    -0.300 OA 
BRANCH  34  41
HETATM   41  N   UNL     1     -11.970  11.961  70.171  1.00  0.00    -0.346 NA 
HETATM   42  C   UNL     1     -12.757  12.598  71.088  1.00  0.00    -0.254 A  
HETATM   43  N   UNL     1     -13.240  11.762  71.986  1.00  0.00    -0.464 NA 
HETATM   44  C   UNL     1     -12.714  10.533  71.645  1.00  0.00    -0.445 A  
HETATM   45  C   UNL     1     -12.855   9.249  72.197  1.00  0.00    -0.408 A  
HETATM   46  N   UNL     1     -13.680   8.972  73.277  1.00  0.00    -1.077 NA 
HETATM   47  N   UNL     1     -12.151   8.230  71.650  1.00  0.00    -0.292 NA 
HETATM   48  H1  UNL     1     -13.783   8.039  73.678  1.00  0.00     0.000 HD 
HETATM   49  C   UNL     1     -11.381   8.487  70.571  1.00  0.00    -0.217 A  
HETATM   50  H2  UNL     1     -14.615   9.304  73.039  1.00  0.00     0.000 HD 
HETATM   51  N   UNL     1     -11.206   9.661  69.921  1.00  0.00    -0.233 NA 
HETATM   52  C   UNL     1     -11.896  10.642  70.532  1.00  0.00    -0.357 A  
ENDBRANCH  34  41
ENDBRANCH  31  32
ENDBRANCH  30  31
ENDBRANCH  27  30
ENDBRANCH  26  27
ENDBRANCH  23  26
ENDBRANCH  22  23
ENDBRANCH  21  22
ENDBRANCH  14  21
ENDBRANCH   8  12
ENDBRANCH   4   6
TORSDOF 11
ENDMDL
MODEL      138
REMARK 921   NORMALIZED FREE ENERGY PREDICTED BY IDOCK:   -5.78 KCAL/MOL
REMARK 922        TOTAL FREE ENERGY PREDICTED BY IDOCK:  -11.70 KCAL/MOL
REMARK 923 INTER-LIGAND FREE ENERGY PREDICTED BY IDOCK:   -9.85 KCAL/MOL
REMARK 924 INTRA-LIGAND FREE ENERGY PREDICTED BY IDOCK:   -1.85 KCAL/MOL
REMARK 927      BINDING AFFINITY PREDICTED BY RF-SCORE:    0.00 PKD
ROOT
HETATM    1  N   UNL     1      -6.672  14.238  70.613  1.00  0.00    -0.378 N  
HETATM    2  H1  UNL     1      -6.128  15.026  70.965  1.00  0.00     0.000 HD 
HETATM    3  H2  UNL     1      -6.847  13.436  71.219  1.00  0.00     0.000 HD 
HETATM    4  C   UNL     1      -7.164  14.245  69.355  1.00  0.00    -0.051 C  
HETATM    5  O   UNL     1      -7.821  13.294  68.931  1.00  0.00    -0.037 OA 
ENDROOT
BRANCH   4   6
HETATM    6  C   UNL     1      -6.860  15.434  68.528  1.00  0.00    -0.113 C  
HETATM    7  C   UNL     1      -7.724  16.462  68.617  1.00  0.00    -0.204 C  
HETATM    8  N   UNL     1      -7.551  17.676  67.956  1.00  0.00    -0.219 NA 
HETATM    9  C   UNL     1      -5.617  15.539  67.686  1.00  0.00    -0.101 C  
HETATM   10  C   UNL     1      -6.499  17.763  67.037  1.00  0.00    -0.159 C  
HETATM   11  C   UNL     1      -5.576  16.805  66.868  1.00  0.00    -0.152 C  
BRANCH   8  12
HETATM   12  C   UNL     1      -8.299  18.911  68.277  1.00  0.00    -0.330 C  
HETATM   13  O   UNL     1      -9.490  18.555  69.013  1.00  0.00    -0.271 OA 
HETATM   14  C   UNL     1     -10.547  18.331  68.054  1.00  0.00    -0.325 C  
HETATM   15  H   UNL     1      -9.436  21.657  66.835  1.00  0.00     0.000 HD 
HETATM   16  C   UNL     1     -10.183  19.105  66.790  1.00  0.00    -0.400 C  
HETATM   17  H   UNL     1     -10.964  20.562  65.702  1.00  0.00     0.000 HD 
HETATM   18  C   UNL     1      -8.848  19.765  67.123  1.00  0.00    -0.323 C  
HETATM   19  O   UNL     1     -11.190  20.079  66.489  1.00  0.00    -0.020 OA 
HETATM   20  O   UNL     1      -9.096  21.128  67.549  1.00  0.00    -0.126 OA 
BRANCH  14  21
HETATM   21  C   UNL     1     -10.715  16.827  67.784  1.00  0.00    -0.321 C  
BRANCH  21  22
HETATM   22  O   UNL     1     -10.788  16.560  66.389  1.00  0.00    -0.196 OA 
BRANCH  22  23
HETATM   23  P   UNL     1     -10.594  15.054  65.895  1.00  0.00    -0.372 P  
HETATM   24  O   UNL     1      -9.202  14.609  65.598  1.00  0.00    -0.065 OA 
HETATM   25  O   UNL     1     -11.143  14.226  67.159  1.00  0.00    -0.295 OA 
BRANCH  23  26
HETATM   26  O   UNL     1     -11.696  14.766  64.799  1.00  0.00    -0.395 OA 
BRANCH  26  27
HETATM   27  P   UNL     1     -12.064  13.336  64.235  1.00  0.00    -0.409 P  
HETATM   28  O   UNL     1     -12.569  13.661  62.745  1.00  0.00    -0.456 OA 
HETATM   29  O   UNL     1     -13.105  12.546  64.953  1.00  0.00    -0.833 OA 
BRANCH  27  30
HETATM   30  O   UNL     1     -10.686  12.553  63.983  1.00  0.00    -0.352 OA 
BRANCH  30  31
HETATM   31  C   UNL     1     -10.573  11.163  64.268  1.00  0.00    -0.357 C  
BRANCH  31  32
HETATM   32  C   UNL     1     -10.113  10.870  65.692  1.00  0.00    -0.261 C  
HETATM   33  O   UNL     1     -10.734   9.677  66.209  1.00  0.00    -0.040 OA 
HETATM   34  C   UNL     1      -9.932   9.340  67.357  1.00  0.00    -0.199 C  
HETATM   35  H   UNL     1      -6.956  11.657  66.062  1.00  0.00     0.000 HD 
HETATM   36  C   UNL     1      -8.480   9.610  66.929  1.00  0.00    -0.120 C  
HETATM   37  C   UNL     1      -8.613  10.612  65.780  1.00  0.00    -0.181 C  
HETATM   38  H   UNL     1      -6.764  10.307  67.712  1.00  0.00     0.000 HD 
HETATM   39  O   UNL     1      -7.661  10.140  67.976  1.00  0.00    -0.088 OA 
HETATM   40  O   UNL     1      -7.890  11.817  66.007  1.00  0.00     0.186 OA 
BRANCH  34  41
HETATM   41  N   UNL     1     -10.165   7.967  67.758  1.00  0.00    -0.208 NA 
HETATM   42  C   UNL     1     -10.730   6.960  67.027  1.00  0.00    -0.362 A  
HETATM   43  N   UNL     1     -10.745   5.821  67.691  1.00  0.00    -0.250 NA 
HETATM   44  C   UNL     1     -10.189   6.117  68.919  1.00  0.00    -0.188 A  
HETATM   45  C   UNL     1      -9.916   5.339  70.055  1.00  0.00    -0.245 A  
HETATM   46  N   UNL     1     -10.152   3.973  70.116  1.00  0.00    -0.002 NA 
HETATM   47  N   UNL     1      -9.399   5.950  71.147  1.00  0.00    -0.153 NA 
HETATM   48  H1  UNL     1      -9.954   3.407  70.942  1.00  0.00     0.000 HD 
HETATM   49  C   UNL     1      -9.127   7.271  71.077  1.00  0.00    -0.153 A  
HETATM   50  H2  UNL     1      -9.662   3.545  69.330  1.00  0.00     0.000 HD 
HETATM   51  N   UNL     1      -9.294   8.111  70.029  1.00  0.00    -0.159 NA 
HETATM   52  C   UNL     1      -9.846   7.458  68.990  1.00  0.00    -0.168 A  
ENDBRANCH  34  41
ENDBRANCH  31  32
ENDBRANCH  30  31
ENDBRANCH  27  30
ENDBRANCH  26  27
ENDBRANCH  23  26
ENDBRANCH  22  23
ENDBRANCH  21  22
ENDBRANCH  14  21
ENDBRANCH   8  12
ENDBRANCH   4   6
TORSDOF 11
ENDMDL
MODEL      139
REMARK 921   NORMALIZED FREE ENERGY PREDICTED BY IDOCK:   -5.77 KCAL/MOL
REMARK 922        TOTAL FREE ENERGY PREDICTED BY IDOCK:  -11.67 KCAL/MOL
REMARK 923 INTER-LIGAND FREE ENERGY PREDICTED BY IDOCK:   -8.29 KCAL/MOL
REMARK 924 INTRA-LIGAND FREE ENERGY PREDICTED BY IDOCK:   -3.39 KCAL/MOL
REMARK 927      BINDING AFFINITY PREDICTED BY RF-SCORE:    0.00 PKD
ROOT
HETATM    1  N   UNL     1     -10.973  11.501  69.501  1.00  0.00    -0.424 N  
HETATM    2  H1  UNL     1     -10.208  10.949  69.890  1.00  0.00     0.000 HD 
HETATM    3  H2  UNL     1     -11.460  12.175  70.093  1.00  0.00     0.000 HD 
HETATM    4  C   UNL     1     -11.348  11.352  68.212  1.00  0.00    -0.286 C  
HETATM    5  O   UNL     1     -12.270  12.018  67.743  1.00  0.00    -0.474 OA 
ENDROOT
BRANCH   4   6
HETATM    6  C   UNL     1     -10.606  10.347  67.416  1.00  0.00    -0.321 C  
HETATM    7  C   UNL     1     -10.897   9.056  67.661  1.00  0.00    -0.063 C  
HETATM    8  N   UNL     1     -10.337   7.992  66.958  1.00  0.00    -0.321 NA 
HETATM    9  C   UNL     1      -9.633  10.729  66.334  1.00  0.00    -0.226 C  
HETATM   10  C   UNL     1      -9.309   8.287  66.055  1.00  0.00    -0.149 C  
HETATM   11  C   UNL     1      -8.939   9.534  65.729  1.00  0.00    -0.219 C  
BRANCH   8  12
HETATM   12  C   UNL     1     -10.862   6.609  66.987  1.00  0.00    -0.397 C  
HETATM   13  O   UNL     1     -11.315   6.312  68.327  1.00  0.00    -0.289 OA 
HETATM   14  C   UNL     1     -10.197   5.754  69.053  1.00  0.00    -0.217 C  
HETATM   15  H   UNL     1     -10.037   3.544  66.074  1.00  0.00     0.000 HD 
HETATM   16  C   UNL     1      -9.236   5.166  68.023  1.00  0.00    -0.116 C  
HETATM   17  H   UNL     1      -8.466   3.394  67.599  1.00  0.00     0.000 HD 
HETATM   18  C   UNL     1      -9.904   5.447  66.680  1.00  0.00    -0.174 C  
HETATM   19  O   UNL     1      -9.064   3.760  68.241  1.00  0.00    -0.119 OA 
HETATM   20  O   UNL     1     -10.630   4.263  66.264  1.00  0.00    -0.032 OA 
BRANCH  14  21
HETATM   21  C   UNL     1      -9.529   6.834  69.919  1.00  0.00    -0.156 C  
BRANCH  21  22
HETATM   22  O   UNL     1      -9.964   6.750  71.271  1.00  0.00    -0.178 OA 
BRANCH  22  23
HETATM   23  P   UNL     1     -10.219   8.108  72.070  1.00  0.00    -0.304 P  
HETATM   24  O   UNL     1     -10.501   9.331  71.263  1.00  0.00    -0.299 OA 
HETATM   25  O   UNL     1     -11.532   7.739  72.924  1.00  0.00    -0.378 OA 
BRANCH  23  26
HETATM   26  O   UNL     1      -9.109   8.219  73.189  1.00  0.00    -0.259 OA 
BRANCH  26  27
HETATM   27  P   UNL     1      -7.568   8.453  72.919  1.00  0.00     0.062 P  
HETATM   28  O   UNL     1      -7.075   7.012  72.406  1.00  0.00    -0.065 OA 
HETATM   29  O   UNL     1      -6.717   8.894  74.060  1.00  0.00    -0.334 OA 
BRANCH  27  30
HETATM   30  O   UNL     1      -7.447   9.361  71.603  1.00  0.00    -0.323 OA 
BRANCH  30  31
HETATM   31  C   UNL     1      -6.616   8.966  70.517  1.00  0.00    -0.049 C  
BRANCH  31  32
HETATM   32  C   UNL     1      -6.856   9.771  69.244  1.00  0.00    -0.055 C  
HETATM   33  O   UNL     1      -7.132  11.154  69.541  1.00  0.00    -0.126 OA 
HETATM   34  C   UNL     1      -6.952  11.821  68.277  1.00  0.00    -0.075 C  
HETATM   35  H   UNL     1      -4.896   8.722  66.838  1.00  0.00     0.000 HD 
HETATM   36  C   UNL     1      -5.717  11.160  67.643  1.00  0.00    -0.044 C  
HETATM   37  C   UNL     1      -5.636   9.794  68.328  1.00  0.00    -0.039 C  
HETATM   38  H   UNL     1      -5.047  10.604  65.831  1.00  0.00     0.000 HD 
HETATM   39  O   UNL     1      -5.810  11.013  66.223  1.00  0.00    -0.122 OA 
HETATM   40  O   UNL     1      -5.656   8.708  67.408  1.00  0.00    -0.038 OA 
BRANCH  34  41
HETATM   41  N   UNL     1      -6.801  13.249  68.471  1.00  0.00    -0.091 NA 
HETATM   42  C   UNL     1      -5.644  13.964  68.604  1.00  0.00    -0.086 A  
HETATM   43  N   UNL     1      -5.875  15.257  68.721  1.00  0.00    -0.087 NA 
HETATM   44  C   UNL     1      -7.250  15.375  68.690  1.00  0.00    -0.121 A  
HETATM   45  C   UNL     1      -8.114  16.481  68.756  1.00  0.00    -0.244 A  
HETATM   46  N   UNL     1      -7.667  17.792  68.829  1.00  0.00    -0.274 NA 
HETATM   47  N   UNL     1      -9.449  16.258  68.750  1.00  0.00    -0.227 NA 
HETATM   48  H1  UNL     1      -8.294  18.595  68.877  1.00  0.00     0.000 HD 
HETATM   49  C   UNL     1      -9.889  14.986  68.633  1.00  0.00    -0.222 A  
HETATM   50  H2  UNL     1      -7.039  17.944  68.038  1.00  0.00     0.000 HD 
HETATM   51  N   UNL     1      -9.161  13.851  68.510  1.00  0.00    -0.185 NA 
HETATM   52  C   UNL     1      -7.846  14.131  68.563  1.00  0.00    -0.140 A  
ENDBRANCH  34  41
ENDBRANCH  31  32
ENDBRANCH  30  31
ENDBRANCH  27  30
ENDBRANCH  26  27
ENDBRANCH  23  26
ENDBRANCH  22  23
ENDBRANCH  21  22
ENDBRANCH  14  21
ENDBRANCH   8  12
ENDBRANCH   4   6
TORSDOF 11
ENDMDL
MODEL      140
REMARK 921   NORMALIZED FREE ENERGY PREDICTED BY IDOCK:   -5.75 KCAL/MOL
REMARK 922        TOTAL FREE ENERGY PREDICTED BY IDOCK:  -11.65 KCAL/MOL
REMARK 923 INTER-LIGAND FREE ENERGY PREDICTED BY IDOCK:  -10.19 KCAL/MOL
REMARK 924 INTRA-LIGAND FREE ENERGY PREDICTED BY IDOCK:   -1.46 KCAL/MOL
REMARK 927      BINDING AFFINITY PREDICTED BY RF-SCORE:    0.00 PKD
ROOT
HETATM    1  N   UNL     1     -11.886  16.220  71.775  1.00  0.00    -0.632 N  
HETATM    2  H1  UNL     1     -11.360  16.824  71.145  1.00  0.00     0.000 HD 
HETATM    3  H2  UNL     1     -12.043  16.511  72.740  1.00  0.00     0.000 HD 
HETATM    4  C   UNL     1     -12.379  15.036  71.347  1.00  0.00    -0.332 C  
HETATM    5  O   UNL     1     -13.013  14.306  72.109  1.00  0.00    -0.337 OA 
ENDROOT
BRANCH   4   6
HETATM    6  C   UNL     1     -12.102  14.671  69.940  1.00  0.00    -0.385 C  
HETATM    7  C   UNL     1     -11.826  15.686  69.101  1.00  0.00    -0.362 C  
HETATM    8  N   UNL     1     -11.483  15.511  67.762  1.00  0.00    -0.292 NA 
HETATM    9  C   UNL     1     -12.050  13.243  69.469  1.00  0.00    -0.315 C  
HETATM   10  C   UNL     1     -11.580  14.216  67.238  1.00  0.00    -0.373 C  
HETATM   11  C   UNL     1     -11.841  13.130  67.979  1.00  0.00    -0.398 C  
BRANCH   8  12
HETATM   12  C   UNL     1     -10.877  16.561  66.915  1.00  0.00    -0.083 C  
HETATM   13  O   UNL     1      -9.499  16.211  66.656  1.00  0.00    -0.222 OA 
HETATM   14  C   UNL     1      -8.695  16.791  67.707  1.00  0.00    -0.210 C  
HETATM   15  H   UNL     1     -10.573  19.845  66.742  1.00  0.00     0.000 HD 
HETATM   16  C   UNL     1      -9.479  17.970  68.278  1.00  0.00    -0.302 C  
HETATM   17  H   UNL     1      -9.229  19.922  68.476  1.00  0.00     0.000 HD 
HETATM   18  C   UNL     1     -10.773  17.991  67.469  1.00  0.00    -0.336 C  
HETATM   19  O   UNL     1      -8.741  19.188  68.121  1.00  0.00    -0.301 OA 
HETATM   20  O   UNL     1     -10.638  18.961  66.400  1.00  0.00    -0.410 OA 
BRANCH  14  21
HETATM   21  C   UNL     1      -8.373  15.737  68.778  1.00  0.00    -0.195 C  
BRANCH  21  22
HETATM   22  O   UNL     1      -8.088  14.475  68.186  1.00  0.00    -0.122 OA 
BRANCH  22  23
HETATM   23  P   UNL     1      -6.680  13.791  68.499  1.00  0.00    -0.121 P  
HETATM   24  O   UNL     1      -5.638  13.858  67.433  1.00  0.00    -0.351 OA 
HETATM   25  O   UNL     1      -6.179  14.648  69.765  1.00  0.00    -0.118 OA 
BRANCH  23  26
HETATM   26  O   UNL     1      -6.969  12.376  69.141  1.00  0.00    -0.097 OA 
BRANCH  26  27
HETATM   27  P   UNL     1      -7.597  11.143  68.376  1.00  0.00    -0.125 P  
HETATM   28  O   UNL     1      -6.687   9.916  68.874  1.00  0.00    -0.052 OA 
HETATM   29  O   UNL     1      -7.615  11.179  66.886  1.00  0.00    -0.130 OA 
BRANCH  27  30
HETATM   30  O   UNL     1      -9.017  10.833  69.056  1.00  0.00    -0.169 OA 
BRANCH  30  31
HETATM   31  C   UNL     1     -10.108  10.353  68.279  1.00  0.00    -0.153 C  
BRANCH  31  32
HETATM   32  C   UNL     1     -10.874   9.214  68.944  1.00  0.00    -0.070 C  
HETATM   33  O   UNL     1     -10.509   7.938  68.384  1.00  0.00    -0.205 OA 
HETATM   34  C   UNL     1     -11.003   6.985  69.344  1.00  0.00    -0.201 C  
HETATM   35  H   UNL     1     -11.278   9.817  72.138  1.00  0.00     0.000 HD 
HETATM   36  C   UNL     1     -10.696   7.600  70.719  1.00  0.00    -0.226 C  
HETATM   37  C   UNL     1     -10.572   9.099  70.435  1.00  0.00    -0.230 C  
HETATM   38  H   UNL     1     -11.518   7.731  72.549  1.00  0.00     0.000 HD 
HETATM   39  O   UNL     1     -11.707   7.350  71.700  1.00  0.00    -0.260 OA 
HETATM   40  O   UNL     1     -11.466   9.889  71.210  1.00  0.00    -0.365 OA 
BRANCH  34  41
HETATM   41  N   UNL     1     -10.383   5.691  69.144  1.00  0.00    -0.234 NA 
HETATM   42  C   UNL     1     -10.058   4.757  70.088  1.00  0.00    -0.240 A  
HETATM   43  N   UNL     1      -9.546   3.669  69.547  1.00  0.00    -0.179 NA 
HETATM   44  C   UNL     1      -9.516   3.927  68.191  1.00  0.00    -0.161 A  
HETATM   45  C   UNL     1      -9.099   3.169  67.085  1.00  0.00    -0.178 A  
HETATM   46  N   UNL     1      -8.635   1.865  67.188  1.00  0.00    -0.095 NA 
HETATM   47  N   UNL     1      -9.150   3.737  65.857  1.00  0.00    -0.143 NA 
HETATM   48  H1  UNL     1      -8.332   1.315  66.384  1.00  0.00     0.000 HD 
HETATM   49  C   UNL     1      -9.643   4.990  65.748  1.00  0.00    -0.148 A  
HETATM   50  H2  UNL     1      -9.352   1.325  67.673  1.00  0.00     0.000 HD 
HETATM   51  N   UNL     1     -10.121   5.795  66.724  1.00  0.00    -0.177 NA 
HETATM   52  C   UNL     1     -10.008   5.194  67.924  1.00  0.00    -0.152 A  
ENDBRANCH  34  41
ENDBRANCH  31  32
ENDBRANCH  30  31
ENDBRANCH  27  30
ENDBRANCH  26  27
ENDBRANCH  23  26
ENDBRANCH  22  23
ENDBRANCH  21  22
ENDBRANCH  14  21
ENDBRANCH   8  12
ENDBRANCH   4   6
TORSDOF 11
ENDMDL
MODEL      141
REMARK 921   NORMALIZED FREE ENERGY PREDICTED BY IDOCK:   -5.71 KCAL/MOL
REMARK 922        TOTAL FREE ENERGY PREDICTED BY IDOCK:  -11.58 KCAL/MOL
REMARK 923 INTER-LIGAND FREE ENERGY PREDICTED BY IDOCK:  -10.17 KCAL/MOL
REMARK 924 INTRA-LIGAND FREE ENERGY PREDICTED BY IDOCK:   -1.41 KCAL/MOL
REMARK 927      BINDING AFFINITY PREDICTED BY RF-SCORE:    0.00 PKD
ROOT
HETATM    1  N   UNL     1      -6.896  19.514  64.968  1.00  0.00    -0.138 N  
HETATM    2  H1  UNL     1      -7.739  19.600  64.399  1.00  0.00     0.000 HD 
HETATM    3  H2  UNL     1      -5.984  19.701  64.551  1.00  0.00     0.000 HD 
HETATM    4  C   UNL     1      -6.975  19.156  66.269  1.00  0.00    -0.228 C  
HETATM    5  O   UNL     1      -5.959  19.053  66.956  1.00  0.00    -0.169 OA 
ENDROOT
BRANCH   4   6
HETATM    6  C   UNL     1      -8.329  18.887  66.804  1.00  0.00    -0.289 C  
HETATM    7  C   UNL     1      -8.459  17.799  67.586  1.00  0.00    -0.229 C  
HETATM    8  N   UNL     1      -9.646  17.440  68.218  1.00  0.00    -0.280 NA 
HETATM    9  C   UNL     1      -9.494  19.809  66.562  1.00  0.00    -0.500 C  
HETATM   10  C   UNL     1     -10.795  18.172  67.895  1.00  0.00    -0.202 C  
HETATM   11  C   UNL     1     -10.784  19.275  67.132  1.00  0.00    -0.584 C  
BRANCH   8  12
HETATM   12  C   UNL     1      -9.738  16.451  69.316  1.00  0.00    -0.221 C  
HETATM   13  O   UNL     1      -9.310  15.164  68.817  1.00  0.00    -0.184 OA 
HETATM   14  C   UNL     1     -10.475  14.487  68.296  1.00  0.00    -0.242 C  
HETATM   15  H   UNL     1     -11.843  15.389  71.627  1.00  0.00     0.000 HD 
HETATM   16  C   UNL     1     -11.695  15.087  68.990  1.00  0.00    -0.325 C  
HETATM   17  H   UNL     1     -13.167  14.452  70.149  1.00  0.00     0.000 HD 
HETATM   18  C   UNL     1     -11.116  16.146  69.923  1.00  0.00    -0.357 C  
HETATM   19  O   UNL     1     -12.408  14.078  69.717  1.00  0.00    -0.336 OA 
HETATM   20  O   UNL     1     -10.991  15.578  71.251  1.00  0.00    -0.332 OA 
BRANCH  14  21
HETATM   21  C   UNL     1     -10.544  14.638  66.769  1.00  0.00    -0.288 C  
BRANCH  21  22
HETATM   22  O   UNL     1      -9.988  13.504  66.114  1.00  0.00    -0.292 OA 
BRANCH  22  23
HETATM   23  P   UNL     1     -10.926  12.235  65.872  1.00  0.00    -0.329 P  
HETATM   24  O   UNL     1     -11.940  11.925  66.922  1.00  0.00    -0.614 OA 
HETATM   25  O   UNL     1     -11.693  12.653  64.521  1.00  0.00    -0.325 OA 
BRANCH  23  26
HETATM   26  O   UNL     1     -10.005  11.047  65.382  1.00  0.00    -0.232 OA 
BRANCH  26  27
HETATM   27  P   UNL     1      -9.683   9.744  66.218  1.00  0.00    -0.267 P  
HETATM   28  O   UNL     1      -8.788   8.882  65.199  1.00  0.00    -0.195 OA 
HETATM   29  O   UNL     1     -10.828   8.919  66.697  1.00  0.00    -0.072 OA 
BRANCH  27  30
HETATM   30  O   UNL     1      -8.631  10.155  67.357  1.00  0.00    -0.122 OA 
BRANCH  30  31
HETATM   31  C   UNL     1      -9.075  10.672  68.607  1.00  0.00    -0.170 C  
BRANCH  31  32
HETATM   32  C   UNL     1      -8.890   9.699  69.767  1.00  0.00    -0.210 C  
HETATM   33  O   UNL     1      -9.585   8.460  69.528  1.00  0.00    -0.168 OA 
HETATM   34  C   UNL     1      -9.012   7.552  70.488  1.00  0.00    -0.152 C  
HETATM   35  H   UNL     1      -5.869   9.951  71.006  1.00  0.00     0.000 HD 
HETATM   36  C   UNL     1      -7.508   7.872  70.500  1.00  0.00    -0.073 C  
HETATM   37  C   UNL     1      -7.431   9.308  69.976  1.00  0.00    -0.094 C  
HETATM   38  H   UNL     1      -5.980   7.968  71.803  1.00  0.00     0.000 HD 
HETATM   39  O   UNL     1      -6.909   7.770  71.795  1.00  0.00    -0.055 OA 
HETATM   40  O   UNL     1      -6.778  10.195  70.876  1.00  0.00    -0.328 OA 
BRANCH  34  41
HETATM   41  N   UNL     1      -9.302   6.178  70.130  1.00  0.00    -0.154 NA 
HETATM   42  C   UNL     1      -9.986   5.244  70.856  1.00  0.00    -0.208 A  
HETATM   43  N   UNL     1     -10.103   4.105  70.204  1.00  0.00    -0.070 NA 
HETATM   44  C   UNL     1      -9.439   4.308  69.011  1.00  0.00    -0.172 A  
HETATM   45  C   UNL     1      -9.219   3.490  67.891  1.00  0.00    -0.183 A  
HETATM   46  N   UNL     1      -9.733   2.207  67.773  1.00  0.00    -0.361 NA 
HETATM   47  N   UNL     1      -8.466   3.976  66.875  1.00  0.00    -0.100 NA 
HETATM   48  H1  UNL     1      -9.572   1.613  66.959  1.00  0.00     0.000 HD 
HETATM   49  C   UNL     1      -8.002   5.240  66.967  1.00  0.00    -0.101 A  
HETATM   50  H2  UNL     1     -10.742   2.270  67.908  1.00  0.00     0.000 HD 
HETATM   51  N   UNL     1      -8.190   6.137  67.962  1.00  0.00    -0.113 NA 
HETATM   52  C   UNL     1      -8.909   5.586  68.958  1.00  0.00    -0.105 A  
ENDBRANCH  34  41
ENDBRANCH  31  32
ENDBRANCH  30  31
ENDBRANCH  27  30
ENDBRANCH  26  27
ENDBRANCH  23  26
ENDBRANCH  22  23
ENDBRANCH  21  22
ENDBRANCH  14  21
ENDBRANCH   8  12
ENDBRANCH   4   6
TORSDOF 11
ENDMDL
MODEL      142
REMARK 921   NORMALIZED FREE ENERGY PREDICTED BY IDOCK:   -5.71 KCAL/MOL
REMARK 922        TOTAL FREE ENERGY PREDICTED BY IDOCK:  -11.58 KCAL/MOL
REMARK 923 INTER-LIGAND FREE ENERGY PREDICTED BY IDOCK:   -9.78 KCAL/MOL
REMARK 924 INTRA-LIGAND FREE ENERGY PREDICTED BY IDOCK:   -1.80 KCAL/MOL
REMARK 927      BINDING AFFINITY PREDICTED BY RF-SCORE:    0.00 PKD
ROOT
HETATM    1  N   UNL     1     -10.847  19.547  66.984  1.00  0.00    -0.477 N  
HETATM    2  H1  UNL     1     -11.270  19.142  66.150  1.00  0.00     0.000 HD 
HETATM    3  H2  UNL     1     -11.108  20.488  67.277  1.00  0.00     0.000 HD 
HETATM    4  C   UNL     1      -9.943  18.849  67.708  1.00  0.00    -0.355 C  
HETATM    5  O   UNL     1      -9.431  19.338  68.715  1.00  0.00    -0.373 OA 
ENDROOT
BRANCH   4   6
HETATM    6  C   UNL     1      -9.601  17.495  67.218  1.00  0.00    -0.273 C  
HETATM    7  C   UNL     1     -10.593  16.804  66.626  1.00  0.00    -0.198 C  
HETATM    8  N   UNL     1     -10.423  15.545  66.056  1.00  0.00    -0.307 NA 
HETATM    9  C   UNL     1      -8.208  16.933  67.298  1.00  0.00    -0.205 C  
HETATM   10  C   UNL     1      -9.190  14.913  66.248  1.00  0.00    -0.265 C  
HETATM   11  C   UNL     1      -8.130  15.505  66.818  1.00  0.00    -0.247 C  
BRANCH   8  12
HETATM   12  C   UNL     1     -11.394  14.911  65.137  1.00  0.00    -0.379 C  
HETATM   13  O   UNL     1     -12.583  14.566  65.884  1.00  0.00    -0.300 OA 
HETATM   14  C   UNL     1     -12.404  13.226  66.396  1.00  0.00    -0.282 C  
HETATM   15  H   UNL     1     -11.569  12.541  62.844  1.00  0.00     0.000 HD 
HETATM   16  C   UNL     1     -11.386  12.530  65.496  1.00  0.00    -0.331 C  
HETATM   17  H   UNL     1     -11.331  10.938  64.324  1.00  0.00     0.000 HD 
HETATM   18  C   UNL     1     -11.015  13.585  64.459  1.00  0.00    -0.394 C  
HETATM   19  O   UNL     1     -11.965  11.371  64.884  1.00  0.00     0.086 OA 
HETATM   20  O   UNL     1     -11.804  13.361  63.264  1.00  0.00    -0.392 OA 
BRANCH  14  21
HETATM   21  C   UNL     1     -11.947  13.271  67.863  1.00  0.00    -0.309 C  
BRANCH  21  22
HETATM   22  O   UNL     1     -12.241  12.050  68.530  1.00  0.00    -0.340 OA 
BRANCH  22  23
HETATM   23  P   UNL     1     -11.023  11.124  68.986  1.00  0.00    -0.269 P  
HETATM   24  O   UNL     1     -11.131  10.463  70.320  1.00  0.00    -0.288 OA 
HETATM   25  O   UNL     1     -11.034   9.989  67.846  1.00  0.00    -0.274 OA 
BRANCH  23  26
HETATM   26  O   UNL     1      -9.686  11.905  68.671  1.00  0.00    -0.184 OA 
BRANCH  26  27
HETATM   27  P   UNL     1      -8.411  11.280  67.975  1.00  0.00    -0.151 P  
HETATM   28  O   UNL     1      -7.205  12.121  68.622  1.00  0.00    -0.100 OA 
HETATM   29  O   UNL     1      -8.322  11.345  66.488  1.00  0.00    -0.168 OA 
BRANCH  27  30
HETATM   30  O   UNL     1      -8.198   9.816  68.595  1.00  0.00    -0.102 OA 
BRANCH  30  31
HETATM   31  C   UNL     1      -7.221   8.931  68.058  1.00  0.00    -0.083 C  
BRANCH  31  32
HETATM   32  C   UNL     1      -7.731   7.506  67.868  1.00  0.00    -0.116 C  
HETATM   33  O   UNL     1      -7.881   6.829  69.131  1.00  0.00    -0.107 OA 
HETATM   34  C   UNL     1      -8.704   5.689  68.817  1.00  0.00    -0.106 C  
HETATM   35  H   UNL     1      -9.882   7.377  65.402  1.00  0.00     0.000 HD 
HETATM   36  C   UNL     1      -9.760   6.213  67.830  1.00  0.00    -0.116 C  
HETATM   37  C   UNL     1      -9.112   7.460  67.223  1.00  0.00    -0.124 C  
HETATM   38  H   UNL     1     -10.762   5.597  66.200  1.00  0.00     0.000 HD 
HETATM   39  O   UNL     1     -10.109   5.273  66.810  1.00  0.00    -0.176 OA 
HETATM   40  O   UNL     1      -9.023   7.405  65.804  1.00  0.00    -0.127 OA 
BRANCH  34  41
HETATM   41  N   UNL     1      -9.277   5.125  70.023  1.00  0.00    -0.129 NA 
HETATM   42  C   UNL     1      -9.259   3.822  70.434  1.00  0.00    -0.143 A  
HETATM   43  N   UNL     1      -9.839   3.670  71.609  1.00  0.00    -0.172 NA 
HETATM   44  C   UNL     1     -10.275   4.933  71.956  1.00  0.00    -0.199 A  
HETATM   45  C   UNL     1     -10.948   5.434  73.082  1.00  0.00    -0.302 A  
HETATM   46  N   UNL     1     -11.284   4.651  74.178  1.00  0.00    -0.278 NA 
HETATM   47  N   UNL     1     -11.288   6.744  73.102  1.00  0.00    -0.092 NA 
HETATM   48  H1  UNL     1     -11.772   5.015  74.996  1.00  0.00     0.000 HD 
HETATM   49  C   UNL     1     -10.923   7.519  72.057  1.00  0.00    -0.242 A  
HETATM   50  H2  UNL     1     -10.426   4.208  74.509  1.00  0.00     0.000 HD 
HETATM   51  N   UNL     1     -10.232   7.167  70.948  1.00  0.00    -0.197 NA 
HETATM   52  C   UNL     1      -9.958   5.849  70.966  1.00  0.00    -0.190 A  
ENDBRANCH  34  41
ENDBRANCH  31  32
ENDBRANCH  30  31
ENDBRANCH  27  30
ENDBRANCH  26  27
ENDBRANCH  23  26
ENDBRANCH  22  23
ENDBRANCH  21  22
ENDBRANCH  14  21
ENDBRANCH   8  12
ENDBRANCH   4   6
TORSDOF 11
ENDMDL
MODEL      143
REMARK 921   NORMALIZED FREE ENERGY PREDICTED BY IDOCK:   -5.70 KCAL/MOL
REMARK 922        TOTAL FREE ENERGY PREDICTED BY IDOCK:  -11.56 KCAL/MOL
REMARK 923 INTER-LIGAND FREE ENERGY PREDICTED BY IDOCK:   -9.84 KCAL/MOL
REMARK 924 INTRA-LIGAND FREE ENERGY PREDICTED BY IDOCK:   -1.72 KCAL/MOL
REMARK 927      BINDING AFFINITY PREDICTED BY RF-SCORE:    0.00 PKD
ROOT
HETATM    1  N   UNL     1      -8.215   1.722  70.304  1.00  0.00    -0.041 N  
HETATM    2  H1  UNL     1      -9.064   1.389  69.846  1.00  0.00     0.000 HD 
HETATM    3  H2  UNL     1      -7.576   1.052  70.731  1.00  0.00     0.000 HD 
HETATM    4  C   UNL     1      -7.927   3.042  70.349  1.00  0.00    -0.042 C  
HETATM    5  O   UNL     1      -6.902   3.443  70.902  1.00  0.00    -0.031 OA 
ENDROOT
BRANCH   4   6
HETATM    6  C   UNL     1      -8.904   3.959  69.721  1.00  0.00    -0.143 C  
HETATM    7  C   UNL     1      -9.620   4.735  70.556  1.00  0.00    -0.187 C  
HETATM    8  N   UNL     1     -10.534   5.693  70.126  1.00  0.00    -0.271 NA 
HETATM    9  C   UNL     1      -9.051   4.087  68.229  1.00  0.00    -0.183 C  
HETATM   10  C   UNL     1     -10.824   5.738  68.757  1.00  0.00    -0.215 C  
HETATM   11  C   UNL     1     -10.172   5.016  67.834  1.00  0.00    -0.147 C  
BRANCH   8  12
HETATM   12  C   UNL     1     -11.090   6.758  70.989  1.00  0.00    -0.273 C  
HETATM   13  O   UNL     1     -10.911   8.031  70.328  1.00  0.00    -0.248 OA 
HETATM   14  C   UNL     1      -9.630   8.561  70.737  1.00  0.00    -0.180 C  
HETATM   15  H   UNL     1     -10.991   7.827  74.112  1.00  0.00     0.000 HD 
HETATM   16  C   UNL     1      -9.282   7.919  72.077  1.00  0.00    -0.155 C  
HETATM   17  H   UNL     1      -8.917   8.520  73.926  1.00  0.00     0.000 HD 
HETATM   18  C   UNL     1     -10.460   6.995  72.371  1.00  0.00    -0.209 C  
HETATM   19  O   UNL     1      -9.133   8.920  73.091  1.00  0.00    -0.133 OA 
HETATM   20  O   UNL     1     -11.380   7.681  73.257  1.00  0.00    -0.313 OA 
BRANCH  14  21
HETATM   21  C   UNL     1      -8.567   8.276  69.664  1.00  0.00    -0.129 C  
BRANCH  21  22
HETATM   22  O   UNL     1      -8.621   9.240  68.619  1.00  0.00    -0.125 OA 
BRANCH  22  23
HETATM   23  P   UNL     1      -7.280   9.563  67.815  1.00  0.00    -0.082 P  
HETATM   24  O   UNL     1      -6.785  10.970  67.853  1.00  0.00    -0.062 OA 
HETATM   25  O   UNL     1      -6.217   8.621  68.570  1.00  0.00    -0.051 OA 
BRANCH  23  26
HETATM   26  O   UNL     1      -7.395   8.873  66.398  1.00  0.00    -0.086 OA 
BRANCH  26  27
HETATM   27  P   UNL     1      -8.544   9.147  65.346  1.00  0.00    -0.188 P  
HETATM   28  O   UNL     1      -9.756   8.249  65.903  1.00  0.00    -0.109 OA 
HETATM   29  O   UNL     1      -8.284   8.803  63.919  1.00  0.00    -0.159 OA 
BRANCH  27  30
HETATM   30  O   UNL     1      -9.068  10.644  65.590  1.00  0.00    -0.169 OA 
BRANCH  30  31
HETATM   31  C   UNL     1      -9.972  11.258  64.678  1.00  0.00    -0.281 C  
BRANCH  31  32
HETATM   32  C   UNL     1     -10.964  12.203  65.350  1.00  0.00    -0.302 C  
HETATM   33  O   UNL     1     -10.317  13.409  65.800  1.00  0.00    -0.282 OA 
HETATM   34  C   UNL     1     -11.409  14.316  66.043  1.00  0.00    -0.335 C  
HETATM   35  H   UNL     1     -13.868  12.078  63.841  1.00  0.00     0.000 HD 
HETATM   36  C   UNL     1     -12.396  14.079  64.888  1.00  0.00    -0.427 C  
HETATM   37  C   UNL     1     -12.063  12.667  64.401  1.00  0.00    -0.415 C  
HETATM   38  H   UNL     1     -14.380  14.026  64.565  1.00  0.00     0.000 HD 
HETATM   39  O   UNL     1     -13.770  14.173  65.278  1.00  0.00    -0.248 OA 
HETATM   40  O   UNL     1     -13.183  11.789  64.432  1.00  0.00    -0.368 OA 
BRANCH  34  41
HETATM   41  N   UNL     1     -10.932  15.682  66.117  1.00  0.00    -0.261 NA 
HETATM   42  C   UNL     1     -10.693  16.548  65.087  1.00  0.00    -0.244 A  
HETATM   43  N   UNL     1     -10.306  17.732  65.521  1.00  0.00    -0.616 NA 
HETATM   44  C   UNL     1     -10.268  17.612  66.895  1.00  0.00    -0.334 A  
HETATM   45  C   UNL     1      -9.948  18.514  67.923  1.00  0.00    -0.346 A  
HETATM   46  N   UNL     1      -9.623  19.843  67.694  1.00  0.00    -0.354 NA 
HETATM   47  N   UNL     1      -9.957  18.066  69.201  1.00  0.00    -0.261 NA 
HETATM   48  H1  UNL     1      -9.391  20.499  68.441  1.00  0.00     0.000 HD 
HETATM   49  C   UNL     1     -10.317  16.785  69.431  1.00  0.00    -0.276 A  
HETATM   50  H2  UNL     1     -10.385  20.255  67.155  1.00  0.00     0.000 HD 
HETATM   51  N   UNL     1     -10.694  15.842  68.536  1.00  0.00    -0.260 NA 
HETATM   52  C   UNL     1     -10.628  16.332  67.284  1.00  0.00    -0.298 A  
ENDBRANCH  34  41
ENDBRANCH  31  32
ENDBRANCH  30  31
ENDBRANCH  27  30
ENDBRANCH  26  27
ENDBRANCH  23  26
ENDBRANCH  22  23
ENDBRANCH  21  22
ENDBRANCH  14  21
ENDBRANCH   8  12
ENDBRANCH   4   6
TORSDOF 11
ENDMDL
MODEL      144
REMARK 921   NORMALIZED FREE ENERGY PREDICTED BY IDOCK:   -5.69 KCAL/MOL
REMARK 922        TOTAL FREE ENERGY PREDICTED BY IDOCK:  -11.55 KCAL/MOL
REMARK 923 INTER-LIGAND FREE ENERGY PREDICTED BY IDOCK:  -10.08 KCAL/MOL
REMARK 924 INTRA-LIGAND FREE ENERGY PREDICTED BY IDOCK:   -1.47 KCAL/MOL
REMARK 927      BINDING AFFINITY PREDICTED BY RF-SCORE:    0.00 PKD
ROOT
HETATM    1  N   UNL     1      -6.875   2.561  73.388  1.00  0.00    -0.022 N  
HETATM    2  H1  UNL     1      -6.061   3.175  73.435  1.00  0.00     0.000 HD 
HETATM    3  H2  UNL     1      -6.751   1.552  73.478  1.00  0.00     0.000 HD 
HETATM    4  C   UNL     1      -8.114   3.069  73.208  1.00  0.00    -0.072 C  
HETATM    5  O   UNL     1      -9.096   2.327  73.151  1.00  0.00    -0.072 OA 
ENDROOT
BRANCH   4   6
HETATM    6  C   UNL     1      -8.218   4.539  73.072  1.00  0.00    -0.099 C  
HETATM    7  C   UNL     1      -9.451   5.036  72.864  1.00  0.00    -0.137 C  
HETATM    8  N   UNL     1      -9.731   6.397  72.776  1.00  0.00    -0.158 NA 
HETATM    9  C   UNL     1      -7.033   5.452  73.232  1.00  0.00    -0.081 C  
HETATM   10  C   UNL     1      -8.643   7.277  72.757  1.00  0.00    -0.118 C  
HETATM   11  C   UNL     1      -7.373   6.896  72.959  1.00  0.00    -0.074 C  
BRANCH   8  12
HETATM   12  C   UNL     1     -11.090   6.974  72.865  1.00  0.00    -0.278 C  
HETATM   13  O   UNL     1     -11.939   6.311  71.901  1.00  0.00    -0.328 OA 
HETATM   14  C   UNL     1     -11.856   7.051  70.662  1.00  0.00    -0.330 C  
HETATM   15  H   UNL     1     -12.627   9.897  72.919  1.00  0.00     0.000 HD 
HETATM   16  C   UNL     1     -11.435   8.476  71.014  1.00  0.00    -0.273 C  
HETATM   17  H   UNL     1     -12.169  10.301  70.810  1.00  0.00     0.000 HD 
HETATM   18  C   UNL     1     -11.286   8.462  72.532  1.00  0.00    -0.346 C  
HETATM   19  O   UNL     1     -12.432   9.414  70.592  1.00  0.00    -0.146 OA 
HETATM   20  O   UNL     1     -12.505   8.977  73.124  1.00  0.00     0.065 OA 
BRANCH  14  21
HETATM   21  C   UNL     1     -10.868   6.374  69.700  1.00  0.00    -0.320 C  
BRANCH  21  22
HETATM   22  O   UNL     1     -10.404   7.288  68.713  1.00  0.00    -0.191 OA 
BRANCH  22  23
HETATM   23  P   UNL     1      -9.319   6.778  67.658  1.00  0.00    -0.120 P  
HETATM   24  O   UNL     1      -9.253   5.309  67.406  1.00  0.00    -0.112 OA 
HETATM   25  O   UNL     1      -9.807   7.511  66.313  1.00  0.00    -0.124 OA 
BRANCH  23  26
HETATM   26  O   UNL     1      -7.961   7.521  67.975  1.00  0.00    -0.119 OA 
BRANCH  26  27
HETATM   27  P   UNL     1      -7.604   8.993  67.521  1.00  0.00    -0.088 P  
HETATM   28  O   UNL     1      -7.318   8.820  65.950  1.00  0.00    -0.083 OA 
HETATM   29  O   UNL     1      -6.441   9.663  68.170  1.00  0.00    -0.056 OA 
BRANCH  27  30
HETATM   30  O   UNL     1      -8.965   9.842  67.545  1.00  0.00    -0.134 OA 
BRANCH  30  31
HETATM   31  C   UNL     1      -8.939  11.264  67.477  1.00  0.00    -0.140 C  
BRANCH  31  32
HETATM   32  C   UNL     1     -10.326  11.893  67.386  1.00  0.00    -0.207 C  
HETATM   33  O   UNL     1     -10.727  12.465  68.646  1.00  0.00    -0.227 OA 
HETATM   34  C   UNL     1     -11.832  13.321  68.301  1.00  0.00    -0.354 C  
HETATM   35  H   UNL     1     -10.754  13.304  64.462  1.00  0.00     0.000 HD 
HETATM   36  C   UNL     1     -11.425  13.994  66.980  1.00  0.00    -0.351 C  
HETATM   37  C   UNL     1     -10.381  13.045  66.388  1.00  0.00    -0.281 C  
HETATM   38  H   UNL     1     -12.263  14.598  65.255  1.00  0.00     0.000 HD 
HETATM   39  O   UNL     1     -12.514  14.183  66.071  1.00  0.00    -0.467 OA 
HETATM   40  O   UNL     1     -10.720  12.587  65.084  1.00  0.00    -0.277 OA 
BRANCH  34  41
HETATM   41  N   UNL     1     -12.099  14.266  69.367  1.00  0.00    -0.326 NA 
HETATM   42  C   UNL     1     -11.905  15.619  69.361  1.00  0.00    -0.375 A  
HETATM   43  N   UNL     1     -12.300  16.176  70.489  1.00  0.00    -0.113 NA 
HETATM   44  C   UNL     1     -12.742  15.126  71.268  1.00  0.00    -0.369 A  
HETATM   45  C   UNL     1     -13.291  15.062  72.559  1.00  0.00    -0.424 A  
HETATM   46  N   UNL     1     -13.546  16.183  73.335  1.00  0.00    -0.809 NA 
HETATM   47  N   UNL     1     -13.585  13.845  73.076  1.00  0.00    -0.521 NA 
HETATM   48  H1  UNL     1     -13.945  16.136  74.272  1.00  0.00     0.000 HD 
HETATM   49  C   UNL     1     -13.380  12.753  72.307  1.00  0.00    -0.458 A  
HETATM   50  H2  UNL     1     -14.139  16.805  72.783  1.00  0.00     0.000 HD 
HETATM   51  N   UNL     1     -12.910  12.692  71.039  1.00  0.00    -0.230 NA 
HETATM   52  C   UNL     1     -12.599  13.924  70.595  1.00  0.00    -0.335 A  
ENDBRANCH  34  41
ENDBRANCH  31  32
ENDBRANCH  30  31
ENDBRANCH  27  30
ENDBRANCH  26  27
ENDBRANCH  23  26
ENDBRANCH  22  23
ENDBRANCH  21  22
ENDBRANCH  14  21
ENDBRANCH   8  12
ENDBRANCH   4   6
TORSDOF 11
ENDMDL
MODEL      145
REMARK 921   NORMALIZED FREE ENERGY PREDICTED BY IDOCK:   -5.66 KCAL/MOL
REMARK 922        TOTAL FREE ENERGY PREDICTED BY IDOCK:  -11.51 KCAL/MOL
REMARK 923 INTER-LIGAND FREE ENERGY PREDICTED BY IDOCK:  -10.50 KCAL/MOL
REMARK 924 INTRA-LIGAND FREE ENERGY PREDICTED BY IDOCK:   -1.01 KCAL/MOL
REMARK 927      BINDING AFFINITY PREDICTED BY RF-SCORE:    0.00 PKD
ROOT
HETATM    1  N   UNL     1     -12.549  10.476  71.576  1.00  0.00    -0.410 N  
HETATM    2  H1  UNL     1     -11.542  10.627  71.511  1.00  0.00     0.000 HD 
HETATM    3  H2  UNL     1     -13.187  11.256  71.423  1.00  0.00     0.000 HD 
HETATM    4  C   UNL     1     -13.047   9.252  71.862  1.00  0.00    -0.415 C  
HETATM    5  O   UNL     1     -14.262   9.070  71.941  1.00  0.00    -0.360 OA 
ENDROOT
BRANCH   4   6
HETATM    6  C   UNL     1     -12.062   8.169  72.086  1.00  0.00    -0.408 C  
HETATM    7  C   UNL     1     -10.786   8.550  72.275  1.00  0.00    -0.341 C  
HETATM    8  N   UNL     1      -9.750   7.664  72.559  1.00  0.00    -0.170 NA 
HETATM    9  C   UNL     1     -12.459   6.721  72.177  1.00  0.00    -0.198 C  
HETATM   10  C   UNL     1     -10.037   6.296  72.494  1.00  0.00    -0.177 C  
HETATM   11  C   UNL     1     -11.271   5.802  72.318  1.00  0.00    -0.333 C  
BRANCH   8  12
HETATM   12  C   UNL     1      -8.424   8.073  73.076  1.00  0.00    -0.193 C  
HETATM   13  O   UNL     1      -7.785   8.920  72.095  1.00  0.00    -0.341 OA 
HETATM   14  C   UNL     1      -7.023   8.068  71.210  1.00  0.00    -0.056 C  
HETATM   15  H   UNL     1      -5.704   6.784  74.434  1.00  0.00     0.000 HD 
HETATM   16  C   UNL     1      -6.714   6.784  71.975  1.00  0.00    -0.058 C  
HETATM   17  H   UNL     1      -5.106   5.797  72.568  1.00  0.00     0.000 HD 
HETATM   18  C   UNL     1      -7.366   6.989  73.339  1.00  0.00    -0.072 C  
HETATM   19  O   UNL     1      -5.298   6.596  72.092  1.00  0.00    -0.031 OA 
HETATM   20  O   UNL     1      -6.359   7.454  74.271  1.00  0.00    -0.076 OA 
BRANCH  14  21
HETATM   21  C   UNL     1      -7.810   7.800  69.918  1.00  0.00    -0.105 C  
BRANCH  21  22
HETATM   22  O   UNL     1      -7.309   8.581  68.840  1.00  0.00    -0.082 OA 
BRANCH  22  23
HETATM   23  P   UNL     1      -6.753   7.824  67.549  1.00  0.00    -0.071 P  
HETATM   24  O   UNL     1      -5.416   7.173  67.665  1.00  0.00    -0.018 OA 
HETATM   25  O   UNL     1      -7.867   6.683  67.339  1.00  0.00    -0.109 OA 
BRANCH  23  26
HETATM   26  O   UNL     1      -6.995   8.765  66.303  1.00  0.00    -0.079 OA 
BRANCH  26  27
HETATM   27  P   UNL     1      -8.406   9.076  65.660  1.00  0.00    -0.149 P  
HETATM   28  O   UNL     1      -9.119   7.636  65.657  1.00  0.00    -0.066 OA 
HETATM   29  O   UNL     1      -8.438   9.652  64.285  1.00  0.00    -0.154 OA 
BRANCH  27  30
HETATM   30  O   UNL     1      -9.256   9.893  66.748  1.00  0.00    -0.144 OA 
BRANCH  30  31
HETATM   31  C   UNL     1     -10.305  10.769  66.347  1.00  0.00    -0.248 C  
BRANCH  31  32
HETATM   32  C   UNL     1     -10.440  12.001  67.235  1.00  0.00    -0.218 C  
HETATM   33  O   UNL     1      -9.969  13.186  66.564  1.00  0.00    -0.255 OA 
HETATM   34  C   UNL     1     -10.507  14.266  67.352  1.00  0.00    -0.264 C  
HETATM   35  H   UNL     1     -13.168  11.821  69.039  1.00  0.00     0.000 HD 
HETATM   36  C   UNL     1     -11.931  13.824  67.725  1.00  0.00    -0.356 C  
HETATM   37  C   UNL     1     -11.889  12.299  67.606  1.00  0.00    -0.264 C  
HETATM   38  H   UNL     1     -13.211  13.948  69.271  1.00  0.00     0.000 HD 
HETATM   39  O   UNL     1     -12.330  14.221  69.040  1.00  0.00    -0.274 OA 
HETATM   40  O   UNL     1     -12.266  11.636  68.808  1.00  0.00    -0.416 OA 
BRANCH  34  41
HETATM   41  N   UNL     1     -10.468  15.509  66.608  1.00  0.00    -0.294 NA 
HETATM   42  C   UNL     1     -10.904  15.742  65.334  1.00  0.00    -0.364 A  
HETATM   43  N   UNL     1     -10.755  17.006  64.989  1.00  0.00    -0.693 NA 
HETATM   44  C   UNL     1     -10.171  17.608  66.084  1.00  0.00    -0.343 A  
HETATM   45  C   UNL     1      -9.775  18.929  66.349  1.00  0.00    -0.363 A  
HETATM   46  N   UNL     1      -9.972  19.975  65.458  1.00  0.00    -0.434 NA 
HETATM   47  N   UNL     1      -9.169  19.198  67.530  1.00  0.00    -0.293 NA 
HETATM   48  H1  UNL     1      -9.684  20.935  65.651  1.00  0.00     0.000 HD 
HETATM   49  C   UNL     1      -9.016  18.191  68.417  1.00  0.00    -0.293 A  
HETATM   50  H2  UNL     1     -10.966  19.996  65.230  1.00  0.00     0.000 HD 
HETATM   51  N   UNL     1      -9.400  16.899  68.300  1.00  0.00    -0.240 NA 
HETATM   52  C   UNL     1      -9.958  16.684  67.094  1.00  0.00    -0.268 A  
ENDBRANCH  34  41
ENDBRANCH  31  32
ENDBRANCH  30  31
ENDBRANCH  27  30
ENDBRANCH  26  27
ENDBRANCH  23  26
ENDBRANCH  22  23
ENDBRANCH  21  22
ENDBRANCH  14  21
ENDBRANCH   8  12
ENDBRANCH   4   6
TORSDOF 11
ENDMDL
MODEL      146
REMARK 921   NORMALIZED FREE ENERGY PREDICTED BY IDOCK:   -5.64 KCAL/MOL
REMARK 922        TOTAL FREE ENERGY PREDICTED BY IDOCK:  -11.47 KCAL/MOL
REMARK 923 INTER-LIGAND FREE ENERGY PREDICTED BY IDOCK:   -9.98 KCAL/MOL
REMARK 924 INTRA-LIGAND FREE ENERGY PREDICTED BY IDOCK:   -1.49 KCAL/MOL
REMARK 927      BINDING AFFINITY PREDICTED BY RF-SCORE:    0.00 PKD
ROOT
HETATM    1  N   UNL     1      -7.878  10.794  69.487  1.00  0.00    -0.344 N  
HETATM    2  H1  UNL     1      -8.565  10.438  68.823  1.00  0.00     0.000 HD 
HETATM    3  H2  UNL     1      -7.625  11.782  69.470  1.00  0.00     0.000 HD 
HETATM    4  C   UNL     1      -7.299   9.972  70.390  1.00  0.00    -0.080 C  
HETATM    5  O   UNL     1      -6.470  10.402  71.192  1.00  0.00    -0.336 OA 
ENDROOT
BRANCH   4   6
HETATM    6  C   UNL     1      -7.703   8.548  70.348  1.00  0.00    -0.080 C  
HETATM    7  C   UNL     1      -7.464   7.892  69.198  1.00  0.00    -0.093 C  
HETATM    8  N   UNL     1      -7.725   6.536  69.015  1.00  0.00    -0.107 NA 
HETATM    9  C   UNL     1      -8.281   7.836  71.540  1.00  0.00    -0.113 C  
HETATM   10  C   UNL     1      -8.410   5.869  70.036  1.00  0.00    -0.122 C  
HETATM   11  C   UNL     1      -8.697   6.420  71.225  1.00  0.00    -0.135 C  
BRANCH   8  12
HETATM   12  C   UNL     1      -7.189   5.731  67.895  1.00  0.00    -0.072 C  
HETATM   13  O   UNL     1      -7.205   6.536  66.695  1.00  0.00    -0.070 OA 
HETATM   14  C   UNL     1      -8.481   6.332  66.048  1.00  0.00    -0.143 C  
HETATM   15  H   UNL     1      -7.543   2.767  66.482  1.00  0.00     0.000 HD 
HETATM   16  C   UNL     1      -9.015   4.981  66.515  1.00  0.00    -0.116 C  
HETATM   17  H   UNL     1      -9.531   3.258  65.692  1.00  0.00     0.000 HD 
HETATM   18  C   UNL     1      -7.944   4.461  67.470  1.00  0.00    -0.096 C  
HETATM   19  O   UNL     1      -9.199   4.099  65.401  1.00  0.00    -0.133 OA 
HETATM   20  O   UNL     1      -7.077   3.552  66.746  1.00  0.00    -0.057 OA 
BRANCH  14  21
HETATM   21  C   UNL     1      -9.441   7.484  66.386  1.00  0.00    -0.147 C  
BRANCH  21  22
HETATM   22  O   UNL     1      -9.285   8.566  65.477  1.00  0.00    -0.152 OA 
BRANCH  22  23
HETATM   23  P   UNL     1      -9.580  10.045  66.002  1.00  0.00    -0.259 P  
HETATM   24  O   UNL     1      -9.623  10.248  67.479  1.00  0.00    -0.154 OA 
HETATM   25  O   UNL     1      -8.326  10.857  65.405  1.00  0.00    -0.144 OA 
BRANCH  23  26
HETATM   26  O   UNL     1     -10.786  10.619  65.157  1.00  0.00    -0.110 OA 
BRANCH  26  27
HETATM   27  P   UNL     1     -10.645  11.572  63.903  1.00  0.00    -0.455 P  
HETATM   28  O   UNL     1     -12.095  11.474  63.217  1.00  0.00    -0.319 OA 
HETATM   29  O   UNL     1      -9.594  11.252  62.896  1.00  0.00    -0.348 OA 
BRANCH  27  30
HETATM   30  O   UNL     1     -10.610  13.079  64.451  1.00  0.00    -0.367 OA 
BRANCH  30  31
HETATM   31  C   UNL     1     -11.735  13.638  65.121  1.00  0.00    -0.331 C  
BRANCH  31  32
HETATM   32  C   UNL     1     -11.456  15.005  65.739  1.00  0.00    -0.236 C  
HETATM   33  O   UNL     1     -10.543  14.904  66.848  1.00  0.00    -0.289 OA 
HETATM   34  C   UNL     1     -10.100  16.258  67.056  1.00  0.00    -0.270 C  
HETATM   35  H   UNL     1     -11.342  17.311  63.416  1.00  0.00     0.000 HD 
HETATM   36  C   UNL     1      -9.904  16.840  65.647  1.00  0.00    -0.079 C  
HETATM   37  C   UNL     1     -10.791  15.965  64.758  1.00  0.00    -0.324 C  
HETATM   38  H   UNL     1     -10.154  18.578  64.666  1.00  0.00     0.000 HD 
HETATM   39  O   UNL     1     -10.275  18.218  65.537  1.00  0.00    -0.530 OA 
HETATM   40  O   UNL     1     -11.756  16.713  64.027  1.00  0.00    -1.143 OA 
BRANCH  34  41
HETATM   41  N   UNL     1      -8.895  16.284  67.860  1.00  0.00    -0.182 NA 
HETATM   42  C   UNL     1      -8.116  15.229  68.244  1.00  0.00    -0.137 A  
HETATM   43  N   UNL     1      -7.064  15.622  68.936  1.00  0.00    -0.128 NA 
HETATM   44  C   UNL     1      -7.189  16.994  69.024  1.00  0.00    -0.229 A  
HETATM   45  C   UNL     1      -6.392  17.988  69.616  1.00  0.00    -0.178 A  
HETATM   46  N   UNL     1      -5.185  17.720  70.246  1.00  0.00    -0.226 NA 
HETATM   47  N   UNL     1      -6.823  19.270  69.573  1.00  0.00    -0.277 NA 
HETATM   48  H1  UNL     1      -4.607  18.443  70.676  1.00  0.00     0.000 HD 
HETATM   49  C   UNL     1      -7.975  19.541  68.922  1.00  0.00    -0.294 A  
HETATM   50  H2  UNL     1      -4.599  17.219  69.578  1.00  0.00     0.000 HD 
HETATM   51  N   UNL     1      -8.796  18.684  68.271  1.00  0.00    -0.317 NA 
HETATM   52  C   UNL     1      -8.339  17.422  68.383  1.00  0.00    -0.263 A  
ENDBRANCH  34  41
ENDBRANCH  31  32
ENDBRANCH  30  31
ENDBRANCH  27  30
ENDBRANCH  26  27
ENDBRANCH  23  26
ENDBRANCH  22  23
ENDBRANCH  21  22
ENDBRANCH  14  21
ENDBRANCH   8  12
ENDBRANCH   4   6
TORSDOF 11
ENDMDL
MODEL      147
REMARK 921   NORMALIZED FREE ENERGY PREDICTED BY IDOCK:   -5.61 KCAL/MOL
REMARK 922        TOTAL FREE ENERGY PREDICTED BY IDOCK:  -11.42 KCAL/MOL
REMARK 923 INTER-LIGAND FREE ENERGY PREDICTED BY IDOCK:   -9.54 KCAL/MOL
REMARK 924 INTRA-LIGAND FREE ENERGY PREDICTED BY IDOCK:   -1.88 KCAL/MOL
REMARK 927      BINDING AFFINITY PREDICTED BY RF-SCORE:    0.00 PKD
ROOT
HETATM    1  N   UNL     1     -11.310   4.630  65.391  1.00  0.00    -0.963 N  
HETATM    2  H1  UNL     1     -10.863   4.171  64.597  1.00  0.00     0.000 HD 
HETATM    3  H2  UNL     1     -12.328   4.655  65.451  1.00  0.00     0.000 HD 
HETATM    4  C   UNL     1     -10.569   5.203  66.365  1.00  0.00    -0.276 C  
HETATM    5  O   UNL     1     -11.109   5.756  67.323  1.00  0.00    -0.189 OA 
ENDROOT
BRANCH   4   6
HETATM    6  C   UNL     1      -9.099   5.141  66.206  1.00  0.00    -0.136 C  
HETATM    7  C   UNL     1      -8.528   6.145  65.516  1.00  0.00    -0.149 C  
HETATM    8  N   UNL     1      -7.154   6.270  65.329  1.00  0.00    -0.062 NA 
HETATM    9  C   UNL     1      -8.261   4.063  66.839  1.00  0.00    -0.100 C  
HETATM   10  C   UNL     1      -6.347   5.210  65.759  1.00  0.00    -0.035 C  
HETATM   11  C   UNL     1      -6.805   4.162  66.459  1.00  0.00    -0.055 C  
BRANCH   8  12
HETATM   12  C   UNL     1      -6.487   7.505  64.858  1.00  0.00    -0.037 C  
HETATM   13  O   UNL     1      -5.554   7.943  65.871  1.00  0.00    -0.035 OA 
HETATM   14  C   UNL     1      -6.262   8.832  66.764  1.00  0.00    -0.059 C  
HETATM   15  H   UNL     1      -7.200  10.457  63.561  1.00  0.00     0.000 HD 
HETATM   16  C   UNL     1      -7.446   9.402  65.989  1.00  0.00    -0.096 C  
HETATM   17  H   UNL     1      -8.093  11.185  65.429  1.00  0.00     0.000 HD 
HETATM   18  C   UNL     1      -7.341   8.758  64.610  1.00  0.00    -0.098 C  
HETATM   19  O   UNL     1      -7.356  10.830  65.911  1.00  0.00    -0.146 OA 
HETATM   20  O   UNL     1      -6.672   9.681  63.715  1.00  0.00    -0.102 OA 
BRANCH  14  21
HETATM   21  C   UNL     1      -6.704   8.078  68.028  1.00  0.00    -0.065 C  
BRANCH  21  22
HETATM   22  O   UNL     1      -7.961   8.552  68.496  1.00  0.00    -0.113 OA 
BRANCH  22  23
HETATM   23  P   UNL     1      -8.000   9.366  69.869  1.00  0.00    -0.168 P  
HETATM   24  O   UNL     1      -7.030   8.962  70.928  1.00  0.00    -0.062 OA 
HETATM   25  O   UNL     1      -7.636  10.852  69.375  1.00  0.00    -0.142 OA 
BRANCH  23  26
HETATM   26  O   UNL     1      -9.516   9.512  70.293  1.00  0.00    -0.228 OA 
BRANCH  26  27
HETATM   27  P   UNL     1     -10.676  10.031  69.351  1.00  0.00    -0.257 P  
HETATM   28  O   UNL     1     -11.996   9.731  70.216  1.00  0.00    -0.204 OA 
HETATM   29  O   UNL     1     -10.813   9.411  68.002  1.00  0.00    -0.220 OA 
BRANCH  27  30
HETATM   30  O   UNL     1     -10.607  11.633  69.347  1.00  0.00    -0.112 OA 
BRANCH  30  31
HETATM   31  C   UNL     1     -11.770  12.414  69.600  1.00  0.00    -0.307 C  
BRANCH  31  32
HETATM   32  C   UNL     1     -11.990  13.525  68.578  1.00  0.00    -0.344 C  
HETATM   33  O   UNL     1     -11.396  14.764  69.012  1.00  0.00    -0.247 OA 
HETATM   34  C   UNL     1     -11.354  15.565  67.815  1.00  0.00    -0.286 C  
HETATM   35  H   UNL     1     -11.828  12.329  65.533  1.00  0.00     0.000 HD 
HETATM   36  C   UNL     1     -10.944  14.596  66.694  1.00  0.00    -0.323 C  
HETATM   37  C   UNL     1     -11.340  13.219  67.232  1.00  0.00    -0.314 C  
HETATM   38  H   UNL     1     -11.334  14.260  64.751  1.00  0.00     0.000 HD 
HETATM   39  O   UNL     1     -11.587  14.858  65.444  1.00  0.00    -0.339 OA 
HETATM   40  O   UNL     1     -12.232  12.520  66.371  1.00  0.00    -0.584 OA 
BRANCH  34  41
HETATM   41  N   UNL     1     -10.437  16.675  67.977  1.00  0.00    -0.306 NA 
HETATM   42  C   UNL     1     -10.646  17.991  67.674  1.00  0.00    -0.399 A  
HETATM   43  N   UNL     1      -9.608  18.739  67.993  1.00  0.00    -0.308 NA 
HETATM   44  C   UNL     1      -8.676  17.856  68.499  1.00  0.00    -0.292 A  
HETATM   45  C   UNL     1      -7.382  18.029  69.018  1.00  0.00    -0.190 A  
HETATM   46  N   UNL     1      -6.779  19.270  69.161  1.00  0.00    -0.316 NA 
HETATM   47  N   UNL     1      -6.687  16.931  69.397  1.00  0.00    -0.238 NA 
HETATM   48  H1  UNL     1      -5.840  19.396  69.538  1.00  0.00     0.000 HD 
HETATM   49  C   UNL     1      -7.287  15.725  69.301  1.00  0.00    -0.216 A  
HETATM   50  H2  UNL     1      -7.409  19.852  69.715  1.00  0.00     0.000 HD 
HETATM   51  N   UNL     1      -8.538  15.438  68.871  1.00  0.00    -0.190 NA 
HETATM   52  C   UNL     1      -9.164  16.560  68.471  1.00  0.00    -0.230 A  
ENDBRANCH  34  41
ENDBRANCH  31  32
ENDBRANCH  30  31
ENDBRANCH  27  30
ENDBRANCH  26  27
ENDBRANCH  23  26
ENDBRANCH  22  23
ENDBRANCH  21  22
ENDBRANCH  14  21
ENDBRANCH   8  12
ENDBRANCH   4   6
TORSDOF 11
ENDMDL
MODEL      148
REMARK 921   NORMALIZED FREE ENERGY PREDICTED BY IDOCK:   -5.60 KCAL/MOL
REMARK 922        TOTAL FREE ENERGY PREDICTED BY IDOCK:  -11.41 KCAL/MOL
REMARK 923 INTER-LIGAND FREE ENERGY PREDICTED BY IDOCK:   -8.66 KCAL/MOL
REMARK 924 INTRA-LIGAND FREE ENERGY PREDICTED BY IDOCK:   -2.75 KCAL/MOL
REMARK 927      BINDING AFFINITY PREDICTED BY RF-SCORE:    0.00 PKD
ROOT
HETATM    1  N   UNL     1     -11.030  11.338  66.508  1.00  0.00    -0.272 N  
HETATM    2  H1  UNL     1     -10.907  10.989  67.459  1.00  0.00     0.000 HD 
HETATM    3  H2  UNL     1     -11.674  12.109  66.334  1.00  0.00     0.000 HD 
HETATM    4  C   UNL     1     -10.350  10.789  65.477  1.00  0.00    -0.241 C  
HETATM    5  O   UNL     1     -10.499  11.210  64.330  1.00  0.00    -0.317 OA 
ENDROOT
BRANCH   4   6
HETATM    6  C   UNL     1      -9.443   9.665  65.802  1.00  0.00    -0.308 C  
HETATM    7  C   UNL     1     -10.028   8.525  66.216  1.00  0.00    -0.181 C  
HETATM    8  N   UNL     1      -9.325   7.357  66.500  1.00  0.00    -0.175 NA 
HETATM    9  C   UNL     1      -7.953   9.745  65.612  1.00  0.00    -0.117 C  
HETATM   10  C   UNL     1      -7.928   7.429  66.495  1.00  0.00    -0.111 C  
HETATM   11  C   UNL     1      -7.239   8.508  66.096  1.00  0.00    -0.081 C  
BRANCH   8  12
HETATM   12  C   UNL     1      -9.953   6.025  66.647  1.00  0.00    -0.166 C  
HETATM   13  O   UNL     1     -11.222   6.181  67.319  1.00  0.00    -0.288 OA 
HETATM   14  C   UNL     1     -10.982   6.071  68.740  1.00  0.00    -0.312 C  
HETATM   15  H   UNL     1      -9.245   2.967  67.676  1.00  0.00     0.000 HD 
HETATM   16  C   UNL     1      -9.693   5.274  68.921  1.00  0.00    -0.148 C  
HETATM   17  H   UNL     1      -9.139   3.581  69.781  1.00  0.00     0.000 HD 
HETATM   18  C   UNL     1      -9.240   4.961  67.498  1.00  0.00    -0.123 C  
HETATM   19  O   UNL     1      -9.941   4.077  69.669  1.00  0.00    -0.166 OA 
HETATM   20  O   UNL     1      -9.685   3.626  67.150  1.00  0.00    -0.199 OA 
BRANCH  14  21
HETATM   21  C   UNL     1     -10.895   7.467  69.378  1.00  0.00    -0.171 C  
BRANCH  21  22
HETATM   22  O   UNL     1     -11.418   7.460  70.701  1.00  0.00    -0.284 OA 
BRANCH  22  23
HETATM   23  P   UNL     1     -11.273   8.786  71.579  1.00  0.00    -0.363 P  
HETATM   24  O   UNL     1     -11.278  10.089  70.853  1.00  0.00    -0.323 OA 
HETATM   25  O   UNL     1     -12.585   8.706  72.506  1.00  0.00    -0.392 OA 
BRANCH  23  26
HETATM   26  O   UNL     1     -10.109   8.542  72.620  1.00  0.00    -0.282 OA 
BRANCH  26  27
HETATM   27  P   UNL     1      -8.565   8.591  72.284  1.00  0.00    -0.029 P  
HETATM   28  O   UNL     1      -8.335   7.225  71.470  1.00  0.00    -0.108 OA 
HETATM   29  O   UNL     1      -7.602   8.663  73.420  1.00  0.00    -0.367 OA 
BRANCH  27  30
HETATM   30  O   UNL     1      -8.357   9.716  71.159  1.00  0.00    -0.221 OA 
BRANCH  30  31
HETATM   31  C   UNL     1      -7.819   9.383  69.884  1.00  0.00    -0.126 C  
BRANCH  31  32
HETATM   32  C   UNL     1      -7.385  10.598  69.071  1.00  0.00    -0.108 C  
HETATM   33  O   UNL     1      -8.519  11.380  68.648  1.00  0.00    -0.155 OA 
HETATM   34  C   UNL     1      -7.942  12.638  68.251  1.00  0.00    -0.153 C  
HETATM   35  H   UNL     1      -4.590  11.829  70.255  1.00  0.00     0.000 HD 
HETATM   36  C   UNL     1      -6.856  12.934  69.299  1.00  0.00    -0.018 C  
HETATM   37  C   UNL     1      -6.513  11.558  69.874  1.00  0.00    -0.106 C  
HETATM   38  H   UNL     1      -5.020  13.745  69.404  1.00  0.00     0.000 HD 
HETATM   39  O   UNL     1      -5.691  13.563  68.757  1.00  0.00    -0.077 OA 
HETATM   40  O   UNL     1      -5.133  11.232  69.755  1.00  0.00    -0.045 OA 
BRANCH  34  41
HETATM   41  N   UNL     1      -8.961  13.666  68.177  1.00  0.00    -0.186 NA 
HETATM   42  C   UNL     1     -10.240  13.621  68.655  1.00  0.00    -0.197 A  
HETATM   43  N   UNL     1     -10.880  14.755  68.452  1.00  0.00    -0.238 NA 
HETATM   44  C   UNL     1      -9.978  15.559  67.786  1.00  0.00    -0.222 A  
HETATM   45  C   UNL     1     -10.048  16.877  67.305  1.00  0.00    -0.286 A  
HETATM   46  N   UNL     1     -11.154  17.694  67.483  1.00  0.00    -0.066 NA 
HETATM   47  N   UNL     1      -8.983  17.375  66.633  1.00  0.00    -0.243 NA 
HETATM   48  H1  UNL     1     -11.205  18.651  67.134  1.00  0.00     0.000 HD 
HETATM   49  C   UNL     1      -7.887  16.599  66.496  1.00  0.00    -0.307 A  
HETATM   50  H2  UNL     1     -11.351  17.725  68.484  1.00  0.00     0.000 HD 
HETATM   51  N   UNL     1      -7.681  15.343  66.957  1.00  0.00    -0.209 NA 
HETATM   52  C   UNL     1      -8.784  14.887  67.580  1.00  0.00    -0.175 A  
ENDBRANCH  34  41
ENDBRANCH  31  32
ENDBRANCH  30  31
ENDBRANCH  27  30
ENDBRANCH  26  27
ENDBRANCH  23  26
ENDBRANCH  22  23
ENDBRANCH  21  22
ENDBRANCH  14  21
ENDBRANCH   8  12
ENDBRANCH   4   6
TORSDOF 11
ENDMDL
MODEL      149
REMARK 921   NORMALIZED FREE ENERGY PREDICTED BY IDOCK:   -5.60 KCAL/MOL
REMARK 922        TOTAL FREE ENERGY PREDICTED BY IDOCK:  -11.40 KCAL/MOL
REMARK 923 INTER-LIGAND FREE ENERGY PREDICTED BY IDOCK:   -9.57 KCAL/MOL
REMARK 924 INTRA-LIGAND FREE ENERGY PREDICTED BY IDOCK:   -1.82 KCAL/MOL
REMARK 927      BINDING AFFINITY PREDICTED BY RF-SCORE:    0.00 PKD
ROOT
HETATM    1  N   UNL     1      -8.138   1.871  70.343  1.00  0.00    -0.041 N  
HETATM    2  H1  UNL     1      -9.035   1.532  69.996  1.00  0.00     0.000 HD 
HETATM    3  H2  UNL     1      -7.464   1.209  70.728  1.00  0.00     0.000 HD 
HETATM    4  C   UNL     1      -7.832   3.186  70.300  1.00  0.00    -0.043 C  
HETATM    5  O   UNL     1      -6.749   3.595  70.719  1.00  0.00    -0.031 OA 
ENDROOT
BRANCH   4   6
HETATM    6  C   UNL     1      -8.862   4.091  69.741  1.00  0.00    -0.143 C  
HETATM    7  C   UNL     1      -9.511   4.875  70.622  1.00  0.00    -0.173 C  
HETATM    8  N   UNL     1     -10.462   5.824  70.256  1.00  0.00    -0.256 NA 
HETATM    9  C   UNL     1      -9.132   4.198  68.265  1.00  0.00    -0.176 C  
HETATM   10  C   UNL     1     -10.863   5.849  68.915  1.00  0.00    -0.303 C  
HETATM   11  C   UNL     1     -10.286   5.117  67.951  1.00  0.00    -0.180 C  
BRANCH   8  12
HETATM   12  C   UNL     1     -10.950   6.900  71.147  1.00  0.00    -0.251 C  
HETATM   13  O   UNL     1     -10.656   8.177  70.538  1.00  0.00    -0.212 OA 
HETATM   14  C   UNL     1      -9.346   8.586  70.991  1.00  0.00    -0.185 C  
HETATM   15  H   UNL     1     -10.834   7.845  74.310  1.00  0.00     0.000 HD 
HETATM   16  C   UNL     1      -9.079   7.871  72.312  1.00  0.00    -0.161 C  
HETATM   17  H   UNL     1      -8.708   8.375  74.189  1.00  0.00     0.000 HD 
HETATM   18  C   UNL     1     -10.334   7.035  72.549  1.00  0.00    -0.205 C  
HETATM   19  O   UNL     1      -8.874   8.821  73.366  1.00  0.00    -0.245 OA 
HETATM   20  O   UNL     1     -11.215   7.761  73.443  1.00  0.00    -0.315 OA 
BRANCH  14  21
HETATM   21  C   UNL     1      -8.285   8.256  69.928  1.00  0.00    -0.123 C  
BRANCH  21  22
HETATM   22  O   UNL     1      -8.075   9.358  69.053  1.00  0.00    -0.101 OA 
BRANCH  22  23
HETATM   23  P   UNL     1      -6.597   9.620  68.508  1.00  0.00    -0.052 P  
HETATM   24  O   UNL     1      -6.037  10.991  68.689  1.00  0.00    -0.043 OA 
HETATM   25  O   UNL     1      -5.738   8.589  69.394  1.00  0.00    -0.030 OA 
BRANCH  23  26
HETATM   26  O   UNL     1      -6.502   8.984  67.064  1.00  0.00    -0.059 OA 
BRANCH  26  27
HETATM   27  P   UNL     1      -7.458   9.334  65.853  1.00  0.00    -0.097 P  
HETATM   28  O   UNL     1      -8.641   8.258  66.013  1.00  0.00    -0.132 OA 
HETATM   29  O   UNL     1      -6.898   9.258  64.474  1.00  0.00    -0.085 OA 
BRANCH  27  30
HETATM   30  O   UNL     1      -8.186  10.719  66.205  1.00  0.00    -0.154 OA 
BRANCH  30  31
HETATM   31  C   UNL     1      -9.588  10.767  66.444  1.00  0.00    -0.189 C  
BRANCH  31  32
HETATM   32  C   UNL     1      -9.972  11.633  67.639  1.00  0.00    -0.188 C  
HETATM   33  O   UNL     1      -9.541  12.996  67.460  1.00  0.00    -0.194 OA 
HETATM   34  C   UNL     1     -10.291  13.728  68.448  1.00  0.00    -0.247 C  
HETATM   35  H   UNL     1     -12.888  10.726  68.823  1.00  0.00     0.000 HD 
HETATM   36  C   UNL     1     -11.699  13.112  68.425  1.00  0.00    -0.351 C  
HETATM   37  C   UNL     1     -11.481  11.714  67.842  1.00  0.00    -0.311 C  
HETATM   38  H   UNL     1     -13.184  12.655  69.700  1.00  0.00     0.000 HD 
HETATM   39  O   UNL     1     -12.314  13.036  69.714  1.00  0.00    -0.205 OA 
HETATM   40  O   UNL     1     -11.948  10.676  68.696  1.00  0.00    -0.401 OA 
BRANCH  34  41
HETATM   41  N   UNL     1     -10.281  15.146  68.149  1.00  0.00    -0.225 NA 
HETATM   42  C   UNL     1      -9.953  16.180  68.980  1.00  0.00    -0.242 A  
HETATM   43  N   UNL     1     -10.010  17.344  68.362  1.00  0.00    -0.309 NA 
HETATM   44  C   UNL     1     -10.422  17.045  67.079  1.00  0.00    -0.279 A  
HETATM   45  C   UNL     1     -10.659  17.838  65.944  1.00  0.00    -0.205 A  
HETATM   46  N   UNL     1     -10.450  19.209  65.917  1.00  0.00    -0.514 NA 
HETATM   47  N   UNL     1     -11.116  17.236  64.820  1.00  0.00    -0.920 NA 
HETATM   48  H1  UNL     1     -10.621  19.785  65.092  1.00  0.00     0.000 HD 
HETATM   49  C   UNL     1     -11.278  15.895  64.829  1.00  0.00    -0.355 A  
HETATM   50  H2  UNL     1      -9.485  19.375  66.207  1.00  0.00     0.000 HD 
HETATM   51  N   UNL     1     -11.035  15.024  65.835  1.00  0.00    -0.337 NA 
HETATM   52  C   UNL     1     -10.623  15.682  66.935  1.00  0.00    -0.311 A  
ENDBRANCH  34  41
ENDBRANCH  31  32
ENDBRANCH  30  31
ENDBRANCH  27  30
ENDBRANCH  26  27
ENDBRANCH  23  26
ENDBRANCH  22  23
ENDBRANCH  21  22
ENDBRANCH  14  21
ENDBRANCH   8  12
ENDBRANCH   4   6
TORSDOF 11
ENDMDL
MODEL      150
REMARK 921   NORMALIZED FREE ENERGY PREDICTED BY IDOCK:   -5.59 KCAL/MOL
REMARK 922        TOTAL FREE ENERGY PREDICTED BY IDOCK:  -11.39 KCAL/MOL
REMARK 923 INTER-LIGAND FREE ENERGY PREDICTED BY IDOCK:  -10.51 KCAL/MOL
REMARK 924 INTRA-LIGAND FREE ENERGY PREDICTED BY IDOCK:   -0.88 KCAL/MOL
REMARK 927      BINDING AFFINITY PREDICTED BY RF-SCORE:    0.00 PKD
ROOT
HETATM    1  N   UNL     1     -10.030   5.179  65.359  1.00  0.00    -0.381 N  
HETATM    2  H1  UNL     1      -9.394   4.410  65.147  1.00  0.00     0.000 HD 
HETATM    3  H2  UNL     1     -10.378   5.769  64.604  1.00  0.00     0.000 HD 
HETATM    4  C   UNL     1     -10.419   5.423  66.630  1.00  0.00    -0.298 C  
HETATM    5  O   UNL     1     -11.186   6.351  66.887  1.00  0.00    -0.368 OA 
ENDROOT
BRANCH   4   6
HETATM    6  C   UNL     1      -9.865   4.534  67.677  1.00  0.00    -0.181 C  
HETATM    7  C   UNL     1     -10.015   4.944  68.951  1.00  0.00    -0.149 C  
HETATM    8  N   UNL     1      -9.609   4.198  70.054  1.00  0.00    -0.191 NA 
HETATM    9  C   UNL     1      -9.235   3.206  67.362  1.00  0.00    -0.224 C  
HETATM   10  C   UNL     1      -8.874   3.033  69.809  1.00  0.00    -0.086 C  
HETATM   11  C   UNL     1      -8.666   2.528  68.584  1.00  0.00    -0.133 C  
BRANCH   8  12
HETATM   12  C   UNL     1     -10.038   4.470  71.444  1.00  0.00    -0.160 C  
HETATM   13  O   UNL     1     -10.880   5.645  71.450  1.00  0.00    -0.253 OA 
HETATM   14  C   UNL     1     -10.025   6.795  71.637  1.00  0.00    -0.172 C  
HETATM   15  H   UNL     1      -8.795   4.763  74.490  1.00  0.00     0.000 HD 
HETATM   16  C   UNL     1      -8.753   6.306  72.325  1.00  0.00    -0.132 C  
HETATM   17  H   UNL     1      -7.790   6.656  74.017  1.00  0.00     0.000 HD 
HETATM   18  C   UNL     1      -8.969   4.805  72.497  1.00  0.00    -0.125 C  
HETATM   19  O   UNL     1      -8.582   6.960  73.589  1.00  0.00    -0.126 OA 
HETATM   20  O   UNL     1      -9.456   4.555  73.839  1.00  0.00    -0.116 OA 
BRANCH  14  21
HETATM   21  C   UNL     1      -9.731   7.468  70.287  1.00  0.00    -0.179 C  
BRANCH  21  22
HETATM   22  O   UNL     1      -8.344   7.751  70.144  1.00  0.00    -0.124 OA 
BRANCH  22  23
HETATM   23  P   UNL     1      -7.911   9.233  69.737  1.00  0.00    -0.135 P  
HETATM   24  O   UNL     1      -8.842  10.339  70.105  1.00  0.00     0.000 OA 
HETATM   25  O   UNL     1      -6.545   9.409  70.568  1.00  0.00    -0.063 OA 
BRANCH  23  26
HETATM   26  O   UNL     1      -7.395   9.185  68.244  1.00  0.00    -0.078 OA 
BRANCH  26  27
HETATM   27  P   UNL     1      -8.311   9.322  66.962  1.00  0.00    -0.120 P  
HETATM   28  O   UNL     1      -9.788   9.404  67.589  1.00  0.00    -0.160 OA 
HETATM   29  O   UNL     1      -8.260   8.234  65.946  1.00  0.00    -0.106 OA 
BRANCH  27  30
HETATM   30  O   UNL     1      -8.091  10.799  66.374  1.00  0.00    -0.141 OA 
BRANCH  30  31
HETATM   31  C   UNL     1      -8.326  11.948  67.180  1.00  0.00    -0.174 C  
BRANCH  31  32
HETATM   32  C   UNL     1      -9.792  12.364  67.232  1.00  0.00    -0.207 C  
HETATM   33  O   UNL     1     -10.173  12.784  68.557  1.00  0.00    -0.230 OA 
HETATM   34  C   UNL     1     -11.415  13.484  68.354  1.00  0.00    -0.311 C  
HETATM   35  H   UNL     1     -10.651  13.884  64.461  1.00  0.00     0.000 HD 
HETATM   36  C   UNL     1     -11.216  14.296  67.064  1.00  0.00    -0.323 C  
HETATM   37  C   UNL     1     -10.094  13.557  66.331  1.00  0.00    -0.294 C  
HETATM   38  H   UNL     1     -12.266  14.878  65.452  1.00  0.00     0.000 HD 
HETATM   39  O   UNL     1     -12.389  14.377  66.249  1.00  0.00    -0.409 OA 
HETATM   40  O   UNL     1     -10.464  13.141  65.022  1.00  0.00    -0.313 OA 
BRANCH  34  41
HETATM   41  N   UNL     1     -11.732  14.305  69.505  1.00  0.00    -0.295 NA 
HETATM   42  C   UNL     1     -11.524  15.646  69.666  1.00  0.00    -0.340 A  
HETATM   43  N   UNL     1     -11.977  16.077  70.827  1.00  0.00    -0.363 NA 
HETATM   44  C   UNL     1     -12.475  14.953  71.454  1.00  0.00    -0.337 A  
HETATM   45  C   UNL     1     -13.098  14.750  72.697  1.00  0.00    -0.441 A  
HETATM   46  N   UNL     1     -13.386  15.780  73.580  1.00  0.00    -0.708 NA 
HETATM   47  N   UNL     1     -13.434  13.488  73.052  1.00  0.00    -0.484 NA 
HETATM   48  H1  UNL     1     -13.839  15.633  74.482  1.00  0.00     0.000 HD 
HETATM   49  C   UNL     1     -13.197  12.488  72.175  1.00  0.00    -0.403 A  
HETATM   50  H2  UNL     1     -13.939  16.471  73.072  1.00  0.00     0.000 HD 
HETATM   51  N   UNL     1     -12.656  12.564  70.937  1.00  0.00    -0.304 NA 
HETATM   52  C   UNL     1     -12.306  13.833  70.656  1.00  0.00    -0.375 A  
ENDBRANCH  34  41
ENDBRANCH  31  32
ENDBRANCH  30  31
ENDBRANCH  27  30
ENDBRANCH  26  27
ENDBRANCH  23  26
ENDBRANCH  22  23
ENDBRANCH  21  22
ENDBRANCH  14  21
ENDBRANCH   8  12
ENDBRANCH   4   6
TORSDOF 11
ENDMDL
MODEL      151
REMARK 921   NORMALIZED FREE ENERGY PREDICTED BY IDOCK:   -5.58 KCAL/MOL
REMARK 922        TOTAL FREE ENERGY PREDICTED BY IDOCK:  -11.38 KCAL/MOL
REMARK 923 INTER-LIGAND FREE ENERGY PREDICTED BY IDOCK:   -8.58 KCAL/MOL
REMARK 924 INTRA-LIGAND FREE ENERGY PREDICTED BY IDOCK:   -2.79 KCAL/MOL
REMARK 927      BINDING AFFINITY PREDICTED BY RF-SCORE:    0.00 PKD
ROOT
HETATM    1  N   UNL     1      -6.316  11.077  67.114  1.00  0.00    -0.068 N  
HETATM    2  H1  UNL     1      -5.709  11.890  67.218  1.00  0.00     0.000 HD 
HETATM    3  H2  UNL     1      -5.905  10.144  67.067  1.00  0.00     0.000 HD 
HETATM    4  C   UNL     1      -7.657  11.220  67.037  1.00  0.00    -0.143 C  
HETATM    5  O   UNL     1      -8.389  10.239  66.911  1.00  0.00    -0.122 OA 
ENDROOT
BRANCH   4   6
HETATM    6  C   UNL     1      -8.183  12.603  67.099  1.00  0.00    -0.159 C  
HETATM    7  C   UNL     1      -8.983  12.985  66.086  1.00  0.00     0.200 C  
HETATM    8  N   UNL     1      -9.609  14.227  66.023  1.00  0.00    -0.278 NA 
HETATM    9  C   UNL     1      -7.912  13.522  68.259  1.00  0.00    -0.147 C  
HETATM   10  C   UNL     1      -9.261  15.173  66.994  1.00  0.00    -0.223 C  
HETATM   11  C   UNL     1      -8.478  14.904  68.049  1.00  0.00    -0.151 C  
BRANCH   8  12
HETATM   12  C   UNL     1     -10.723  14.551  65.105  1.00  0.00    -0.406 C  
HETATM   13  O   UNL     1     -11.840  15.037  65.883  1.00  0.00    -0.193 OA 
HETATM   14  C   UNL     1     -12.652  13.897  66.242  1.00  0.00    -0.330 C  
HETATM   15  H   UNL     1     -12.427  13.246  62.595  1.00  0.00     0.000 HD 
HETATM   16  C   UNL     1     -12.375  12.802  65.216  1.00  0.00    -0.488 C  
HETATM   17  H   UNL     1     -13.405  11.764  63.884  1.00  0.00     0.000 HD 
HETATM   18  C   UNL     1     -11.348  13.421  64.271  1.00  0.00    -0.389 C  
HETATM   19  O   UNL     1     -13.578  12.446  64.524  1.00  0.00    -0.450 OA 
HETATM   20  O   UNL     1     -12.040  13.944  63.110  1.00  0.00    -0.390 OA 
BRANCH  14  21
HETATM   21  C   UNL     1     -12.332  13.443  67.675  1.00  0.00     0.021 C  
BRANCH  21  22
HETATM   22  O   UNL     1     -12.260  12.025  67.761  1.00  0.00    -0.474 OA 
BRANCH  22  23
HETATM   23  P   UNL     1     -11.782  11.373  69.138  1.00  0.00    -0.370 P  
HETATM   24  O   UNL     1     -10.479  10.646  69.132  1.00  0.00    -0.199 OA 
HETATM   25  O   UNL     1     -11.646  12.669  70.080  1.00  0.00    -0.239 OA 
BRANCH  23  26
HETATM   26  O   UNL     1     -13.025  10.627  69.768  1.00  0.00    -0.138 OA 
BRANCH  26  27
HETATM   27  P   UNL     1     -13.136  10.162  71.276  1.00  0.00    -0.343 P  
HETATM   28  O   UNL     1     -14.265   9.020  71.213  1.00  0.00    -0.269 OA 
HETATM   29  O   UNL     1     -13.514  11.180  72.297  1.00  0.00    -0.337 OA 
BRANCH  27  30
HETATM   30  O   UNL     1     -11.807   9.331  71.618  1.00  0.00    -0.336 OA 
BRANCH  30  31
HETATM   31  C   UNL     1     -11.812   7.908  71.603  1.00  0.00    -0.288 C  
BRANCH  31  32
HETATM   32  C   UNL     1     -10.423   7.294  71.748  1.00  0.00    -0.197 C  
HETATM   33  O   UNL     1      -9.713   7.299  70.494  1.00  0.00    -0.176 OA 
HETATM   34  C   UNL     1      -8.344   7.060  70.872  1.00  0.00    -0.129 C  
HETATM   35  H   UNL     1      -9.120   8.079  74.648  1.00  0.00     0.000 HD 
HETATM   36  C   UNL     1      -8.127   7.887  72.150  1.00  0.00    -0.124 C  
HETATM   37  C   UNL     1      -9.537   8.074  72.714  1.00  0.00    -0.277 C  
HETATM   38  H   UNL     1      -7.141   7.762  73.897  1.00  0.00     0.000 HD 
HETATM   39  O   UNL     1      -7.275   7.251  73.108  1.00  0.00    -0.072 OA 
HETATM   40  O   UNL     1      -9.671   7.594  74.047  1.00  0.00    -0.198 OA 
BRANCH  34  41
HETATM   41  N   UNL     1      -7.446   7.425  69.794  1.00  0.00    -0.090 NA 
HETATM   42  C   UNL     1      -6.362   8.254  69.845  1.00  0.00    -0.032 A  
HETATM   43  N   UNL     1      -5.743   8.325  68.683  1.00  0.00    -0.036 NA 
HETATM   44  C   UNL     1      -6.482   7.524  67.837  1.00  0.00    -0.054 A  
HETATM   45  C   UNL     1      -6.338   7.178  66.484  1.00  0.00    -0.047 A  
HETATM   46  N   UNL     1      -5.277   7.603  65.698  1.00  0.00    -0.028 NA 
HETATM   47  N   UNL     1      -7.282   6.391  65.915  1.00  0.00    -0.076 NA 
HETATM   48  H1  UNL     1      -5.172   7.350  64.715  1.00  0.00     0.000 HD 
HETATM   49  C   UNL     1      -8.293   5.938  66.688  1.00  0.00    -0.110 A  
HETATM   50  H2  UNL     1      -4.417   7.328  66.175  1.00  0.00     0.000 HD 
HETATM   51  N   UNL     1      -8.510   6.158  68.006  1.00  0.00    -0.116 NA 
HETATM   52  C   UNL     1      -7.565   6.976  68.505  1.00  0.00    -0.115 A  
ENDBRANCH  34  41
ENDBRANCH  31  32
ENDBRANCH  30  31
ENDBRANCH  27  30
ENDBRANCH  26  27
ENDBRANCH  23  26
ENDBRANCH  22  23
ENDBRANCH  21  22
ENDBRANCH  14  21
ENDBRANCH   8  12
ENDBRANCH   4   6
TORSDOF 11
ENDMDL
MODEL      152
REMARK 921   NORMALIZED FREE ENERGY PREDICTED BY IDOCK:   -5.57 KCAL/MOL
REMARK 922        TOTAL FREE ENERGY PREDICTED BY IDOCK:  -11.36 KCAL/MOL
REMARK 923 INTER-LIGAND FREE ENERGY PREDICTED BY IDOCK:   -9.64 KCAL/MOL
REMARK 924 INTRA-LIGAND FREE ENERGY PREDICTED BY IDOCK:   -1.72 KCAL/MOL
REMARK 927      BINDING AFFINITY PREDICTED BY RF-SCORE:    0.00 PKD
ROOT
HETATM    1  N   UNL     1      -5.194   5.801  72.529  1.00  0.00    -0.018 N  
HETATM    2  H1  UNL     1      -4.854   5.438  71.638  1.00  0.00     0.000 HD 
HETATM    3  H2  UNL     1      -4.538   5.946  73.297  1.00  0.00     0.000 HD 
HETATM    4  C   UNL     1      -6.502   6.092  72.702  1.00  0.00    -0.063 C  
HETATM    5  O   UNL     1      -6.912   6.529  73.777  1.00  0.00    -0.080 OA 
ENDROOT
BRANCH   4   6
HETATM    6  C   UNL     1      -7.397   5.843  71.550  1.00  0.00    -0.088 C  
HETATM    7  C   UNL     1      -8.693   5.619  71.837  1.00  0.00    -0.135 C  
HETATM    8  N   UNL     1      -9.677   5.431  70.868  1.00  0.00    -0.172 NA 
HETATM    9  C   UNL     1      -6.921   5.909  70.125  1.00  0.00    -0.069 C  
HETATM   10  C   UNL     1      -9.257   5.323  69.538  1.00  0.00    -0.118 C  
HETATM   11  C   UNL     1      -7.995   5.531  69.136  1.00  0.00    -0.095 C  
BRANCH   8  12
HETATM   12  C   UNL     1     -11.130   5.499  71.136  1.00  0.00    -0.055 C  
HETATM   13  O   UNL     1     -11.745   6.351  70.143  1.00  0.00    -0.422 OA 
HETATM   14  C   UNL     1     -11.729   7.702  70.655  1.00  0.00    -0.193 C  
HETATM   15  H   UNL     1     -13.251   6.046  73.608  1.00  0.00     0.000 HD 
HETATM   16  C   UNL     1     -11.646   7.609  72.176  1.00  0.00    -0.308 C  
HETATM   17  H   UNL     1     -12.733   8.175  73.728  1.00  0.00     0.000 HD 
HETATM   18  C   UNL     1     -11.612   6.111  72.461  1.00  0.00    -0.250 C  
HETATM   19  O   UNL     1     -12.785   8.233  72.781  1.00  0.00    -0.190 OA 
HETATM   20  O   UNL     1     -12.953   5.668  72.788  1.00  0.00     0.254 OA 
BRANCH  14  21
HETATM   21  C   UNL     1     -10.551   8.487  70.056  1.00  0.00    -0.227 C  
BRANCH  21  22
HETATM   22  O   UNL     1     -10.954   9.224  68.909  1.00  0.00    -0.146 OA 
BRANCH  22  23
HETATM   23  P   UNL     1     -11.186  10.796  69.062  1.00  0.00    -0.300 P  
HETATM   24  O   UNL     1     -12.356  11.385  68.348  1.00  0.00    -0.505 OA 
HETATM   25  O   UNL     1     -11.424  10.936  70.646  1.00  0.00    -0.302 OA 
BRANCH  23  26
HETATM   26  O   UNL     1      -9.786  11.505  68.867  1.00  0.00    -0.173 OA 
BRANCH  26  27
HETATM   27  P   UNL     1      -8.791  11.235  67.669  1.00  0.00    -0.145 P  
HETATM   28  O   UNL     1      -8.016   9.909  68.143  1.00  0.00    -0.099 OA 
HETATM   29  O   UNL     1      -7.800  12.296  67.328  1.00  0.00    -0.160 OA 
BRANCH  27  30
HETATM   30  O   UNL     1      -9.666  10.713  66.429  1.00  0.00    -0.184 OA 
BRANCH  30  31
HETATM   31  C   UNL     1      -9.729  11.456  65.217  1.00  0.00    -0.241 C  
BRANCH  31  32
HETATM   32  C   UNL     1     -10.823  12.518  65.211  1.00  0.00    -0.286 C  
HETATM   33  O   UNL     1     -10.461  13.649  66.027  1.00  0.00    -0.288 OA 
HETATM   34  C   UNL     1     -11.381  14.680  65.617  1.00  0.00    -0.338 C  
HETATM   35  H   UNL     1     -12.226  12.705  62.257  1.00  0.00     0.000 HD 
HETATM   36  C   UNL     1     -11.490  14.540  64.090  1.00  0.00    -0.053 C  
HETATM   37  C   UNL     1     -11.075  13.091  63.821  1.00  0.00    -0.312 C  
HETATM   38  H   UNL     1     -12.871  14.709  62.639  1.00  0.00     0.000 HD 
HETATM   39  O   UNL     1     -12.803  14.796  63.582  1.00  0.00    -0.619 OA 
HETATM   40  O   UNL     1     -12.069  12.348  63.123  1.00  0.00    -0.442 OA 
BRANCH  34  41
HETATM   41  N   UNL     1     -10.910  15.983  66.041  1.00  0.00    -0.245 NA 
HETATM   42  C   UNL     1     -10.524  17.034  65.259  1.00  0.00    -0.037 A  
HETATM   43  N   UNL     1     -10.194  18.088  65.980  1.00  0.00    -0.545 NA 
HETATM   44  C   UNL     1     -10.349  17.684  67.290  1.00  0.00    -0.354 A  
HETATM   45  C   UNL     1     -10.170  18.341  68.519  1.00  0.00    -0.379 A  
HETATM   46  N   UNL     1      -9.807  19.676  68.621  1.00  0.00    -0.420 NA 
HETATM   47  N   UNL     1     -10.360  17.638  69.660  1.00  0.00     0.059 NA 
HETATM   48  H1  UNL     1      -9.678  20.154  69.513  1.00  0.00     0.000 HD 
HETATM   49  C   UNL     1     -10.757  16.351  69.565  1.00  0.00    -0.325 A  
HETATM   50  H2  UNL     1     -10.485  20.217  68.083  1.00  0.00     0.000 HD 
HETATM   51  N   UNL     1     -11.011  15.628  68.449  1.00  0.00    -0.292 NA 
HETATM   52  C   UNL     1     -10.768  16.365  67.349  1.00  0.00    -0.278 A  
ENDBRANCH  34  41
ENDBRANCH  31  32
ENDBRANCH  30  31
ENDBRANCH  27  30
ENDBRANCH  26  27
ENDBRANCH  23  26
ENDBRANCH  22  23
ENDBRANCH  21  22
ENDBRANCH  14  21
ENDBRANCH   8  12
ENDBRANCH   4   6
TORSDOF 11
ENDMDL
MODEL      153
REMARK 921   NORMALIZED FREE ENERGY PREDICTED BY IDOCK:   -5.57 KCAL/MOL
REMARK 922        TOTAL FREE ENERGY PREDICTED BY IDOCK:  -11.35 KCAL/MOL
REMARK 923 INTER-LIGAND FREE ENERGY PREDICTED BY IDOCK:   -9.81 KCAL/MOL
REMARK 924 INTRA-LIGAND FREE ENERGY PREDICTED BY IDOCK:   -1.54 KCAL/MOL
REMARK 927      BINDING AFFINITY PREDICTED BY RF-SCORE:    0.00 PKD
ROOT
HETATM    1  N   UNL     1     -10.664  20.216  67.392  1.00  0.00    -0.209 N  
HETATM    2  H1  UNL     1     -10.440  20.427  68.364  1.00  0.00     0.000 HD 
HETATM    3  H2  UNL     1     -11.432  20.707  66.933  1.00  0.00     0.000 HD 
HETATM    4  C   UNL     1      -9.956  19.294  66.703  1.00  0.00    -0.380 C  
HETATM    5  O   UNL     1     -10.227  19.040  65.530  1.00  0.00    -0.430 OA 
ENDROOT
BRANCH   4   6
HETATM    6  C   UNL     1      -8.865  18.611  67.435  1.00  0.00    -0.284 C  
HETATM    7  C   UNL     1      -8.660  17.316  67.131  1.00  0.00    -0.206 C  
HETATM    8  N   UNL     1      -7.638  16.546  67.681  1.00  0.00    -0.142 NA 
HETATM    9  C   UNL     1      -7.972  19.327  68.411  1.00  0.00    -0.376 C  
HETATM   10  C   UNL     1      -6.884  17.120  68.711  1.00  0.00    -0.209 C  
HETATM   11  C   UNL     1      -6.997  18.400  69.093  1.00  0.00    -0.240 C  
BRANCH   8  12
HETATM   12  C   UNL     1      -7.199  15.240  67.142  1.00  0.00    -0.104 C  
HETATM   13  O   UNL     1      -8.330  14.591  66.519  1.00  0.00     0.001 OA 
HETATM   14  C   UNL     1      -8.990  13.796  67.530  1.00  0.00    -0.201 C  
HETATM   15  H   UNL     1      -5.538  12.532  68.045  1.00  0.00     0.000 HD 
HETATM   16  C   UNL     1      -7.955  13.485  68.608  1.00  0.00    -0.073 C  
HETATM   17  H   UNL     1      -7.128  11.876  69.408  1.00  0.00     0.000 HD 
HETATM   18  C   UNL     1      -6.683  14.172  68.120  1.00  0.00    -0.124 C  
HETATM   19  O   UNL     1      -7.772  12.070  68.736  1.00  0.00    -0.118 OA 
HETATM   20  O   UNL     1      -5.857  13.193  67.441  1.00  0.00    -0.303 OA 
BRANCH  14  21
HETATM   21  C   UNL     1     -10.206  14.548  68.093  1.00  0.00    -0.230 C  
BRANCH  21  22
HETATM   22  O   UNL     1     -11.135  14.867  67.063  1.00  0.00    -0.323 OA 
BRANCH  22  23
HETATM   23  P   UNL     1     -11.823  13.667  66.266  1.00  0.00    -0.434 P  
HETATM   24  O   UNL     1     -12.369  12.538  67.073  1.00  0.00    -0.403 OA 
HETATM   25  O   UNL     1     -13.044  14.421  65.540  1.00  0.00    -0.553 OA 
BRANCH  23  26
HETATM   26  O   UNL     1     -10.882  13.301  65.050  1.00  0.00    -0.297 OA 
BRANCH  26  27
HETATM   27  P   UNL     1     -11.021  12.007  64.152  1.00  0.00    -0.439 P  
HETATM   28  O   UNL     1      -9.934  12.258  62.996  1.00  0.00    -0.320 OA 
HETATM   29  O   UNL     1     -12.348  11.722  63.535  1.00  0.00    -0.509 OA 
BRANCH  27  30
HETATM   30  O   UNL     1     -10.390  10.784  64.976  1.00  0.00    -0.302 OA 
BRANCH  30  31
HETATM   31  C   UNL     1      -9.163  10.935  65.681  1.00  0.00    -0.203 C  
BRANCH  31  32
HETATM   32  C   UNL     1      -8.154   9.827  65.391  1.00  0.00    -0.127 C  
HETATM   33  O   UNL     1      -8.530   8.593  66.033  1.00  0.00    -0.126 OA 
HETATM   34  C   UNL     1      -7.727   7.600  65.368  1.00  0.00    -0.104 C  
HETATM   35  H   UNL     1      -7.023  10.082  62.328  1.00  0.00     0.000 HD 
HETATM   36  C   UNL     1      -7.736   8.000  63.884  1.00  0.00    -0.138 C  
HETATM   37  C   UNL     1      -8.064   9.495  63.905  1.00  0.00    -0.152 C  
HETATM   38  H   UNL     1      -6.499   8.008  62.299  1.00  0.00     0.000 HD 
HETATM   39  O   UNL     1      -6.493   7.760  63.216  1.00  0.00    -0.065 OA 
HETATM   40  O   UNL     1      -7.080  10.289  63.253  1.00  0.00    -0.138 OA 
BRANCH  34  41
HETATM   41  N   UNL     1      -8.257   6.272  65.607  1.00  0.00    -0.136 NA 
HETATM   42  C   UNL     1      -8.488   5.281  64.696  1.00  0.00    -0.142 A  
HETATM   43  N   UNL     1      -8.934   4.180  65.270  1.00  0.00    -0.127 NA 
HETATM   44  C   UNL     1      -9.019   4.489  66.612  1.00  0.00    -0.114 A  
HETATM   45  C   UNL     1      -9.409   3.747  67.739  1.00  0.00    -0.189 A  
HETATM   46  N   UNL     1      -9.774   2.410  67.680  1.00  0.00    -0.342 NA 
HETATM   47  N   UNL     1      -9.432   4.366  68.943  1.00  0.00    -0.154 NA 
HETATM   48  H1  UNL     1     -10.057   1.871  68.498  1.00  0.00     0.000 HD 
HETATM   49  C   UNL     1      -9.034   5.655  69.011  1.00  0.00    -0.112 A  
HETATM   50  H2  UNL     1      -9.007   1.905  67.234  1.00  0.00     0.000 HD 
HETATM   51  N   UNL     1      -8.590   6.453  68.014  1.00  0.00    -0.117 NA 
HETATM   52  C   UNL     1      -8.627   5.799  66.838  1.00  0.00    -0.111 A  
ENDBRANCH  34  41
ENDBRANCH  31  32
ENDBRANCH  30  31
ENDBRANCH  27  30
ENDBRANCH  26  27
ENDBRANCH  23  26
ENDBRANCH  22  23
ENDBRANCH  21  22
ENDBRANCH  14  21
ENDBRANCH   8  12
ENDBRANCH   4   6
TORSDOF 11
ENDMDL
MODEL      154
REMARK 921   NORMALIZED FREE ENERGY PREDICTED BY IDOCK:   -5.56 KCAL/MOL
REMARK 922        TOTAL FREE ENERGY PREDICTED BY IDOCK:  -11.34 KCAL/MOL
REMARK 923 INTER-LIGAND FREE ENERGY PREDICTED BY IDOCK:   -9.09 KCAL/MOL
REMARK 924 INTRA-LIGAND FREE ENERGY PREDICTED BY IDOCK:   -2.25 KCAL/MOL
REMARK 927      BINDING AFFINITY PREDICTED BY RF-SCORE:    0.00 PKD
ROOT
HETATM    1  N   UNL     1      -7.264   9.495  68.172  1.00  0.00    -0.080 N  
HETATM    2  H1  UNL     1      -7.981   9.030  67.615  1.00  0.00     0.000 HD 
HETATM    3  H2  UNL     1      -6.281   9.265  68.022  1.00  0.00     0.000 HD 
HETATM    4  C   UNL     1      -7.600  10.412  69.106  1.00  0.00    -0.117 C  
HETATM    5  O   UNL     1      -6.734  10.973  69.778  1.00  0.00    -0.126 OA 
ENDROOT
BRANCH   4   6
HETATM    6  C   UNL     1      -9.045  10.687  69.279  1.00  0.00    -0.117 C  
HETATM    7  C   UNL     1      -9.552  11.702  68.555  1.00  0.00    -0.178 C  
HETATM    8  N   UNL     1     -10.900  12.050  68.553  1.00  0.00    -0.223 NA 
HETATM    9  C   UNL     1      -9.931   9.841  70.151  1.00  0.00    -0.315 C  
HETATM   10  C   UNL     1     -11.734  11.400  69.469  1.00  0.00    -0.348 C  
HETATM   11  C   UNL     1     -11.340  10.373  70.236  1.00  0.00    -0.406 C  
BRANCH   8  12
HETATM   12  C   UNL     1     -11.529  12.936  67.548  1.00  0.00    -0.335 C  
HETATM   13  O   UNL     1     -12.145  12.118  66.529  1.00  0.00    -0.627 OA 
HETATM   14  C   UNL     1     -11.158  11.882  65.500  1.00  0.00    -0.304 C  
HETATM   15  H   UNL     1     -10.845  15.577  65.686  1.00  0.00     0.000 HD 
HETATM   16  C   UNL     1     -10.139  13.016  65.583  1.00  0.00    -0.268 C  
HETATM   17  H   UNL     1      -9.464  14.453  64.404  1.00  0.00     0.000 HD 
HETATM   18  C   UNL     1     -10.634  13.885  66.735  1.00  0.00    -0.277 C  
HETATM   19  O   UNL     1     -10.098  13.747  64.352  1.00  0.00    -0.319 OA 
HETATM   20  O   UNL     1     -11.398  14.990  66.189  1.00  0.00    -0.339 OA 
BRANCH  14  21
HETATM   21  C   UNL     1     -10.508  10.502  65.688  1.00  0.00    -0.143 C  
BRANCH  21  22
HETATM   22  O   UNL     1      -9.905  10.050  64.482  1.00  0.00    -0.305 OA 
BRANCH  22  23
HETATM   23  P   UNL     1      -8.452   9.393  64.562  1.00  0.00    -0.192 P  
HETATM   24  O   UNL     1      -7.794   9.035  63.271  1.00  0.00    -0.122 OA 
HETATM   25  O   UNL     1      -7.605  10.566  65.265  1.00  0.00    -0.141 OA 
BRANCH  23  26
HETATM   26  O   UNL     1      -8.491   8.284  65.686  1.00  0.00    -0.142 OA 
BRANCH  26  27
HETATM   27  P   UNL     1      -7.367   7.199  65.932  1.00  0.00    -0.079 P  
HETATM   28  O   UNL     1      -6.019   8.074  65.907  1.00  0.00    -0.037 OA 
HETATM   29  O   UNL     1      -7.252   6.077  64.958  1.00  0.00    -0.062 OA 
BRANCH  27  30
HETATM   30  O   UNL     1      -7.469   6.745  67.467  1.00  0.00    -0.093 OA 
BRANCH  30  31
HETATM   31  C   UNL     1      -7.393   5.370  67.828  1.00  0.00    -0.073 C  
BRANCH  31  32
HETATM   32  C   UNL     1      -7.347   5.139  69.335  1.00  0.00    -0.057 C  
HETATM   33  O   UNL     1      -8.011   6.200  70.050  1.00  0.00    -0.106 OA 
HETATM   34  C   UNL     1      -8.212   5.656  71.368  1.00  0.00    -0.122 C  
HETATM   35  H   UNL     1      -7.635   1.949  70.016  1.00  0.00     0.000 HD 
HETATM   36  C   UNL     1      -8.620   4.191  71.143  1.00  0.00    -0.085 C  
HETATM   37  C   UNL     1      -8.067   3.862  69.754  1.00  0.00    -0.054 C  
HETATM   38  H   UNL     1      -8.349   2.385  71.985  1.00  0.00     0.000 HD 
HETATM   39  O   UNL     1      -8.098   3.291  72.124  1.00  0.00    -0.061 OA 
HETATM   40  O   UNL     1      -7.187   2.744  69.755  1.00  0.00    -0.043 OA 
BRANCH  34  41
HETATM   41  N   UNL     1      -9.205   6.423  72.091  1.00  0.00    -0.141 NA 
HETATM   42  C   UNL     1      -9.090   7.001  73.324  1.00  0.00    -0.136 A  
HETATM   43  N   UNL     1     -10.180   7.665  73.659  1.00  0.00    -0.282 NA 
HETATM   44  C   UNL     1     -11.047   7.480  72.601  1.00  0.00    -0.347 A  
HETATM   45  C   UNL     1     -12.351   7.936  72.346  1.00  0.00    -0.208 A  
HETATM   46  N   UNL     1     -13.041   8.784  73.201  1.00  0.00    -0.750 NA 
HETATM   47  N   UNL     1     -12.966   7.529  71.211  1.00  0.00    -0.312 NA 
HETATM   48  H1  UNL     1     -13.988   9.115  73.015  1.00  0.00     0.000 HD 
HETATM   49  C   UNL     1     -12.281   6.741  70.355  1.00  0.00    -0.120 A  
HETATM   50  H2  UNL     1     -12.455   9.606  73.352  1.00  0.00     0.000 HD 
HETATM   51  N   UNL     1     -11.013   6.282  70.463  1.00  0.00    -0.287 NA 
HETATM   52  C   UNL     1     -10.468   6.684  71.626  1.00  0.00    -0.207 A  
ENDBRANCH  34  41
ENDBRANCH  31  32
ENDBRANCH  30  31
ENDBRANCH  27  30
ENDBRANCH  26  27
ENDBRANCH  23  26
ENDBRANCH  22  23
ENDBRANCH  21  22
ENDBRANCH  14  21
ENDBRANCH   8  12
ENDBRANCH   4   6
TORSDOF 11
ENDMDL
MODEL      155
REMARK 921   NORMALIZED FREE ENERGY PREDICTED BY IDOCK:   -5.56 KCAL/MOL
REMARK 922        TOTAL FREE ENERGY PREDICTED BY IDOCK:  -11.34 KCAL/MOL
REMARK 923 INTER-LIGAND FREE ENERGY PREDICTED BY IDOCK:   -9.69 KCAL/MOL
REMARK 924 INTRA-LIGAND FREE ENERGY PREDICTED BY IDOCK:   -1.65 KCAL/MOL
REMARK 927      BINDING AFFINITY PREDICTED BY RF-SCORE:    0.00 PKD
ROOT
HETATM    1  N   UNL     1     -12.592   7.287  70.636  1.00  0.00    -0.600 N  
HETATM    2  H1  UNL     1     -12.133   6.533  70.124  1.00  0.00     0.000 HD 
HETATM    3  H2  UNL     1     -13.445   7.704  70.263  1.00  0.00     0.000 HD 
HETATM    4  C   UNL     1     -12.084   7.738  71.804  1.00  0.00    -0.298 C  
HETATM    5  O   UNL     1     -12.638   8.647  72.422  1.00  0.00    -0.383 OA 
ENDROOT
BRANCH   4   6
HETATM    6  C   UNL     1     -10.838   7.095  72.280  1.00  0.00    -0.264 C  
HETATM    7  C   UNL     1     -10.523   5.912  71.721  1.00  0.00    -0.227 C  
HETATM    8  N   UNL     1      -9.357   5.208  72.009  1.00  0.00    -0.136 NA 
HETATM    9  C   UNL     1      -9.920   7.748  73.277  1.00  0.00    -0.370 C  
HETATM   10  C   UNL     1      -8.552   5.693  73.047  1.00  0.00    -0.121 C  
HETATM   11  C   UNL     1      -8.766   6.861  73.671  1.00  0.00    -0.161 C  
BRANCH   8  12
HETATM   12  C   UNL     1      -8.840   4.086  71.194  1.00  0.00    -0.092 C  
HETATM   13  O   UNL     1      -7.503   4.412  70.753  1.00  0.00    -0.050 OA 
HETATM   14  C   UNL     1      -7.615   5.098  69.486  1.00  0.00    -0.065 C  
HETATM   15  H   UNL     1      -9.715   2.148  68.667  1.00  0.00     0.000 HD 
HETATM   16  C   UNL     1      -8.947   4.686  68.864  1.00  0.00    -0.108 C  
HETATM   17  H   UNL     1      -9.564   3.787  67.215  1.00  0.00     0.000 HD 
HETATM   18  C   UNL     1      -9.560   3.730  69.884  1.00  0.00    -0.184 C  
HETATM   19  O   UNL     1      -8.735   4.043  67.602  1.00  0.00    -0.098 OA 
HETATM   20  O   UNL     1      -9.271   2.369  69.478  1.00  0.00    -0.108 OA 
BRANCH  14  21
HETATM   21  C   UNL     1      -7.515   6.618  69.691  1.00  0.00    -0.096 C  
BRANCH  21  22
HETATM   22  O   UNL     1      -8.351   7.316  68.774  1.00  0.00    -0.127 OA 
BRANCH  22  23
HETATM   23  P   UNL     1      -7.707   7.839  67.410  1.00  0.00    -0.116 P  
HETATM   24  O   UNL     1      -6.810   6.900  66.676  1.00  0.00    -0.060 OA 
HETATM   25  O   UNL     1      -9.017   8.106  66.516  1.00  0.00    -0.141 OA 
BRANCH  23  26
HETATM   26  O   UNL     1      -7.169   9.302  67.667  1.00  0.00    -0.082 OA 
BRANCH  26  27
HETATM   27  P   UNL     1      -7.656  10.257  68.830  1.00  0.00    -0.108 P  
HETATM   28  O   UNL     1      -6.920  11.643  68.483  1.00  0.00    -0.072 OA 
HETATM   29  O   UNL     1      -7.344   9.866  70.234  1.00  0.00    -0.143 OA 
BRANCH  27  30
HETATM   30  O   UNL     1      -9.200  10.594  68.556  1.00  0.00    -0.154 OA 
BRANCH  30  31
HETATM   31  C   UNL     1      -9.573  11.593  67.613  1.00  0.00    -0.181 C  
BRANCH  31  32
HETATM   32  C   UNL     1      -9.913  12.936  68.252  1.00  0.00    -0.234 C  
HETATM   33  O   UNL     1      -9.038  13.979  67.779  1.00  0.00    -0.177 OA 
HETATM   34  C   UNL     1      -9.712  15.193  68.159  1.00  0.00    -0.217 C  
HETATM   35  H   UNL     1     -13.151  13.233  68.640  1.00  0.00     0.000 HD 
HETATM   36  C   UNL     1     -11.202  14.933  67.881  1.00  0.00    -0.315 C  
HETATM   37  C   UNL     1     -11.321  13.407  67.907  1.00  0.00    -0.289 C  
HETATM   38  H   UNL     1     -12.998  15.368  68.672  1.00  0.00     0.000 HD 
HETATM   39  O   UNL     1     -12.078  15.529  68.843  1.00  0.00    -0.311 OA 
HETATM   40  O   UNL     1     -12.274  12.940  68.855  1.00  0.00    -0.213 OA 
BRANCH  34  41
HETATM   41  N   UNL     1      -9.181  16.323  67.424  1.00  0.00    -0.210 NA 
HETATM   42  C   UNL     1      -8.370  16.307  66.324  1.00  0.00    -0.308 A  
HETATM   43  N   UNL     1      -8.115  17.524  65.884  1.00  0.00    -0.555 NA 
HETATM   44  C   UNL     1      -8.771  18.363  66.761  1.00  0.00    -0.277 A  
HETATM   45  C   UNL     1      -8.898  19.761  66.828  1.00  0.00    -0.347 A  
HETATM   46  N   UNL     1      -8.354  20.621  65.886  1.00  0.00    -0.282 NA 
HETATM   47  N   UNL     1      -9.585  20.296  67.865  1.00  0.00    -0.337 NA 
HETATM   48  H1  UNL     1      -8.447  21.635  65.935  1.00  0.00     0.000 HD 
HETATM   49  C   UNL     1     -10.154  19.461  68.760  1.00  0.00    -0.422 A  
HETATM   50  H2  UNL     1      -8.701  20.328  64.972  1.00  0.00     0.000 HD 
HETATM   51  N   UNL     1     -10.147  18.107  68.772  1.00  0.00    -0.386 NA 
HETATM   52  C   UNL     1      -9.419  17.634  67.744  1.00  0.00    -0.260 A  
ENDBRANCH  34  41
ENDBRANCH  31  32
ENDBRANCH  30  31
ENDBRANCH  27  30
ENDBRANCH  26  27
ENDBRANCH  23  26
ENDBRANCH  22  23
ENDBRANCH  21  22
ENDBRANCH  14  21
ENDBRANCH   8  12
ENDBRANCH   4   6
TORSDOF 11
ENDMDL
MODEL      156
REMARK 921   NORMALIZED FREE ENERGY PREDICTED BY IDOCK:   -5.56 KCAL/MOL
REMARK 922        TOTAL FREE ENERGY PREDICTED BY IDOCK:  -11.34 KCAL/MOL
REMARK 923 INTER-LIGAND FREE ENERGY PREDICTED BY IDOCK:   -9.28 KCAL/MOL
REMARK 924 INTRA-LIGAND FREE ENERGY PREDICTED BY IDOCK:   -2.06 KCAL/MOL
REMARK 927      BINDING AFFINITY PREDICTED BY RF-SCORE:    0.00 PKD
ROOT
HETATM    1  N   UNL     1      -9.648   9.711  64.311  1.00  0.00    -0.392 N  
HETATM    2  H1  UNL     1     -10.072   9.654  65.237  1.00  0.00     0.000 HD 
HETATM    3  H2  UNL     1      -9.102   8.925  63.957  1.00  0.00     0.000 HD 
HETATM    4  C   UNL     1      -9.800  10.816  63.549  1.00  0.00    -0.347 C  
HETATM    5  O   UNL     1      -9.288  10.885  62.431  1.00  0.00    -0.266 OA 
ENDROOT
BRANCH   4   6
HETATM    6  C   UNL     1     -10.593  11.923  64.131  1.00  0.00    -0.397 C  
HETATM    7  C   UNL     1     -10.297  12.267  65.399  1.00  0.00    -0.269 C  
HETATM    8  N   UNL     1     -10.904  13.325  66.072  1.00  0.00    -0.272 NA 
HETATM    9  C   UNL     1     -11.622  12.684  63.342  1.00  0.00    -0.536 C  
HETATM   10  C   UNL     1     -11.979  13.959  65.439  1.00  0.00    -0.381 C  
HETATM   11  C   UNL     1     -12.358  13.702  64.178  1.00  0.00    -0.385 C  
BRANCH   8  12
HETATM   12  C   UNL     1     -10.388  13.917  67.326  1.00  0.00    -0.257 C  
HETATM   13  O   UNL     1     -10.106  12.851  68.261  1.00  0.00    -0.233 OA 
HETATM   14  C   UNL     1     -11.307  12.616  69.030  1.00  0.00    -0.292 C  
HETATM   15  H   UNL     1     -11.094  16.291  69.510  1.00  0.00     0.000 HD 
HETATM   16  C   UNL     1     -12.132  13.899  68.986  1.00  0.00    -0.329 C  
HETATM   17  H   UNL     1     -12.845  15.214  70.281  1.00  0.00     0.000 HD 
HETATM   18  C   UNL     1     -11.301  14.853  68.133  1.00  0.00    -0.312 C  
HETATM   19  O   UNL     1     -12.331  14.415  70.308  1.00  0.00    -0.315 OA 
HETATM   20  O   UNL     1     -10.530  15.712  69.011  1.00  0.00    -0.209 OA 
BRANCH  14  21
HETATM   21  C   UNL     1     -12.077  11.412  68.464  1.00  0.00    -0.098 C  
BRANCH  21  22
HETATM   22  O   UNL     1     -11.313  10.217  68.572  1.00  0.00    -0.208 OA 
BRANCH  22  23
HETATM   23  P   UNL     1     -11.084   9.592  70.024  1.00  0.00    -0.223 P  
HETATM   24  O   UNL     1      -9.942  10.125  70.822  1.00  0.00     0.072 OA 
HETATM   25  O   UNL     1     -12.458   9.982  70.764  1.00  0.00    -0.306 OA 
BRANCH  23  26
HETATM   26  O   UNL     1     -11.206   8.022  69.892  1.00  0.00    -0.177 OA 
BRANCH  26  27
HETATM   27  P   UNL     1     -11.532   7.034  71.082  1.00  0.00    -0.331 P  
HETATM   28  O   UNL     1     -11.028   5.617  70.515  1.00  0.00    -0.273 OA 
HETATM   29  O   UNL     1     -12.950   6.916  71.526  1.00  0.00    -0.367 OA 
BRANCH  27  30
HETATM   30  O   UNL     1     -10.486   7.341  72.258  1.00  0.00    -0.204 OA 
BRANCH  30  31
HETATM   31  C   UNL     1      -9.440   6.425  72.563  1.00  0.00    -0.145 C  
BRANCH  31  32
HETATM   32  C   UNL     1      -8.052   6.946  72.206  1.00  0.00    -0.093 C  
HETATM   33  O   UNL     1      -7.836   6.931  70.782  1.00  0.00    -0.094 OA 
HETATM   34  C   UNL     1      -6.687   7.781  70.598  1.00  0.00    -0.038 C  
HETATM   35  H   UNL     1      -7.193   9.388  74.212  1.00  0.00     0.000 HD 
HETATM   36  C   UNL     1      -6.893   8.955  71.568  1.00  0.00    -0.075 C  
HETATM   37  C   UNL     1      -7.845   8.396  72.628  1.00  0.00    -0.085 C  
HETATM   38  H   UNL     1      -5.809  10.150  72.768  1.00  0.00     0.000 HD 
HETATM   39  O   UNL     1      -5.682   9.424  72.169  1.00  0.00    -0.147 OA 
HETATM   40  O   UNL     1      -7.322   8.485  73.949  1.00  0.00    -0.295 OA 
BRANCH  34  41
HETATM   41  N   UNL     1      -6.574   8.194  69.214  1.00  0.00    -0.035 NA 
HETATM   42  C   UNL     1      -6.297   7.419  68.123  1.00  0.00    -0.048 A  
HETATM   43  N   UNL     1      -6.315   8.119  67.006  1.00  0.00    -0.055 NA 
HETATM   44  C   UNL     1      -6.590   9.413  67.402  1.00  0.00    -0.064 A  
HETATM   45  C   UNL     1      -6.752  10.614  66.691  1.00  0.00    -0.106 A  
HETATM   46  N   UNL     1      -6.699  10.692  65.307  1.00  0.00    -0.329 NA 
HETATM   47  N   UNL     1      -6.971  11.752  67.391  1.00  0.00    -0.110 NA 
HETATM   48  H1  UNL     1      -6.817  11.564  64.792  1.00  0.00     0.000 HD 
HETATM   49  C   UNL     1      -7.068  11.673  68.735  1.00  0.00    -0.106 A  
HETATM   50  H2  UNL     1      -7.380  10.027  64.939  1.00  0.00     0.000 HD 
HETATM   51  N   UNL     1      -6.983  10.576  69.523  1.00  0.00    -0.098 NA 
HETATM   52  C   UNL     1      -6.727   9.484  68.779  1.00  0.00    -0.052 A  
ENDBRANCH  34  41
ENDBRANCH  31  32
ENDBRANCH  30  31
ENDBRANCH  27  30
ENDBRANCH  26  27
ENDBRANCH  23  26
ENDBRANCH  22  23
ENDBRANCH  21  22
ENDBRANCH  14  21
ENDBRANCH   8  12
ENDBRANCH   4   6
TORSDOF 11
ENDMDL
MODEL      157
REMARK 921   NORMALIZED FREE ENERGY PREDICTED BY IDOCK:   -5.54 KCAL/MOL
REMARK 922        TOTAL FREE ENERGY PREDICTED BY IDOCK:  -11.30 KCAL/MOL
REMARK 923 INTER-LIGAND FREE ENERGY PREDICTED BY IDOCK:   -9.96 KCAL/MOL
REMARK 924 INTRA-LIGAND FREE ENERGY PREDICTED BY IDOCK:   -1.34 KCAL/MOL
REMARK 927      BINDING AFFINITY PREDICTED BY RF-SCORE:    0.00 PKD
ROOT
HETATM    1  N   UNL     1      -9.021  11.003  69.539  1.00  0.00    -0.347 N  
HETATM    2  H1  UNL     1      -9.438  10.732  70.430  1.00  0.00     0.000 HD 
HETATM    3  H2  UNL     1      -9.561  11.559  68.877  1.00  0.00     0.000 HD 
HETATM    4  C   UNL     1      -7.759  10.632  69.227  1.00  0.00    -0.142 C  
HETATM    5  O   UNL     1      -7.255  10.959  68.152  1.00  0.00    -0.080 OA 
ENDROOT
BRANCH   4   6
HETATM    6  C   UNL     1      -7.038   9.814  70.229  1.00  0.00    -0.145 C  
HETATM    7  C   UNL     1      -7.450   8.540  70.368  1.00  0.00    -0.069 C  
HETATM    8  N   UNL     1      -6.840   7.622  71.219  1.00  0.00    -0.049 NA 
HETATM    9  C   UNL     1      -5.859  10.336  71.003  1.00  0.00    -0.044 C  
HETATM   10  C   UNL     1      -5.844   8.102  72.078  1.00  0.00    -0.039 C  
HETATM   11  C   UNL     1      -5.353   9.349  72.025  1.00  0.00    -0.076 C  
BRANCH   8  12
HETATM   12  C   UNL     1      -7.062   6.160  71.161  1.00  0.00    -0.074 C  
HETATM   13  O   UNL     1      -8.483   5.903  71.233  1.00  0.00    -0.126 OA 
HETATM   14  C   UNL     1      -8.831   5.760  72.629  1.00  0.00    -0.125 C  
HETATM   15  H   UNL     1      -6.002   3.357  72.549  1.00  0.00     0.000 HD 
HETATM   16  C   UNL     1      -7.563   5.346  73.371  1.00  0.00    -0.096 C  
HETATM   17  H   UNL     1      -6.956   3.819  74.471  1.00  0.00     0.000 HD 
HETATM   18  C   UNL     1      -6.494   5.279  72.285  1.00  0.00    -0.051 C  
HETATM   19  O   UNL     1      -7.745   4.076  74.009  1.00  0.00    -0.077 OA 
HETATM   20  O   UNL     1      -6.353   3.902  71.854  1.00  0.00    -0.014 OA 
BRANCH  14  21
HETATM   21  C   UNL     1      -9.419   7.072  73.170  1.00  0.00    -0.157 C  
BRANCH  21  22
HETATM   22  O   UNL     1      -9.670   7.996  72.118  1.00  0.00    -0.184 OA 
BRANCH  22  23
HETATM   23  P   UNL     1     -11.182   8.224  71.655  1.00  0.00    -0.315 P  
HETATM   24  O   UNL     1     -11.734   7.278  70.642  1.00  0.00    -0.303 OA 
HETATM   25  O   UNL     1     -11.977   8.020  73.038  1.00  0.00    -0.240 OA 
BRANCH  23  26
HETATM   26  O   UNL     1     -11.368   9.769  71.382  1.00  0.00    -0.369 OA 
BRANCH  26  27
HETATM   27  P   UNL     1     -12.756  10.485  71.133  1.00  0.00    -0.467 P  
HETATM   28  O   UNL     1     -13.777   9.590  71.992  1.00  0.00    -0.395 OA 
HETATM   29  O   UNL     1     -13.246  10.593  69.729  1.00  0.00    -0.009 OA 
BRANCH  27  30
HETATM   30  O   UNL     1     -12.729  11.871  71.940  1.00  0.00    -0.254 OA 
BRANCH  30  31
HETATM   31  C   UNL     1     -13.178  13.078  71.334  1.00  0.00    -0.192 C  
BRANCH  31  32
HETATM   32  C   UNL     1     -12.064  13.869  70.656  1.00  0.00    -0.347 C  
HETATM   33  O   UNL     1     -11.774  13.349  69.344  1.00  0.00    -0.288 OA 
HETATM   34  C   UNL     1     -11.014  14.399  68.716  1.00  0.00    -0.250 C  
HETATM   35  H   UNL     1     -12.295  17.049  71.406  1.00  0.00     0.000 HD 
HETATM   36  C   UNL     1     -11.699  15.706  69.146  1.00  0.00    -0.390 C  
HETATM   37  C   UNL     1     -12.437  15.331  70.433  1.00  0.00    -0.381 C  
HETATM   38  H   UNL     1     -11.209  17.591  69.644  1.00  0.00     0.000 HD 
HETATM   39  O   UNL     1     -10.786  16.784  69.378  1.00  0.00    -0.318 OA 
HETATM   40  O   UNL     1     -12.063  16.138  71.544  1.00  0.00    -0.450 OA 
BRANCH  34  41
HETATM   41  N   UNL     1     -10.980  14.215  67.279  1.00  0.00    -0.292 NA 
HETATM   42  C   UNL     1     -11.106  15.166  66.305  1.00  0.00    -0.309 A  
HETATM   43  N   UNL     1     -10.981  14.651  65.098  1.00  0.00    -0.361 NA 
HETATM   44  C   UNL     1     -10.793  13.299  65.305  1.00  0.00    -0.301 A  
HETATM   45  C   UNL     1     -10.588  12.220  64.431  1.00  0.00    -0.327 A  
HETATM   46  N   UNL     1     -10.484  12.364  63.055  1.00  0.00    -0.522 NA 
HETATM   47  N   UNL     1     -10.486  10.975  64.955  1.00  0.00    -0.291 NA 
HETATM   48  H1  UNL     1     -10.334  11.579  62.420  1.00  0.00     0.000 HD 
HETATM   49  C   UNL     1     -10.541  10.836  66.297  1.00  0.00    -0.192 A  
HETATM   50  H2  UNL     1      -9.745  13.045  62.876  1.00  0.00     0.000 HD 
HETATM   51  N   UNL     1     -10.682  11.797  67.239  1.00  0.00    -0.227 NA 
HETATM   52  C   UNL     1     -10.818  13.004  66.659  1.00  0.00    -0.275 A  
ENDBRANCH  34  41
ENDBRANCH  31  32
ENDBRANCH  30  31
ENDBRANCH  27  30
ENDBRANCH  26  27
ENDBRANCH  23  26
ENDBRANCH  22  23
ENDBRANCH  21  22
ENDBRANCH  14  21
ENDBRANCH   8  12
ENDBRANCH   4   6
TORSDOF 11
ENDMDL
MODEL      158
REMARK 921   NORMALIZED FREE ENERGY PREDICTED BY IDOCK:   -5.54 KCAL/MOL
REMARK 922        TOTAL FREE ENERGY PREDICTED BY IDOCK:  -11.30 KCAL/MOL
REMARK 923 INTER-LIGAND FREE ENERGY PREDICTED BY IDOCK:  -10.84 KCAL/MOL
REMARK 924 INTRA-LIGAND FREE ENERGY PREDICTED BY IDOCK:   -0.46 KCAL/MOL
REMARK 927      BINDING AFFINITY PREDICTED BY RF-SCORE:    0.00 PKD
ROOT
HETATM    1  N   UNL     1     -14.175  14.863  71.112  1.00  0.00    -0.639 N  
HETATM    2  H1  UNL     1     -14.599  14.525  70.247  1.00  0.00     0.000 HD 
HETATM    3  H2  UNL     1     -14.544  15.702  71.559  1.00  0.00     0.000 HD 
HETATM    4  C   UNL     1     -13.133  14.210  71.672  1.00  0.00    -0.351 C  
HETATM    5  O   UNL     1     -12.622  14.618  72.715  1.00  0.00    -0.355 OA 
ENDROOT
BRANCH   4   6
HETATM    6  C   UNL     1     -12.642  13.008  70.962  1.00  0.00    -0.386 C  
HETATM    7  C   UNL     1     -12.606  11.866  71.673  1.00  0.00    -0.131 C  
HETATM    8  N   UNL     1     -12.230  10.635  71.140  1.00  0.00    -0.369 NA 
HETATM    9  C   UNL     1     -12.272  13.023  69.504  1.00  0.00    -0.198 C  
HETATM   10  C   UNL     1     -11.724  10.627  69.835  1.00  0.00    -0.317 C  
HETATM   11  C   UNL     1     -11.715  11.702  69.033  1.00  0.00    -0.388 C  
BRANCH   8  12
HETATM   12  C   UNL     1     -12.480   9.333  71.796  1.00  0.00    -0.381 C  
HETATM   13  O   UNL     1     -11.243   8.859  72.374  1.00  0.00    -0.286 OA 
HETATM   14  C   UNL     1     -10.567   8.067  71.371  1.00  0.00    -0.216 C  
HETATM   15  H   UNL     1     -13.881   6.401  71.206  1.00  0.00     0.000 HD 
HETATM   16  C   UNL     1     -11.631   7.565  70.398  1.00  0.00    -0.149 C  
HETATM   17  H   UNL     1     -12.323   5.821  69.773  1.00  0.00     0.000 HD 
HETATM   18  C   UNL     1     -12.937   8.145  70.935  1.00  0.00     0.192 C  
HETATM   19  O   UNL     1     -11.661   6.133  70.379  1.00  0.00    -0.343 OA 
HETATM   20  O   UNL     1     -13.599   7.136  71.739  1.00  0.00    -0.354 OA 
BRANCH  14  21
HETATM   21  C   UNL     1      -9.486   8.902  70.668  1.00  0.00    -0.214 C  
BRANCH  21  22
HETATM   22  O   UNL     1      -8.481   8.070  70.103  1.00  0.00    -0.124 OA 
BRANCH  22  23
HETATM   23  P   UNL     1      -8.399   7.955  68.512  1.00  0.00    -0.128 P  
HETATM   24  O   UNL     1      -7.664   6.784  67.951  1.00  0.00    -0.107 OA 
HETATM   25  O   UNL     1      -9.952   7.828  68.117  1.00  0.00    -0.165 OA 
BRANCH  23  26
HETATM   26  O   UNL     1      -8.023   9.383  67.950  1.00  0.00    -0.092 OA 
BRANCH  26  27
HETATM   27  P   UNL     1      -6.555   9.962  67.850  1.00  0.00    -0.064 P  
HETATM   28  O   UNL     1      -6.050   9.406  66.429  1.00  0.00    -0.058 OA 
HETATM   29  O   UNL     1      -5.578   9.582  68.910  1.00  0.00    -0.037 OA 
BRANCH  27  30
HETATM   30  O   UNL     1      -6.681  11.540  67.591  1.00  0.00    -0.068 OA 
BRANCH  30  31
HETATM   31  C   UNL     1      -5.734  12.448  68.144  1.00  0.00    -0.063 C  
BRANCH  31  32
HETATM   32  C   UNL     1      -6.208  13.899  68.138  1.00  0.00    -0.128 C  
HETATM   33  O   UNL     1      -7.056  14.169  67.005  1.00  0.00    -0.029 OA 
HETATM   34  C   UNL     1      -7.703  15.410  67.346  1.00  0.00    -0.196 C  
HETATM   35  H   UNL     1      -6.769  14.935  71.194  1.00  0.00     0.000 HD 
HETATM   36  C   UNL     1      -8.037  15.293  68.842  1.00  0.00    -0.180 C  
HETATM   37  C   UNL     1      -7.051  14.244  69.361  1.00  0.00    -0.086 C  
HETATM   38  H   UNL     1      -8.103  16.451  70.484  1.00  0.00     0.000 HD 
HETATM   39  O   UNL     1      -7.897  16.523  69.560  1.00  0.00    -0.107 OA 
HETATM   40  O   UNL     1      -6.244  14.720  70.432  1.00  0.00    -0.166 OA 
BRANCH  34  41
HETATM   41  N   UNL     1      -8.870  15.623  66.513  1.00  0.00    -0.285 NA 
HETATM   42  C   UNL     1      -9.388  16.809  66.077  1.00  0.00    -0.210 A  
HETATM   43  N   UNL     1     -10.435  16.630  65.295  1.00  0.00    -0.652 NA 
HETATM   44  C   UNL     1     -10.615  15.263  65.251  1.00  0.00    -0.417 A  
HETATM   45  C   UNL     1     -11.543  14.444  64.586  1.00  0.00    -0.409 A  
HETATM   46  N   UNL     1     -12.517  14.938  63.731  1.00  0.00    -1.062 NA 
HETATM   47  N   UNL     1     -11.485  13.107  64.790  1.00  0.00    -0.312 NA 
HETATM   48  H1  UNL     1     -13.191  14.343  63.249  1.00  0.00     0.000 HD 
HETATM   49  C   UNL     1     -10.510  12.618  65.586  1.00  0.00    -0.275 A  
HETATM   50  H2  UNL     1     -12.044  15.498  63.022  1.00  0.00     0.000 HD 
HETATM   51  N   UNL     1      -9.533  13.295  66.234  1.00  0.00    -0.228 NA 
HETATM   52  C   UNL     1      -9.665  14.619  66.027  1.00  0.00    -0.312 A  
ENDBRANCH  34  41
ENDBRANCH  31  32
ENDBRANCH  30  31
ENDBRANCH  27  30
ENDBRANCH  26  27
ENDBRANCH  23  26
ENDBRANCH  22  23
ENDBRANCH  21  22
ENDBRANCH  14  21
ENDBRANCH   8  12
ENDBRANCH   4   6
TORSDOF 11
ENDMDL
MODEL      159
REMARK 921   NORMALIZED FREE ENERGY PREDICTED BY IDOCK:   -5.52 KCAL/MOL
REMARK 922        TOTAL FREE ENERGY PREDICTED BY IDOCK:  -11.27 KCAL/MOL
REMARK 923 INTER-LIGAND FREE ENERGY PREDICTED BY IDOCK:   -8.97 KCAL/MOL
REMARK 924 INTRA-LIGAND FREE ENERGY PREDICTED BY IDOCK:   -2.29 KCAL/MOL
REMARK 927      BINDING AFFINITY PREDICTED BY RF-SCORE:    0.00 PKD
ROOT
HETATM    1  N   UNL     1     -10.488  18.285  65.880  1.00  0.00    -0.390 N  
HETATM    2  H1  UNL     1     -11.505  18.285  65.799  1.00  0.00     0.000 HD 
HETATM    3  H2  UNL     1      -9.991  19.170  65.982  1.00  0.00     0.000 HD 
HETATM    4  C   UNL     1      -9.792  17.127  65.855  1.00  0.00    -0.155 C  
HETATM    5  O   UNL     1      -8.565  17.128  65.952  1.00  0.00    -0.522 OA 
ENDROOT
BRANCH   4   6
HETATM    6  C   UNL     1     -10.577  15.883  65.691  1.00  0.00    -0.393 C  
HETATM    7  C   UNL     1     -10.470  14.973  66.677  1.00  0.00    -0.284 C  
HETATM    8  N   UNL     1     -11.188  13.780  66.709  1.00  0.00    -0.309 NA 
HETATM    9  C   UNL     1     -11.510  15.660  64.532  1.00  0.00    -0.304 C  
HETATM   10  C   UNL     1     -11.943  13.454  65.577  1.00  0.00    -0.398 C  
HETATM   11  C   UNL     1     -12.125  14.283  64.539  1.00  0.00    -0.499 C  
BRANCH   8  12
HETATM   12  C   UNL     1     -11.329  12.926  67.909  1.00  0.00    -0.294 C  
HETATM   13  O   UNL     1     -10.018  12.703  68.476  1.00  0.00    -0.219 OA 
HETATM   14  C   UNL     1      -9.473  11.513  67.864  1.00  0.00    -0.178 C  
HETATM   15  H   UNL     1     -12.755  10.114  68.889  1.00  0.00     0.000 HD 
HETATM   16  C   UNL     1     -10.651  10.680  67.366  1.00  0.00    -0.256 C  
HETATM   17  H   UNL     1     -11.396   8.877  67.689  1.00  0.00     0.000 HD 
HETATM   18  C   UNL     1     -11.880  11.501  67.743  1.00  0.00    -0.154 C  
HETATM   19  O   UNL     1     -10.662   9.395  68.000  1.00  0.00    -0.234 OA 
HETATM   20  O   UNL     1     -12.414  10.995  68.992  1.00  0.00    -0.449 OA 
BRANCH  14  21
HETATM   21  C   UNL     1      -8.507  11.890  66.729  1.00  0.00    -0.167 C  
BRANCH  21  22
HETATM   22  O   UNL     1      -8.590  10.962  65.654  1.00  0.00    -0.178 OA 
BRANCH  22  23
HETATM   23  P   UNL     1      -7.352   9.988  65.397  1.00  0.00    -0.146 P  
HETATM   24  O   UNL     1      -6.445  10.324  64.261  1.00  0.00    -0.130 OA 
HETATM   25  O   UNL     1      -6.532  10.136  66.773  1.00  0.00    -0.068 OA 
BRANCH  23  26
HETATM   26  O   UNL     1      -7.887   8.503  65.482  1.00  0.00    -0.095 OA 
BRANCH  26  27
HETATM   27  P   UNL     1      -7.546   7.355  64.449  1.00  0.00    -0.124 P  
HETATM   28  O   UNL     1      -6.100   6.855  64.939  1.00  0.00    -0.035 OA 
HETATM   29  O   UNL     1      -7.488   7.709  63.002  1.00  0.00    -0.093 OA 
BRANCH  27  30
HETATM   30  O   UNL     1      -8.492   6.106  64.795  1.00  0.00    -0.108 OA 
BRANCH  30  31
HETATM   31  C   UNL     1      -7.954   4.794  64.918  1.00  0.00    -0.098 C  
BRANCH  31  32
HETATM   32  C   UNL     1      -7.990   4.253  66.344  1.00  0.00    -0.098 C  
HETATM   33  O   UNL     1      -8.322   5.288  67.290  1.00  0.00    -0.107 OA 
HETATM   34  C   UNL     1      -8.685   4.564  68.481  1.00  0.00    -0.099 C  
HETATM   35  H   UNL     1      -9.205   1.212  66.385  1.00  0.00     0.000 HD 
HETATM   36  C   UNL     1      -9.502   3.359  67.988  1.00  0.00    -0.156 C  
HETATM   37  C   UNL     1      -9.057   3.180  66.534  1.00  0.00    -0.158 C  
HETATM   38  H   UNL     1      -9.779   1.418  68.436  1.00  0.00     0.000 HD 
HETATM   39  O   UNL     1      -9.274   2.164  68.740  1.00  0.00    -0.131 OA 
HETATM   40  O   UNL     1      -8.541   1.881  66.266  1.00  0.00    -0.101 OA 
BRANCH  34  41
HETATM   41  N   UNL     1      -9.418   5.418  69.394  1.00  0.00    -0.126 NA 
HETATM   42  C   UNL     1     -10.585   5.144  70.050  1.00  0.00    -0.149 A  
HETATM   43  N   UNL     1     -10.948   6.136  70.840  1.00  0.00    -0.283 NA 
HETATM   44  C   UNL     1      -9.982   7.105  70.661  1.00  0.00    -0.190 A  
HETATM   45  C   UNL     1      -9.794   8.379  71.221  1.00  0.00    -0.198 A  
HETATM   46  N   UNL     1     -10.626   8.913  72.194  1.00  0.00    -0.321 NA 
HETATM   47  N   UNL     1      -8.749   9.125  70.791  1.00  0.00    -0.224 NA 
HETATM   48  H1  UNL     1     -10.489   9.838  72.601  1.00  0.00     0.000 HD 
HETATM   49  C   UNL     1      -7.911   8.592  69.876  1.00  0.00    -0.096 A  
HETATM   50  H2  UNL     1     -10.661   8.244  72.965  1.00  0.00     0.000 HD 
HETATM   51  N   UNL     1      -7.956   7.365  69.306  1.00  0.00    -0.116 NA 
HETATM   52  C   UNL     1      -9.035   6.687  69.741  1.00  0.00    -0.143 A  
ENDBRANCH  34  41
ENDBRANCH  31  32
ENDBRANCH  30  31
ENDBRANCH  27  30
ENDBRANCH  26  27
ENDBRANCH  23  26
ENDBRANCH  22  23
ENDBRANCH  21  22
ENDBRANCH  14  21
ENDBRANCH   8  12
ENDBRANCH   4   6
TORSDOF 11
ENDMDL
MODEL      160
REMARK 921   NORMALIZED FREE ENERGY PREDICTED BY IDOCK:   -5.50 KCAL/MOL
REMARK 922        TOTAL FREE ENERGY PREDICTED BY IDOCK:  -11.24 KCAL/MOL
REMARK 923 INTER-LIGAND FREE ENERGY PREDICTED BY IDOCK:   -9.86 KCAL/MOL
REMARK 924 INTRA-LIGAND FREE ENERGY PREDICTED BY IDOCK:   -1.38 KCAL/MOL
REMARK 927      BINDING AFFINITY PREDICTED BY RF-SCORE:    0.00 PKD
ROOT
HETATM    1  N   UNL     1     -12.004  15.860  69.752  1.00  0.00    -0.308 N  
HETATM    2  H1  UNL     1     -12.170  15.972  68.752  1.00  0.00     0.000 HD 
HETATM    3  H2  UNL     1     -11.978  16.683  70.355  1.00  0.00     0.000 HD 
HETATM    4  C   UNL     1     -11.817  14.634  70.289  1.00  0.00    -0.303 C  
HETATM    5  O   UNL     1     -11.617  14.498  71.495  1.00  0.00    -0.236 OA 
ENDROOT
BRANCH   4   6
HETATM    6  C   UNL     1     -11.854  13.486  69.353  1.00  0.00    -0.389 C  
HETATM    7  C   UNL     1     -12.070  13.777  68.057  1.00  0.00    -0.280 C  
HETATM    8  N   UNL     1     -12.072  12.824  67.042  1.00  0.00    -0.452 NA 
HETATM    9  C   UNL     1     -11.590  12.073  69.795  1.00  0.00    -0.348 C  
HETATM   10  C   UNL     1     -11.993  11.479  67.422  1.00  0.00     0.158 C  
HETATM   11  C   UNL     1     -11.773  11.073  68.681  1.00  0.00    -0.367 C  
BRANCH   8  12
HETATM   12  C   UNL     1     -11.991  13.145  65.600  1.00  0.00    -0.415 C  
HETATM   13  O   UNL     1     -10.613  13.038  65.177  1.00  0.00    -0.294 OA 
HETATM   14  C   UNL     1      -9.998  14.333  65.358  1.00  0.00    -0.303 C  
HETATM   15  H   UNL     1     -12.975  15.435  63.433  1.00  0.00     0.000 HD 
HETATM   16  C   UNL     1     -11.116  15.373  65.333  1.00  0.00    -0.326 C  
HETATM   17  H   UNL     1     -11.610  16.949  64.245  1.00  0.00     0.000 HD 
HETATM   18  C   UNL     1     -12.388  14.554  65.132  1.00  0.00    -0.323 C  
HETATM   19  O   UNL     1     -10.914  16.302  64.261  1.00  0.00    -0.707 OA 
HETATM   20  O   UNL     1     -12.730  14.564  63.723  1.00  0.00    -0.780 OA 
BRANCH  14  21
HETATM   21  C   UNL     1      -9.202  14.369  66.672  1.00  0.00    -0.261 C  
BRANCH  21  22
HETATM   22  O   UNL     1      -8.721  13.076  67.017  1.00  0.00    -0.210 OA 
BRANCH  22  23
HETATM   23  P   UNL     1      -7.389  12.971  67.891  1.00  0.00    -0.166 P  
HETATM   24  O   UNL     1      -6.855  14.237  68.473  1.00  0.00    -0.087 OA 
HETATM   25  O   UNL     1      -7.865  12.012  69.092  1.00  0.00     0.066 OA 
BRANCH  23  26
HETATM   26  O   UNL     1      -6.373  12.050  67.105  1.00  0.00    -0.138 OA 
BRANCH  26  27
HETATM   27  P   UNL     1      -6.731  10.655  66.453  1.00  0.00    -0.135 P  
HETATM   28  O   UNL     1      -5.501  10.407  65.449  1.00  0.00    -0.082 OA 
HETATM   29  O   UNL     1      -8.016  10.539  65.706  1.00  0.00    -0.151 OA 
BRANCH  27  30
HETATM   30  O   UNL     1      -6.507   9.531  67.577  1.00  0.00    -0.061 OA 
BRANCH  30  31
HETATM   31  C   UNL     1      -5.874   8.297  67.258  1.00  0.00    -0.043 C  
BRANCH  31  32
HETATM   32  C   UNL     1      -6.739   7.076  67.554  1.00  0.00    -0.068 C  
HETATM   33  O   UNL     1      -6.857   6.846  68.971  1.00  0.00    -0.063 OA 
HETATM   34  C   UNL     1      -7.971   5.941  69.083  1.00  0.00    -0.099 C  
HETATM   35  H   UNL     1      -9.203   6.871  65.406  1.00  0.00     0.000 HD 
HETATM   36  C   UNL     1      -9.004   6.442  68.060  1.00  0.00    -0.115 C  
HETATM   37  C   UNL     1      -8.170   7.239  67.054  1.00  0.00    -0.117 C  
HETATM   38  H   UNL     1     -10.360   5.700  66.774  1.00  0.00     0.000 HD 
HETATM   39  O   UNL     1      -9.722   5.391  67.407  1.00  0.00    -0.126 OA 
HETATM   40  O   UNL     1      -8.312   6.769  65.718  1.00  0.00    -0.132 OA 
BRANCH  34  41
HETATM   41  N   UNL     1      -8.476   5.917  70.441  1.00  0.00    -0.129 NA 
HETATM   42  C   UNL     1      -8.231   4.989  71.414  1.00  0.00    -0.113 A  
HETATM   43  N   UNL     1      -8.819   5.305  72.552  1.00  0.00    -0.127 NA 
HETATM   44  C   UNL     1      -9.497   6.477  72.288  1.00  0.00    -0.143 A  
HETATM   45  C   UNL     1     -10.295   7.317  73.083  1.00  0.00    -0.313 A  
HETATM   46  N   UNL     1     -10.522   7.096  74.433  1.00  0.00    -0.467 NA 
HETATM   47  N   UNL     1     -10.875   8.394  72.502  1.00  0.00    -0.342 NA 
HETATM   48  H1  UNL     1     -11.102   7.706  75.010  1.00  0.00     0.000 HD 
HETATM   49  C   UNL     1     -10.621   8.637  71.198  1.00  0.00    -0.228 A  
HETATM   50  H2  UNL     1      -9.610   7.026  74.887  1.00  0.00     0.000 HD 
HETATM   51  N   UNL     1      -9.832   7.938  70.349  1.00  0.00    -0.183 NA 
HETATM   52  C   UNL     1      -9.317   6.860  70.969  1.00  0.00    -0.156 A  
ENDBRANCH  34  41
ENDBRANCH  31  32
ENDBRANCH  30  31
ENDBRANCH  27  30
ENDBRANCH  26  27
ENDBRANCH  23  26
ENDBRANCH  22  23
ENDBRANCH  21  22
ENDBRANCH  14  21
ENDBRANCH   8  12
ENDBRANCH   4   6
TORSDOF 11
ENDMDL
MODEL      161
REMARK 921   NORMALIZED FREE ENERGY PREDICTED BY IDOCK:   -5.48 KCAL/MOL
REMARK 922        TOTAL FREE ENERGY PREDICTED BY IDOCK:  -11.21 KCAL/MOL
REMARK 923 INTER-LIGAND FREE ENERGY PREDICTED BY IDOCK:  -10.08 KCAL/MOL
REMARK 924 INTRA-LIGAND FREE ENERGY PREDICTED BY IDOCK:   -1.13 KCAL/MOL
REMARK 927      BINDING AFFINITY PREDICTED BY RF-SCORE:    0.00 PKD
ROOT
HETATM    1  N   UNL     1      -6.910   2.552  73.386  1.00  0.00    -0.022 N  
HETATM    2  H1  UNL     1      -6.104   3.175  73.447  1.00  0.00     0.000 HD 
HETATM    3  H2  UNL     1      -6.773   1.543  73.446  1.00  0.00     0.000 HD 
HETATM    4  C   UNL     1      -8.156   3.049  73.227  1.00  0.00    -0.072 C  
HETATM    5  O   UNL     1      -9.128   2.297  73.154  1.00  0.00    -0.072 OA 
ENDROOT
BRANCH   4   6
HETATM    6  C   UNL     1      -8.279   4.521  73.134  1.00  0.00    -0.099 C  
HETATM    7  C   UNL     1      -9.489   5.001  72.792  1.00  0.00    -0.139 C  
HETATM    8  N   UNL     1      -9.790   6.358  72.721  1.00  0.00    -0.169 NA 
HETATM    9  C   UNL     1      -7.146   5.451  73.473  1.00  0.00    -0.086 C  
HETATM   10  C   UNL     1      -8.730   7.261  72.869  1.00  0.00    -0.124 C  
HETATM   11  C   UNL     1      -7.486   6.898  73.213  1.00  0.00    -0.078 C  
BRANCH   8  12
HETATM   12  C   UNL     1     -11.164   6.904  72.661  1.00  0.00    -0.260 C  
HETATM   13  O   UNL     1     -11.813   6.398  71.473  1.00  0.00    -0.315 OA 
HETATM   14  C   UNL     1     -11.546   7.329  70.399  1.00  0.00    -0.219 C  
HETATM   15  H   UNL     1     -12.789   9.769  72.906  1.00  0.00     0.000 HD 
HETATM   16  C   UNL     1     -11.241   8.681  71.038  1.00  0.00    -0.271 C  
HETATM   17  H   UNL     1     -11.993  10.510  71.000  1.00  0.00     0.000 HD 
HETATM   18  C   UNL     1     -11.353   8.424  72.538  1.00  0.00    -0.346 C  
HETATM   19  O   UNL     1     -12.183   9.668  70.602  1.00  0.00    -0.252 OA 
HETATM   20  O   UNL     1     -12.672   8.828  72.983  1.00  0.00    -0.249 OA 
BRANCH  14  21
HETATM   21  C   UNL     1     -10.385   6.823  69.529  1.00  0.00    -0.202 C  
BRANCH  21  22
HETATM   22  O   UNL     1      -9.943   7.829  68.625  1.00  0.00    -0.171 OA 
BRANCH  22  23
HETATM   23  P   UNL     1      -8.792   7.459  67.584  1.00  0.00    -0.126 P  
HETATM   24  O   UNL     1      -8.724   6.043  67.117  1.00  0.00    -0.111 OA 
HETATM   25  O   UNL     1      -9.172   8.397  66.334  1.00  0.00    -0.174 OA 
BRANCH  23  26
HETATM   26  O   UNL     1      -7.451   8.115  68.102  1.00  0.00    -0.093 OA 
BRANCH  26  27
HETATM   27  P   UNL     1      -7.066   9.641  67.944  1.00  0.00    -0.081 P  
HETATM   28  O   UNL     1      -6.637   9.740  66.398  1.00  0.00    -0.069 OA 
HETATM   29  O   UNL     1      -5.972  10.180  68.800  1.00  0.00    -0.041 OA 
BRANCH  27  30
HETATM   30  O   UNL     1      -8.430  10.484  67.990  1.00  0.00    -0.117 OA 
BRANCH  30  31
HETATM   31  C   UNL     1      -8.413  11.885  68.243  1.00  0.00    -0.161 C  
BRANCH  31  32
HETATM   32  C   UNL     1      -9.756  12.564  67.991  1.00  0.00    -0.215 C  
HETATM   33  O   UNL     1      -9.593  13.974  67.745  1.00  0.00    -0.206 OA 
HETATM   34  C   UNL     1     -10.850  14.371  67.164  1.00  0.00    -0.292 C  
HETATM   35  H   UNL     1     -11.744  10.581  66.305  1.00  0.00     0.000 HD 
HETATM   36  C   UNL     1     -11.234  13.226  66.212  1.00  0.00    -0.299 C  
HETATM   37  C   UNL     1     -10.462  12.021  66.753  1.00  0.00    -0.214 C  
HETATM   38  H   UNL     1     -12.877  12.249  65.588  1.00  0.00     0.000 HD 
HETATM   39  O   UNL     1     -12.639  12.957  66.176  1.00  0.00    -0.429 OA 
HETATM   40  O   UNL     1     -11.304  10.920  67.075  1.00  0.00    -0.364 OA 
BRANCH  34  41
HETATM   41  N   UNL     1     -10.722  15.652  66.498  1.00  0.00    -0.307 NA 
HETATM   42  C   UNL     1     -10.790  15.915  65.159  1.00  0.00    -0.421 A  
HETATM   43  N   UNL     1     -10.676  17.204  64.906  1.00  0.00    -0.671 NA 
HETATM   44  C   UNL     1     -10.499  17.794  66.141  1.00  0.00    -0.301 A  
HETATM   45  C   UNL     1     -10.332  19.129  66.545  1.00  0.00    -0.442 A  
HETATM   46  N   UNL     1     -10.366  20.201  65.664  1.00  0.00    -0.431 NA 
HETATM   47  N   UNL     1     -10.126  19.385  67.858  1.00  0.00    -0.371 NA 
HETATM   48  H1  UNL     1     -10.246  21.170  65.958  1.00  0.00     0.000 HD 
HETATM   49  C   UNL     1     -10.137  18.349  68.725  1.00  0.00    -0.363 A  
HETATM   50  H2  UNL     1     -11.248  20.146  65.153  1.00  0.00     0.000 HD 
HETATM   51  N   UNL     1     -10.338  17.036  68.466  1.00  0.00    -0.336 NA 
HETATM   52  C   UNL     1     -10.497  16.839  67.144  1.00  0.00    -0.299 A  
ENDBRANCH  34  41
ENDBRANCH  31  32
ENDBRANCH  30  31
ENDBRANCH  27  30
ENDBRANCH  26  27
ENDBRANCH  23  26
ENDBRANCH  22  23
ENDBRANCH  21  22
ENDBRANCH  14  21
ENDBRANCH   8  12
ENDBRANCH   4   6
TORSDOF 11
ENDMDL
MODEL      162
REMARK 921   NORMALIZED FREE ENERGY PREDICTED BY IDOCK:   -5.48 KCAL/MOL
REMARK 922        TOTAL FREE ENERGY PREDICTED BY IDOCK:  -11.21 KCAL/MOL
REMARK 923 INTER-LIGAND FREE ENERGY PREDICTED BY IDOCK:  -10.11 KCAL/MOL
REMARK 924 INTRA-LIGAND FREE ENERGY PREDICTED BY IDOCK:   -1.10 KCAL/MOL
REMARK 927      BINDING AFFINITY PREDICTED BY RF-SCORE:    0.00 PKD
ROOT
HETATM    1  N   UNL     1     -11.688   6.977  72.699  1.00  0.00    -0.490 N  
HETATM    2  H1  UNL     1     -11.721   7.518  71.834  1.00  0.00     0.000 HD 
HETATM    3  H2  UNL     1     -12.221   7.291  73.510  1.00  0.00     0.000 HD 
HETATM    4  C   UNL     1     -10.947   5.850  72.781  1.00  0.00    -0.265 C  
HETATM    5  O   UNL     1     -10.908   5.198  73.824  1.00  0.00    -0.281 OA 
ENDROOT
BRANCH   4   6
HETATM    6  C   UNL     1     -10.189   5.462  71.570  1.00  0.00    -0.280 C  
HETATM    7  C   UNL     1      -9.623   6.464  70.872  1.00  0.00    -0.175 C  
HETATM    8  N   UNL     1      -8.827   6.267  69.747  1.00  0.00    -0.139 NA 
HETATM    9  C   UNL     1      -9.986   4.027  71.167  1.00  0.00    -0.197 C  
HETATM   10  C   UNL     1      -8.741   4.965  69.239  1.00  0.00    -0.087 C  
HETATM   11  C   UNL     1      -9.260   3.891  69.852  1.00  0.00    -0.214 C  
BRANCH   8  12
HETATM   12  C   UNL     1      -7.949   7.302  69.158  1.00  0.00    -0.119 C  
HETATM   13  O   UNL     1      -8.568   8.595  69.341  1.00  0.00    -0.124 OA 
HETATM   14  C   UNL     1      -9.404   8.847  68.189  1.00  0.00    -0.142 C  
HETATM   15  H   UNL     1      -6.283   7.963  66.384  1.00  0.00     0.000 HD 
HETATM   16  C   UNL     1      -8.859   8.001  67.041  1.00  0.00    -0.133 C  
HETATM   17  H   UNL     1      -8.119   8.310  65.232  1.00  0.00     0.000 HD 
HETATM   18  C   UNL     1      -7.669   7.263  67.647  1.00  0.00    -0.112 C  
HETATM   19  O   UNL     1      -8.458   8.836  65.947  1.00  0.00    -0.127 OA 
HETATM   20  O   UNL     1      -6.456   7.986  67.318  1.00  0.00    -0.054 OA 
BRANCH  14  21
HETATM   21  C   UNL     1     -10.870   8.514  68.509  1.00  0.00     0.071 C  
BRANCH  21  22
HETATM   22  O   UNL     1     -11.140   8.669  69.897  1.00  0.00    -0.218 OA 
BRANCH  22  23
HETATM   23  P   UNL     1     -11.973   9.946  70.369  1.00  0.00    -0.092 P  
HETATM   24  O   UNL     1     -13.388  10.047  69.906  1.00  0.00     0.283 OA 
HETATM   25  O   UNL     1     -11.965   9.765  71.967  1.00  0.00    -0.297 OA 
BRANCH  23  26
HETATM   26  O   UNL     1     -11.053  11.216  70.168  1.00  0.00    -0.205 OA 
BRANCH  26  27
HETATM   27  P   UNL     1     -11.349  12.402  69.165  1.00  0.00    -0.232 P  
HETATM   28  O   UNL     1      -9.883  12.988  68.867  1.00  0.00    -0.034 OA 
HETATM   29  O   UNL     1     -12.242  13.503  69.626  1.00  0.00    -0.304 OA 
BRANCH  27  30
HETATM   30  O   UNL     1     -11.764  11.747  67.761  1.00  0.00    -0.464 OA 
BRANCH  30  31
HETATM   31  C   UNL     1     -11.183  12.202  66.543  1.00  0.00    -0.328 C  
BRANCH  31  32
HETATM   32  C   UNL     1     -11.668  13.583  66.117  1.00  0.00    -0.365 C  
HETATM   33  O   UNL     1     -10.872  14.627  66.711  1.00  0.00    -0.300 OA 
HETATM   34  C   UNL     1     -11.196  15.795  65.933  1.00  0.00     0.004 C  
HETATM   35  H   UNL     1     -12.677  13.533  63.001  1.00  0.00     0.000 HD 
HETATM   36  C   UNL     1     -11.279  15.302  64.479  1.00  0.00    -0.280 C  
HETATM   37  C   UNL     1     -11.559  13.803  64.612  1.00  0.00    -0.378 C  
HETATM   38  H   UNL     1     -12.353  15.640  62.814  1.00  0.00     0.000 HD 
HETATM   39  O   UNL     1     -12.301  15.945  63.712  1.00  0.00    -0.791 OA 
HETATM   40  O   UNL     1     -12.745  13.397  63.939  1.00  0.00    -0.670 OA 
BRANCH  34  41
HETATM   41  N   UNL     1     -10.204  16.832  66.131  1.00  0.00    -0.340 NA 
HETATM   42  C   UNL     1     -10.347  18.179  65.955  1.00  0.00    -0.353 A  
HETATM   43  N   UNL     1      -9.248  18.835  66.272  1.00  0.00    -0.431 NA 
HETATM   44  C   UNL     1      -8.346  17.859  66.642  1.00  0.00    -0.261 A  
HETATM   45  C   UNL     1      -7.016  17.910  67.092  1.00  0.00    -0.180 A  
HETATM   46  N   UNL     1      -6.330  19.097  67.303  1.00  0.00    -0.184 NA 
HETATM   47  N   UNL     1      -6.371  16.744  67.332  1.00  0.00    -0.151 NA 
HETATM   48  H1  UNL     1      -5.364  19.134  67.631  1.00  0.00     0.000 HD 
HETATM   49  C   UNL     1      -7.050  15.588  67.171  1.00  0.00    -0.136 A  
HETATM   50  H2  UNL     1      -6.889  19.662  67.943  1.00  0.00     0.000 HD 
HETATM   51  N   UNL     1      -8.339  15.413  66.797  1.00  0.00    -0.253 NA 
HETATM   52  C   UNL     1      -8.915  16.601  66.534  1.00  0.00    -0.277 A  
ENDBRANCH  34  41
ENDBRANCH  31  32
ENDBRANCH  30  31
ENDBRANCH  27  30
ENDBRANCH  26  27
ENDBRANCH  23  26
ENDBRANCH  22  23
ENDBRANCH  21  22
ENDBRANCH  14  21
ENDBRANCH   8  12
ENDBRANCH   4   6
TORSDOF 11
ENDMDL
MODEL      163
REMARK 921   NORMALIZED FREE ENERGY PREDICTED BY IDOCK:   -5.42 KCAL/MOL
REMARK 922        TOTAL FREE ENERGY PREDICTED BY IDOCK:  -11.10 KCAL/MOL
REMARK 923 INTER-LIGAND FREE ENERGY PREDICTED BY IDOCK:   -9.25 KCAL/MOL
REMARK 924 INTRA-LIGAND FREE ENERGY PREDICTED BY IDOCK:   -1.85 KCAL/MOL
REMARK 927      BINDING AFFINITY PREDICTED BY RF-SCORE:    0.00 PKD
ROOT
HETATM    1  N   UNL     1      -8.601   9.824  70.544  1.00  0.00    -0.270 N  
HETATM    2  H1  UNL     1      -9.125  10.001  69.686  1.00  0.00     0.000 HD 
HETATM    3  H2  UNL     1      -8.031  10.567  70.948  1.00  0.00     0.000 HD 
HETATM    4  C   UNL     1      -8.654   8.618  71.150  1.00  0.00    -0.181 C  
HETATM    5  O   UNL     1      -8.022   8.404  72.184  1.00  0.00    -0.131 OA 
ENDROOT
BRANCH   4   6
HETATM    6  C   UNL     1      -9.490   7.583  70.500  1.00  0.00    -0.164 C  
HETATM    7  C   UNL     1      -8.908   6.874  69.515  1.00  0.00    -0.133 C  
HETATM    8  N   UNL     1      -9.533   5.825  68.845  1.00  0.00    -0.122 NA 
HETATM    9  C   UNL     1     -10.891   7.272  70.952  1.00  0.00    -0.262 C  
HETATM   10  C   UNL     1     -10.888   5.604  69.118  1.00  0.00    -0.211 C  
HETATM   11  C   UNL     1     -11.568   6.246  70.079  1.00  0.00    -0.378 C  
BRANCH   8  12
HETATM   12  C   UNL     1      -8.825   4.841  67.997  1.00  0.00    -0.105 C  
HETATM   13  O   UNL     1      -7.720   5.504  67.341  1.00  0.00    -0.097 OA 
HETATM   14  C   UNL     1      -8.207   6.027  66.085  1.00  0.00    -0.121 C  
HETATM   15  H   UNL     1      -9.428   2.542  65.705  1.00  0.00     0.000 HD 
HETATM   16  C   UNL     1      -9.430   5.201  65.694  1.00  0.00    -0.115 C  
HETATM   17  H   UNL     1      -9.976   4.035  64.192  1.00  0.00     0.000 HD 
HETATM   18  C   UNL     1      -9.582   4.191  66.828  1.00  0.00    -0.208 C  
HETATM   19  O   UNL     1      -9.215   4.550  64.436  1.00  0.00    -0.155 OA 
HETATM   20  O   UNL     1      -8.960   2.944  66.428  1.00  0.00    -0.140 OA 
BRANCH  14  21
HETATM   21  C   UNL     1      -8.537   7.522  66.221  1.00  0.00    -0.145 C  
BRANCH  21  22
HETATM   22  O   UNL     1      -8.684   8.134  64.945  1.00  0.00    -0.072 OA 
BRANCH  22  23
HETATM   23  P   UNL     1      -7.574   9.180  64.474  1.00  0.00    -0.119 P  
HETATM   24  O   UNL     1      -6.189   8.983  64.991  1.00  0.00    -0.063 OA 
HETATM   25  O   UNL     1      -7.569   8.951  62.882  1.00  0.00    -0.105 OA 
BRANCH  23  26
HETATM   26  O   UNL     1      -8.197  10.627  64.605  1.00  0.00    -0.126 OA 
BRANCH  26  27
HETATM   27  P   UNL     1      -9.547  11.099  63.929  1.00  0.00    -0.250 P  
HETATM   28  O   UNL     1     -10.653  10.678  65.016  1.00  0.00    -0.255 OA 
HETATM   29  O   UNL     1      -9.905  10.521  62.603  1.00  0.00    -0.260 OA 
BRANCH  27  30
HETATM   30  O   UNL     1      -9.576  12.702  63.991  1.00  0.00    -0.025 OA 
BRANCH  30  31
HETATM   31  C   UNL     1     -10.812  13.408  64.023  1.00  0.00    -0.184 C  
BRANCH  31  32
HETATM   32  C   UNL     1     -10.999  14.248  65.282  1.00  0.00    -0.343 C  
HETATM   33  O   UNL     1     -11.813  13.564  66.255  1.00  0.00    -0.353 OA 
HETATM   34  C   UNL     1     -11.576  14.289  67.476  1.00  0.00    -0.363 C  
HETATM   35  H   UNL     1      -8.265  15.918  65.963  1.00  0.00     0.000 HD 
HETATM   36  C   UNL     1     -10.071  14.604  67.473  1.00  0.00    -0.224 C  
HETATM   37  C   UNL     1      -9.682  14.536  65.994  1.00  0.00    -0.303 C  
HETATM   38  H   UNL     1      -8.821  16.080  68.024  1.00  0.00     0.000 HD 
HETATM   39  O   UNL     1      -9.751  15.884  68.026  1.00  0.00    -0.214 OA 
HETATM   40  O   UNL     1      -9.086  15.739  65.520  1.00  0.00    -0.235 OA 
BRANCH  34  41
HETATM   41  N   UNL     1     -11.995  13.509  68.623  1.00  0.00    -0.358 NA 
HETATM   42  C   UNL     1     -11.886  12.159  68.809  1.00  0.00    -0.303 A  
HETATM   43  N   UNL     1     -12.332  11.790  69.994  1.00  0.00    -0.204 NA 
HETATM   44  C   UNL     1     -12.774  12.955  70.586  1.00  0.00    -0.081 A  
HETATM   45  C   UNL     1     -13.341  13.232  71.842  1.00  0.00    -0.451 A  
HETATM   46  N   UNL     1     -13.529  12.267  72.821  1.00  0.00    -0.355 NA 
HETATM   47  N   UNL     1     -13.725  14.502  72.111  1.00  0.00    -0.408 NA 
HETATM   48  H1  UNL     1     -13.940  12.468  73.732  1.00  0.00     0.000 HD 
HETATM   49  C   UNL     1     -13.503  15.453  71.177  1.00  0.00    -0.493 A  
HETATM   50  H2  UNL     1     -12.625  11.823  72.987  1.00  0.00     0.000 HD 
HETATM   51  N   UNL     1     -12.921  15.321  69.962  1.00  0.00    -0.091 NA 
HETATM   52  C   UNL     1     -12.599  14.034  69.735  1.00  0.00    -0.079 A  
ENDBRANCH  34  41
ENDBRANCH  31  32
ENDBRANCH  30  31
ENDBRANCH  27  30
ENDBRANCH  26  27
ENDBRANCH  23  26
ENDBRANCH  22  23
ENDBRANCH  21  22
ENDBRANCH  14  21
ENDBRANCH   8  12
ENDBRANCH   4   6
TORSDOF 11
ENDMDL
MODEL      164
REMARK 921   NORMALIZED FREE ENERGY PREDICTED BY IDOCK:   -5.41 KCAL/MOL
REMARK 922        TOTAL FREE ENERGY PREDICTED BY IDOCK:  -11.09 KCAL/MOL
REMARK 923 INTER-LIGAND FREE ENERGY PREDICTED BY IDOCK:  -10.21 KCAL/MOL
REMARK 924 INTRA-LIGAND FREE ENERGY PREDICTED BY IDOCK:   -0.89 KCAL/MOL
REMARK 927      BINDING AFFINITY PREDICTED BY RF-SCORE:    0.00 PKD
ROOT
HETATM    1  N   UNL     1     -10.751   7.288  73.796  1.00  0.00    -0.455 N  
HETATM    2  H1  UNL     1     -10.182   6.461  73.977  1.00  0.00     0.000 HD 
HETATM    3  H2  UNL     1     -11.118   7.829  74.579  1.00  0.00     0.000 HD 
HETATM    4  C   UNL     1     -11.023   7.675  72.530  1.00  0.00    -0.324 C  
HETATM    5  O   UNL     1     -11.709   8.674  72.311  1.00  0.00    -0.363 OA 
ENDROOT
BRANCH   4   6
HETATM    6  C   UNL     1     -10.468   6.836  71.444  1.00  0.00    -0.238 C  
HETATM    7  C   UNL     1      -9.632   7.446  70.583  1.00  0.00    -0.171 C  
HETATM    8  N   UNL     1      -8.977   6.788  69.546  1.00  0.00    -0.139 NA 
HETATM    9  C   UNL     1     -10.750   5.362  71.335  1.00  0.00    -0.258 C  
HETATM   10  C   UNL     1      -9.331   5.455  69.304  1.00  0.00    -0.120 C  
HETATM   11  C   UNL     1     -10.148   4.746  70.097  1.00  0.00    -0.310 C  
BRANCH   8  12
HETATM   12  C   UNL     1      -7.832   7.350  68.797  1.00  0.00    -0.121 C  
HETATM   13  O   UNL     1      -8.194   8.662  68.311  1.00  0.00    -0.120 OA 
HETATM   14  C   UNL     1      -8.788   8.496  67.004  1.00  0.00    -0.133 C  
HETATM   15  H   UNL     1      -5.689   6.538  66.418  1.00  0.00     0.000 HD 
HETATM   16  C   UNL     1      -8.270   7.178  66.435  1.00  0.00    -0.120 C  
HETATM   17  H   UNL     1      -7.233   6.582  64.859  1.00  0.00     0.000 HD 
HETATM   18  C   UNL     1      -7.354   6.630  67.525  1.00  0.00    -0.095 C  
HETATM   19  O   UNL     1      -7.556   7.403  65.213  1.00  0.00    -0.086 OA 
HETATM   20  O   UNL     1      -5.985   6.982  67.205  1.00  0.00    -0.023 OA 
BRANCH  14  21
HETATM   21  C   UNL     1     -10.321   8.520  67.106  1.00  0.00    -0.307 C  
BRANCH  21  22
HETATM   22  O   UNL     1     -10.748   9.243  68.255  1.00  0.00    -0.209 OA 
BRANCH  22  23
HETATM   23  P   UNL     1     -11.120  10.786  68.083  1.00  0.00    -0.299 P  
HETATM   24  O   UNL     1     -12.494  11.205  68.487  1.00  0.00    -0.452 OA 
HETATM   25  O   UNL     1     -10.057  11.487  69.066  1.00  0.00    -0.163 OA 
BRANCH  23  26
HETATM   26  O   UNL     1     -10.613  11.243  66.657  1.00  0.00    -0.241 OA 
BRANCH  26  27
HETATM   27  P   UNL     1     -10.560  12.740  66.149  1.00  0.00    -0.278 P  
HETATM   28  O   UNL     1     -11.922  13.361  66.733  1.00  0.00    -0.383 OA 
HETATM   29  O   UNL     1     -10.492  12.978  64.679  1.00  0.00    -0.343 OA 
BRANCH  27  30
HETATM   30  O   UNL     1      -9.429  13.493  67.002  1.00  0.00    -0.234 OA 
BRANCH  30  31
HETATM   31  C   UNL     1      -8.110  12.966  67.091  1.00  0.00    -0.117 C  
BRANCH  31  32
HETATM   32  C   UNL     1      -7.097  13.956  67.657  1.00  0.00    -0.177 C  
HETATM   33  O   UNL     1      -7.365  15.298  67.205  1.00  0.00    -0.199 OA 
HETATM   34  C   UNL     1      -6.597  16.124  68.101  1.00  0.00    -0.124 C  
HETATM   35  H   UNL     1      -6.279  13.134  70.720  1.00  0.00     0.000 HD 
HETATM   36  C   UNL     1      -6.765  15.482  69.487  1.00  0.00    -0.179 C  
HETATM   37  C   UNL     1      -7.140  14.030  69.180  1.00  0.00    -0.085 C  
HETATM   38  H   UNL     1      -5.689  15.145  71.152  1.00  0.00     0.000 HD 
HETATM   39  O   UNL     1      -5.585  15.543  70.295  1.00  0.00    -0.139 OA 
HETATM   40  O   UNL     1      -6.253  13.089  69.772  1.00  0.00    -0.124 OA 
BRANCH  34  41
HETATM   41  N   UNL     1      -7.054  17.498  68.047  1.00  0.00    -0.195 NA 
HETATM   42  C   UNL     1      -6.326  18.637  68.247  1.00  0.00    -0.213 A  
HETATM   43  N   UNL     1      -7.055  19.722  68.075  1.00  0.00    -0.269 NA 
HETATM   44  C   UNL     1      -8.320  19.257  67.778  1.00  0.00    -0.300 A  
HETATM   45  C   UNL     1      -9.529  19.907  67.479  1.00  0.00    -0.359 A  
HETATM   46  N   UNL     1      -9.648  21.286  67.383  1.00  0.00    -0.460 NA 
HETATM   47  N   UNL     1     -10.634  19.152  67.277  1.00  0.00    -0.455 NA 
HETATM   48  H1  UNL     1     -10.527  21.757  67.167  1.00  0.00     0.000 HD 
HETATM   49  C   UNL     1     -10.513  17.807  67.326  1.00  0.00    -0.353 A  
HETATM   50  H2  UNL     1      -8.957  21.604  66.703  1.00  0.00     0.000 HD 
HETATM   51  N   UNL     1      -9.400  17.070  67.549  1.00  0.00    -0.231 NA 
HETATM   52  C   UNL     1      -8.345  17.872  67.782  1.00  0.00    -0.241 A  
ENDBRANCH  34  41
ENDBRANCH  31  32
ENDBRANCH  30  31
ENDBRANCH  27  30
ENDBRANCH  26  27
ENDBRANCH  23  26
ENDBRANCH  22  23
ENDBRANCH  21  22
ENDBRANCH  14  21
ENDBRANCH   8  12
ENDBRANCH   4   6
TORSDOF 11
ENDMDL
MODEL      165
REMARK 921   NORMALIZED FREE ENERGY PREDICTED BY IDOCK:   -5.38 KCAL/MOL
REMARK 922        TOTAL FREE ENERGY PREDICTED BY IDOCK:  -11.05 KCAL/MOL
REMARK 923 INTER-LIGAND FREE ENERGY PREDICTED BY IDOCK:   -9.15 KCAL/MOL
REMARK 924 INTRA-LIGAND FREE ENERGY PREDICTED BY IDOCK:   -1.89 KCAL/MOL
REMARK 927      BINDING AFFINITY PREDICTED BY RF-SCORE:    0.00 PKD
ROOT
HETATM    1  N   UNL     1     -11.152   4.036  64.622  1.00  0.00    -0.640 N  
HETATM    2  H1  UNL     1     -11.359   4.797  65.270  1.00  0.00     0.000 HD 
HETATM    3  H2  UNL     1     -11.870   3.720  63.970  1.00  0.00     0.000 HD 
HETATM    4  C   UNL     1      -9.938   3.443  64.618  1.00  0.00    -0.117 C  
HETATM    5  O   UNL     1      -9.688   2.525  63.837  1.00  0.00    -0.131 OA 
ENDROOT
BRANCH   4   6
HETATM    6  C   UNL     1      -8.950   3.944  65.601  1.00  0.00    -0.133 C  
HETATM    7  C   UNL     1      -8.844   3.250  66.749  1.00  0.00    -0.140 C  
HETATM    8  N   UNL     1      -7.922   3.549  67.749  1.00  0.00    -0.080 NA 
HETATM    9  C   UNL     1      -8.049   5.115  65.318  1.00  0.00    -0.120 C  
HETATM   10  C   UNL     1      -7.174   4.724  67.605  1.00  0.00    -0.070 C  
HETATM   11  C   UNL     1      -7.195   5.489  66.504  1.00  0.00    -0.077 C  
BRANCH   8  12
HETATM   12  C   UNL     1      -7.572   2.635  68.858  1.00  0.00    -0.047 C  
HETATM   13  O   UNL     1      -8.701   2.539  69.755  1.00  0.00    -0.059 OA 
HETATM   14  C   UNL     1      -8.558   3.577  70.751  1.00  0.00    -0.071 C  
HETATM   15  H   UNL     1      -5.170   2.089  71.059  1.00  0.00     0.000 HD 
HETATM   16  C   UNL     1      -7.075   3.930  70.826  1.00  0.00    -0.033 C  
HETATM   17  H   UNL     1      -5.643   3.909  72.191  1.00  0.00     0.000 HD 
HETATM   18  C   UNL     1      -6.416   3.017  69.797  1.00  0.00    -0.033 C  
HETATM   19  O   UNL     1      -6.566   3.689  72.144  1.00  0.00    -0.014 OA 
HETATM   20  O   UNL     1      -5.885   1.853  70.478  1.00  0.00    -0.016 OA 
BRANCH  14  21
HETATM   21  C   UNL     1      -9.426   4.791  70.386  1.00  0.00    -0.172 C  
BRANCH  21  22
HETATM   22  O   UNL     1      -9.108   5.913  71.201  1.00  0.00    -0.141 OA 
BRANCH  22  23
HETATM   23  P   UNL     1      -9.942   6.134  72.544  1.00  0.00    -0.175 P  
HETATM   24  O   UNL     1     -10.701   4.965  73.076  1.00  0.00    -0.207 OA 
HETATM   25  O   UNL     1      -8.780   6.513  73.588  1.00  0.00    -0.122 OA 
BRANCH  23  26
HETATM   26  O   UNL     1     -10.725   7.500  72.400  1.00  0.00    -0.228 OA 
BRANCH  26  27
HETATM   27  P   UNL     1     -11.788   7.822  71.274  1.00  0.00    -0.290 P  
HETATM   28  O   UNL     1     -12.605   9.056  71.902  1.00  0.00    -0.331 OA 
HETATM   29  O   UNL     1     -12.739   6.744  70.879  1.00  0.00    -0.301 OA 
BRANCH  27  30
HETATM   30  O   UNL     1     -11.000   8.500  70.053  1.00  0.00    -0.243 OA 
BRANCH  30  31
HETATM   31  C   UNL     1     -10.801   7.796  68.832  1.00  0.00     0.006 C  
BRANCH  31  32
HETATM   32  C   UNL     1      -9.737   8.421  67.936  1.00  0.00    -0.158 C  
HETATM   33  O   UNL     1     -10.301   8.881  66.692  1.00  0.00    -0.271 OA 
HETATM   34  C   UNL     1      -9.290   9.756  66.156  1.00  0.00    -0.191 C  
HETATM   35  H   UNL     1      -7.552  10.073  69.732  1.00  0.00     0.000 HD 
HETATM   36  C   UNL     1      -8.754  10.541  67.364  1.00  0.00    -0.125 C  
HETATM   37  C   UNL     1      -9.094   9.653  68.564  1.00  0.00    -0.131 C  
HETATM   38  H   UNL     1      -7.016  11.284  68.051  1.00  0.00     0.000 HD 
HETATM   39  O   UNL     1      -7.348  10.799  67.304  1.00  0.00    -0.091 OA 
HETATM   40  O   UNL     1      -7.953   9.306  69.340  1.00  0.00    -0.090 OA 
BRANCH  34  41
HETATM   41  N   UNL     1      -9.845  10.605  65.122  1.00  0.00    -0.261 NA 
HETATM   42  C   UNL     1      -9.568  10.593  63.784  1.00  0.00    -0.306 A  
HETATM   43  N   UNL     1     -10.292  11.477  63.125  1.00  0.00    -0.351 NA 
HETATM   44  C   UNL     1     -11.051  12.106  64.091  1.00  0.00    -0.364 A  
HETATM   45  C   UNL     1     -12.020  13.121  64.031  1.00  0.00    -0.460 A  
HETATM   46  N   UNL     1     -12.450  13.693  62.843  1.00  0.00    -0.856 NA 
HETATM   47  N   UNL     1     -12.560  13.566  65.190  1.00  0.00    -0.602 NA 
HETATM   48  H1  UNL     1     -13.154  14.430  62.799  1.00  0.00     0.000 HD 
HETATM   49  C   UNL     1     -12.176  12.981  66.345  1.00  0.00    -0.280 A  
HETATM   50  H2  UNL     1     -12.768  12.934  62.238  1.00  0.00     0.000 HD 
HETATM   51  N   UNL     1     -11.298  11.967  66.525  1.00  0.00    -0.342 NA 
HETATM   52  C   UNL     1     -10.766  11.594  65.346  1.00  0.00    -0.287 A  
ENDBRANCH  34  41
ENDBRANCH  31  32
ENDBRANCH  30  31
ENDBRANCH  27  30
ENDBRANCH  26  27
ENDBRANCH  23  26
ENDBRANCH  22  23
ENDBRANCH  21  22
ENDBRANCH  14  21
ENDBRANCH   8  12
ENDBRANCH   4   6
TORSDOF 11
ENDMDL
MODEL      166
REMARK 921   NORMALIZED FREE ENERGY PREDICTED BY IDOCK:   -5.37 KCAL/MOL
REMARK 922        TOTAL FREE ENERGY PREDICTED BY IDOCK:  -11.03 KCAL/MOL
REMARK 923 INTER-LIGAND FREE ENERGY PREDICTED BY IDOCK:   -9.56 KCAL/MOL
REMARK 924 INTRA-LIGAND FREE ENERGY PREDICTED BY IDOCK:   -1.47 KCAL/MOL
REMARK 927      BINDING AFFINITY PREDICTED BY RF-SCORE:    0.00 PKD
ROOT
HETATM    1  N   UNL     1     -11.594  12.437  62.849  1.00  0.00    -0.580 N  
HETATM    2  H1  UNL     1     -10.851  12.953  62.377  1.00  0.00     0.000 HD 
HETATM    3  H2  UNL     1     -11.930  11.559  62.452  1.00  0.00     0.000 HD 
HETATM    4  C   UNL     1     -12.139  12.903  63.995  1.00  0.00    -0.455 C  
HETATM    5  O   UNL     1     -13.036  12.281  64.564  1.00  0.00    -0.738 OA 
ENDROOT
BRANCH   4   6
HETATM    6  C   UNL     1     -11.613  14.189  64.507  1.00  0.00    -0.400 C  
HETATM    7  C   UNL     1     -10.484  14.125  65.236  1.00  0.00    -0.384 C  
HETATM    8  N   UNL     1      -9.825  15.245  65.738  1.00  0.00    -0.345 NA 
HETATM    9  C   UNL     1     -12.247  15.512  64.176  1.00  0.00    -0.019 C  
HETATM   10  C   UNL     1     -10.461  16.483  65.596  1.00  0.00    -0.324 C  
HETATM   11  C   UNL     1     -11.584  16.666  64.886  1.00  0.00     0.431 C  
BRANCH   8  12
HETATM   12  C   UNL     1      -8.440  15.230  66.261  1.00  0.00     0.072 C  
HETATM   13  O   UNL     1      -8.210  13.970  66.929  1.00  0.00    -0.110 OA 
HETATM   14  C   UNL     1      -8.584  14.135  68.315  1.00  0.00    -0.175 C  
HETATM   15  H   UNL     1      -6.355  17.089  68.022  1.00  0.00     0.000 HD 
HETATM   16  C   UNL     1      -8.487  15.624  68.636  1.00  0.00    -0.179 C  
HETATM   17  H   UNL     1      -7.476  16.780  69.883  1.00  0.00     0.000 HD 
HETATM   18  C   UNL     1      -8.040  16.264  67.325  1.00  0.00    -0.176 C  
HETATM   19  O   UNL     1      -7.536  15.853  69.683  1.00  0.00    -0.184 OA 
HETATM   20  O   UNL     1      -6.603  16.450  67.363  1.00  0.00    -0.140 OA 
BRANCH  14  21
HETATM   21  C   UNL     1      -9.996  13.580  68.559  1.00  0.00    -0.202 C  
BRANCH  21  22
HETATM   22  O   UNL     1     -10.402  12.726  67.496  1.00  0.00    -0.216 OA 
BRANCH  22  23
HETATM   23  P   UNL     1     -10.658  11.184  67.819  1.00  0.00    -0.244 P  
HETATM   24  O   UNL     1      -9.819  10.562  68.884  1.00  0.00    -0.183 OA 
HETATM   25  O   UNL     1     -12.188  11.206  68.314  1.00  0.00    -0.613 OA 
BRANCH  23  26
HETATM   26  O   UNL     1     -10.761  10.419  66.439  1.00  0.00    -0.167 OA 
BRANCH  26  27
HETATM   27  P   UNL     1      -9.534  10.052  65.511  1.00  0.00    -0.278 P  
HETATM   28  O   UNL     1      -8.341  10.928  66.137  1.00  0.00    -0.162 OA 
HETATM   29  O   UNL     1      -9.650  10.337  64.053  1.00  0.00    -0.289 OA 
BRANCH  27  30
HETATM   30  O   UNL     1      -9.099   8.549  65.867  1.00  0.00    -0.182 OA 
BRANCH  30  31
HETATM   31  C   UNL     1      -7.733   8.153  65.812  1.00  0.00    -0.092 C  
BRANCH  31  32
HETATM   32  C   UNL     1      -7.157   7.769  67.171  1.00  0.00    -0.085 C  
HETATM   33  O   UNL     1      -7.869   8.414  68.245  1.00  0.00    -0.107 OA 
HETATM   34  C   UNL     1      -7.473   7.673  69.416  1.00  0.00    -0.089 C  
HETATM   35  H   UNL     1      -6.198   4.637  67.167  1.00  0.00     0.000 HD 
HETATM   36  C   UNL     1      -7.446   6.201  68.973  1.00  0.00    -0.087 C  
HETATM   37  C   UNL     1      -7.272   6.275  67.454  1.00  0.00    -0.075 C  
HETATM   38  H   UNL     1      -6.374   4.531  69.297  1.00  0.00     0.000 HD 
HETATM   39  O   UNL     1      -6.392   5.441  69.570  1.00  0.00    -0.027 OA 
HETATM   40  O   UNL     1      -6.127   5.567  66.991  1.00  0.00    -0.027 OA 
BRANCH  34  41
HETATM   41  N   UNL     1      -8.386   7.925  70.512  1.00  0.00    -0.122 NA 
HETATM   42  C   UNL     1      -8.138   8.589  71.680  1.00  0.00    -0.150 A  
HETATM   43  N   UNL     1      -9.215   8.672  72.437  1.00  0.00    -0.346 NA 
HETATM   44  C   UNL     1     -10.196   8.004  71.732  1.00  0.00    -0.202 A  
HETATM   45  C   UNL     1     -11.553   7.754  71.992  1.00  0.00    -0.300 A  
HETATM   46  N   UNL     1     -12.214   8.233  73.114  1.00  0.00    -0.480 NA 
HETATM   47  N   UNL     1     -12.252   7.006  71.106  1.00  0.00    -0.368 NA 
HETATM   48  H1  UNL     1     -13.200   8.051  73.302  1.00  0.00     0.000 HD 
HETATM   49  C   UNL     1     -11.624   6.576  69.990  1.00  0.00    -0.390 A  
HETATM   50  H2  UNL     1     -12.083   9.245  73.135  1.00  0.00     0.000 HD 
HETATM   51  N   UNL     1     -10.346   6.795  69.606  1.00  0.00    -0.191 NA 
HETATM   52  C   UNL     1      -9.691   7.507  70.542  1.00  0.00    -0.179 A  
ENDBRANCH  34  41
ENDBRANCH  31  32
ENDBRANCH  30  31
ENDBRANCH  27  30
ENDBRANCH  26  27
ENDBRANCH  23  26
ENDBRANCH  22  23
ENDBRANCH  21  22
ENDBRANCH  14  21
ENDBRANCH   8  12
ENDBRANCH   4   6
TORSDOF 11
ENDMDL
MODEL      167
REMARK 921   NORMALIZED FREE ENERGY PREDICTED BY IDOCK:   -5.36 KCAL/MOL
REMARK 922        TOTAL FREE ENERGY PREDICTED BY IDOCK:  -11.01 KCAL/MOL
REMARK 923 INTER-LIGAND FREE ENERGY PREDICTED BY IDOCK:   -9.26 KCAL/MOL
REMARK 924 INTRA-LIGAND FREE ENERGY PREDICTED BY IDOCK:   -1.76 KCAL/MOL
REMARK 927      BINDING AFFINITY PREDICTED BY RF-SCORE:    0.00 PKD
ROOT
HETATM    1  N   UNL     1      -7.012  20.460  71.808  1.00  0.00    -0.258 N  
HETATM    2  H1  UNL     1      -7.787  20.867  71.283  1.00  0.00     0.000 HD 
HETATM    3  H2  UNL     1      -6.918  20.658  72.804  1.00  0.00     0.000 HD 
HETATM    4  C   UNL     1      -6.109  19.662  71.197  1.00  0.00    -0.032 C  
HETATM    5  O   UNL     1      -5.174  19.171  71.830  1.00  0.00    -0.555 OA 
ENDROOT
BRANCH   4   6
HETATM    6  C   UNL     1      -6.298  19.429  69.748  1.00  0.00    -0.316 C  
HETATM    7  C   UNL     1      -7.525  19.684  69.256  1.00  0.00    -0.215 C  
HETATM    8  N   UNL     1      -7.854  19.577  67.907  1.00  0.00    -0.287 NA 
HETATM    9  C   UNL     1      -5.174  19.007  68.841  1.00  0.00    -0.194 C  
HETATM   10  C   UNL     1      -6.889  19.033  67.051  1.00  0.00    -0.198 C  
HETATM   11  C   UNL     1      -5.635  18.748  67.429  1.00  0.00    -0.153 C  
BRANCH   8  12
HETATM   12  C   UNL     1      -9.080  20.144  67.303  1.00  0.00    -0.368 C  
HETATM   13  O   UNL     1     -10.228  19.635  68.018  1.00  0.00    -0.410 OA 
HETATM   14  C   UNL     1     -10.641  18.411  67.370  1.00  0.00    -0.413 C  
HETATM   15  H   UNL     1     -10.511  20.578  64.358  1.00  0.00     0.000 HD 
HETATM   16  C   UNL     1     -10.134  18.468  65.931  1.00  0.00    -0.163 C  
HETATM   17  H   UNL     1     -10.912  18.434  64.113  1.00  0.00     0.000 HD 
HETATM   18  C   UNL     1      -9.407  19.807  65.839  1.00  0.00    -0.181 C  
HETATM   19  O   UNL     1     -11.228  18.399  65.009  1.00  0.00    -0.408 OA 
HETATM   20  O   UNL     1     -10.308  20.786  65.263  1.00  0.00     0.387 OA 
BRANCH  14  21
HETATM   21  C   UNL     1     -10.095  17.193  68.130  1.00  0.00    -0.311 C  
BRANCH  21  22
HETATM   22  O   UNL     1     -11.095  16.193  68.285  1.00  0.00    -0.331 OA 
BRANCH  22  23
HETATM   23  P   UNL     1     -11.012  15.229  69.555  1.00  0.00    -0.321 P  
HETATM   24  O   UNL     1      -9.674  15.054  70.191  1.00  0.00     0.021 OA 
HETATM   25  O   UNL     1     -11.984  15.979  70.594  1.00  0.00    -0.366 OA 
BRANCH  23  26
HETATM   26  O   UNL     1     -11.829  13.920  69.214  1.00  0.00    -0.303 OA 
BRANCH  26  27
HETATM   27  P   UNL     1     -11.235  12.639  68.502  1.00  0.00    -0.325 P  
HETATM   28  O   UNL     1     -12.487  11.631  68.484  1.00  0.00    -0.271 OA 
HETATM   29  O   UNL     1     -10.064  11.967  69.134  1.00  0.00    -0.015 OA 
BRANCH  27  30
HETATM   30  O   UNL     1     -11.044  13.000  66.951  1.00  0.00    -0.264 OA 
BRANCH  30  31
HETATM   31  C   UNL     1      -9.750  13.253  66.415  1.00  0.00    -0.276 C  
BRANCH  31  32
HETATM   32  C   UNL     1      -9.189  12.088  65.604  1.00  0.00    -0.003 C  
HETATM   33  O   UNL     1      -9.012  10.916  66.423  1.00  0.00    -0.164 OA 
HETATM   34  C   UNL     1      -8.858   9.848  65.468  1.00  0.00    -0.159 C  
HETATM   35  H   UNL     1     -10.436  12.095  62.576  1.00  0.00     0.000 HD 
HETATM   36  C   UNL     1      -9.876  10.150  64.357  1.00  0.00    -0.237 C  
HETATM   37  C   UNL     1     -10.124  11.655  64.480  1.00  0.00    -0.278 C  
HETATM   38  H   UNL     1     -10.040  10.003  62.358  1.00  0.00     0.000 HD 
HETATM   39  O   UNL     1      -9.411   9.816  63.045  1.00  0.00    -0.219 OA 
HETATM   40  O   UNL     1      -9.854  12.364  63.276  1.00  0.00    -0.360 OA 
BRANCH  34  41
HETATM   41  N   UNL     1      -9.066   8.562  66.103  1.00  0.00    -0.183 NA 
HETATM   42  C   UNL     1      -9.868   8.269  67.169  1.00  0.00    -0.217 A  
HETATM   43  N   UNL     1      -9.853   6.982  67.456  1.00  0.00    -0.141 NA 
HETATM   44  C   UNL     1      -8.976   6.426  66.547  1.00  0.00    -0.145 A  
HETATM   45  C   UNL     1      -8.542   5.109  66.323  1.00  0.00    -0.114 A  
HETATM   46  N   UNL     1      -9.015   4.020  67.040  1.00  0.00    -0.123 NA 
HETATM   47  N   UNL     1      -7.614   4.890  65.362  1.00  0.00    -0.084 NA 
HETATM   48  H1  UNL     1      -8.700   3.063  66.877  1.00  0.00     0.000 HD 
HETATM   49  C   UNL     1      -7.183   5.942  64.631  1.00  0.00    -0.063 A  
HETATM   50  H2  UNL     1     -10.032   4.022  66.959  1.00  0.00     0.000 HD 
HETATM   51  N   UNL     1      -7.563   7.238  64.716  1.00  0.00    -0.097 NA 
HETATM   52  C   UNL     1      -8.454   7.401  65.712  1.00  0.00    -0.143 A  
ENDBRANCH  34  41
ENDBRANCH  31  32
ENDBRANCH  30  31
ENDBRANCH  27  30
ENDBRANCH  26  27
ENDBRANCH  23  26
ENDBRANCH  22  23
ENDBRANCH  21  22
ENDBRANCH  14  21
ENDBRANCH   8  12
ENDBRANCH   4   6
TORSDOF 11
ENDMDL
MODEL      168
REMARK 921   NORMALIZED FREE ENERGY PREDICTED BY IDOCK:   -5.34 KCAL/MOL
REMARK 922        TOTAL FREE ENERGY PREDICTED BY IDOCK:  -10.98 KCAL/MOL
REMARK 923 INTER-LIGAND FREE ENERGY PREDICTED BY IDOCK:   -8.80 KCAL/MOL
REMARK 924 INTRA-LIGAND FREE ENERGY PREDICTED BY IDOCK:   -2.18 KCAL/MOL
REMARK 927      BINDING AFFINITY PREDICTED BY RF-SCORE:    0.00 PKD
ROOT
HETATM    1  N   UNL     1     -12.247  13.740  65.536  1.00  0.00    -0.413 N  
HETATM    2  H1  UNL     1     -12.050  13.712  64.535  1.00  0.00     0.000 HD 
HETATM    3  H2  UNL     1     -12.957  14.379  65.893  1.00  0.00     0.000 HD 
HETATM    4  C   UNL     1     -11.577  12.939  66.394  1.00  0.00    -0.371 C  
HETATM    5  O   UNL     1     -11.813  12.972  67.601  1.00  0.00    -0.353 OA 
ENDROOT
BRANCH   4   6
HETATM    6  C   UNL     1     -10.550  12.047  65.807  1.00  0.00    -0.301 C  
HETATM    7  C   UNL     1      -9.316  12.126  66.337  1.00  0.00    -0.224 C  
HETATM    8  N   UNL     1      -8.254  11.315  65.945  1.00  0.00    -0.057 NA 
HETATM    9  C   UNL     1     -10.868  11.045  64.731  1.00  0.00    -0.234 C  
HETATM   10  C   UNL     1      -8.456  10.481  64.838  1.00  0.00    -0.158 C  
HETATM   11  C   UNL     1      -9.642  10.319  64.235  1.00  0.00    -0.375 C  
BRANCH   8  12
HETATM   12  C   UNL     1      -6.998  11.161  66.711  1.00  0.00    -0.137 C  
HETATM   13  O   UNL     1      -6.885   9.788  67.148  1.00  0.00    -0.081 OA 
HETATM   14  C   UNL     1      -7.523   9.687  68.441  1.00  0.00    -0.080 C  
HETATM   15  H   UNL     1      -5.317  12.581  69.173  1.00  0.00     0.000 HD 
HETATM   16  C   UNL     1      -7.509  11.081  69.063  1.00  0.00    -0.129 C  
HETATM   17  H   UNL     1      -6.774  11.942  70.685  1.00  0.00     0.000 HD 
HETATM   18  C   UNL     1      -6.824  11.955  68.016  1.00  0.00    -0.072 C  
HETATM   19  O   UNL     1      -6.783  11.074  70.298  1.00  0.00    -0.230 OA 
HETATM   20  O   UNL     1      -5.424  12.091  68.366  1.00  0.00    -0.052 OA 
BRANCH  14  21
HETATM   21  C   UNL     1      -8.948   9.132  68.293  1.00  0.00    -0.129 C  
BRANCH  21  22
HETATM   22  O   UNL     1      -9.897   9.974  68.937  1.00  0.00    -0.168 OA 
BRANCH  22  23
HETATM   23  P   UNL     1     -10.303   9.642  70.445  1.00  0.00    -0.278 P  
HETATM   24  O   UNL     1      -9.195   9.518  71.437  1.00  0.00    -0.224 OA 
HETATM   25  O   UNL     1     -11.198  10.922  70.828  1.00  0.00    -0.086 OA 
BRANCH  23  26
HETATM   26  O   UNL     1     -11.373   8.480  70.407  1.00  0.00    -0.256 OA 
BRANCH  26  27
HETATM   27  P   UNL     1     -12.240   8.003  71.640  1.00  0.00    -0.329 P  
HETATM   28  O   UNL     1     -13.024   6.730  71.051  1.00  0.00    -0.254 OA 
HETATM   29  O   UNL     1     -13.219   8.965  72.222  1.00  0.00    -0.393 OA 
BRANCH  27  30
HETATM   30  O   UNL     1     -11.236   7.344  72.703  1.00  0.00    -0.294 OA 
BRANCH  30  31
HETATM   31  C   UNL     1     -11.118   5.930  72.816  1.00  0.00    -0.281 C  
BRANCH  31  32
HETATM   32  C   UNL     1     -10.070   5.331  71.884  1.00  0.00    -0.197 C  
HETATM   33  O   UNL     1     -10.613   5.086  70.572  1.00  0.00    -0.209 OA 
HETATM   34  C   UNL     1      -9.448   4.900  69.745  1.00  0.00    -0.154 C  
HETATM   35  H   UNL     1      -7.124   6.629  72.485  1.00  0.00     0.000 HD 
HETATM   36  C   UNL     1      -8.436   5.950  70.230  1.00  0.00    -0.127 C  
HETATM   37  C   UNL     1      -8.885   6.264  71.659  1.00  0.00    -0.138 C  
HETATM   38  H   UNL     1      -6.454   6.142  70.512  1.00  0.00     0.000 HD 
HETATM   39  O   UNL     1      -7.080   5.493  70.212  1.00  0.00    -0.058 OA 
HETATM   40  O   UNL     1      -7.862   6.048  72.624  1.00  0.00    -0.103 OA 
BRANCH  34  41
HETATM   41  N   UNL     1      -9.789   5.037  68.343  1.00  0.00    -0.151 NA 
HETATM   42  C   UNL     1     -10.557   6.002  67.754  1.00  0.00    -0.267 A  
HETATM   43  N   UNL     1     -10.623   5.846  66.446  1.00  0.00    -0.168 NA 
HETATM   44  C   UNL     1      -9.885   4.710  66.186  1.00  0.00    -0.226 A  
HETATM   45  C   UNL     1      -9.564   4.031  64.999  1.00  0.00    -0.180 A  
HETATM   46  N   UNL     1      -9.950   4.474  63.742  1.00  0.00    -0.368 NA 
HETATM   47  N   UNL     1      -8.844   2.888  65.083  1.00  0.00    -0.123 NA 
HETATM   48  H1  UNL     1      -9.716   3.981  62.880  1.00  0.00     0.000 HD 
HETATM   49  C   UNL     1      -8.429   2.477  66.301  1.00  0.00    -0.099 A  
HETATM   50  H2  UNL     1      -9.617   5.434  63.643  1.00  0.00     0.000 HD 
HETATM   51  N   UNL     1      -8.627   3.068  67.502  1.00  0.00    -0.095 NA 
HETATM   52  C   UNL     1      -9.380   4.175  67.361  1.00  0.00    -0.175 A  
ENDBRANCH  34  41
ENDBRANCH  31  32
ENDBRANCH  30  31
ENDBRANCH  27  30
ENDBRANCH  26  27
ENDBRANCH  23  26
ENDBRANCH  22  23
ENDBRANCH  21  22
ENDBRANCH  14  21
ENDBRANCH   8  12
ENDBRANCH   4   6
TORSDOF 11
ENDMDL
MODEL      169
REMARK 921   NORMALIZED FREE ENERGY PREDICTED BY IDOCK:   -5.33 KCAL/MOL
REMARK 922        TOTAL FREE ENERGY PREDICTED BY IDOCK:  -10.97 KCAL/MOL
REMARK 923 INTER-LIGAND FREE ENERGY PREDICTED BY IDOCK:   -9.09 KCAL/MOL
REMARK 924 INTRA-LIGAND FREE ENERGY PREDICTED BY IDOCK:   -1.87 KCAL/MOL
REMARK 927      BINDING AFFINITY PREDICTED BY RF-SCORE:    0.00 PKD
ROOT
HETATM    1  N   UNL     1     -13.170   7.647  71.844  1.00  0.00    -0.464 N  
HETATM    2  H1  UNL     1     -13.317   6.804  72.399  1.00  0.00     0.000 HD 
HETATM    3  H2  UNL     1     -13.781   8.453  71.978  1.00  0.00     0.000 HD 
HETATM    4  C   UNL     1     -12.172   7.710  70.935  1.00  0.00    -0.168 C  
HETATM    5  O   UNL     1     -11.994   8.728  70.266  1.00  0.00     0.023 OA 
ENDROOT
BRANCH   4   6
HETATM    6  C   UNL     1     -11.332   6.500  70.785  1.00  0.00    -0.399 C  
HETATM    7  C   UNL     1     -11.135   6.061  69.528  1.00  0.00    -0.398 C  
HETATM    8  N   UNL     1     -10.321   4.977  69.208  1.00  0.00    -0.184 NA 
HETATM    9  C   UNL     1     -10.662   5.829  71.953  1.00  0.00    -0.297 C  
HETATM   10  C   UNL     1      -9.808   4.222  70.269  1.00  0.00    -0.193 C  
HETATM   11  C   UNL     1      -9.936   4.567  71.559  1.00  0.00    -0.259 C  
BRANCH   8  12
HETATM   12  C   UNL     1      -9.841   4.672  67.842  1.00  0.00    -0.119 C  
HETATM   13  O   UNL     1      -8.396   4.708  67.839  1.00  0.00    -0.098 OA 
HETATM   14  C   UNL     1      -7.993   6.061  67.529  1.00  0.00    -0.102 C  
HETATM   15  H   UNL     1     -10.344   5.558  64.701  1.00  0.00     0.000 HD 
HETATM   16  C   UNL     1      -9.147   6.715  66.773  1.00  0.00    -0.142 C  
HETATM   17  H   UNL     1      -9.441   7.536  64.998  1.00  0.00     0.000 HD 
HETATM   18  C   UNL     1     -10.213   5.627  66.696  1.00  0.00    -0.229 C  
HETATM   19  O   UNL     1      -8.723   7.129  65.468  1.00  0.00    -0.121 OA 
HETATM   20  O   UNL     1     -10.114   4.967  65.409  1.00  0.00    -0.053 OA 
BRANCH  14  21
HETATM   21  C   UNL     1      -7.638   6.822  68.817  1.00  0.00    -0.105 C  
BRANCH  21  22
HETATM   22  O   UNL     1      -7.096   8.104  68.523  1.00  0.00    -0.073 OA 
BRANCH  22  23
HETATM   23  P   UNL     1      -7.727   9.377  69.251  1.00  0.00    -0.095 P  
HETATM   24  O   UNL     1      -9.210   9.407  69.408  1.00  0.00    -0.150 OA 
HETATM   25  O   UNL     1      -7.055   9.282  70.709  1.00  0.00    -0.096 OA 
BRANCH  23  26
HETATM   26  O   UNL     1      -7.036  10.663  68.645  1.00  0.00    -0.068 OA 
BRANCH  26  27
HETATM   27  P   UNL     1      -7.557  11.464  67.385  1.00  0.00    -0.139 P  
HETATM   28  O   UNL     1      -7.898  10.295  66.337  1.00  0.00    -0.111 OA 
HETATM   29  O   UNL     1      -6.635  12.449  66.750  1.00  0.00    -0.045 OA 
BRANCH  27  30
HETATM   30  O   UNL     1      -9.005  12.046  67.755  1.00  0.00    -0.163 OA 
BRANCH  30  31
HETATM   31  C   UNL     1     -10.099  11.910  66.854  1.00  0.00    -0.207 C  
BRANCH  31  32
HETATM   32  C   UNL     1     -10.669  13.245  66.384  1.00  0.00    -0.285 C  
HETATM   33  O   UNL     1      -9.878  14.351  66.861  1.00  0.00    -0.248 OA 
HETATM   34  C   UNL     1     -10.302  15.457  66.042  1.00  0.00    -0.324 C  
HETATM   35  H   UNL     1     -11.880  12.970  63.353  1.00  0.00     0.000 HD 
HETATM   36  C   UNL     1     -10.461  14.876  64.628  1.00  0.00    -0.111 C  
HETATM   37  C   UNL     1     -10.669  13.378  64.865  1.00  0.00    -0.369 C  
HETATM   38  H   UNL     1     -11.657  15.073  63.023  1.00  0.00     0.000 HD 
HETATM   39  O   UNL     1     -11.558  15.432  63.897  1.00  0.00    -0.180 OA 
HETATM   40  O   UNL     1     -11.880  12.888  64.299  1.00  0.00    -0.348 OA 
BRANCH  34  41
HETATM   41  N   UNL     1      -9.343  16.541  66.111  1.00  0.00    -0.351 NA 
HETATM   42  C   UNL     1      -8.020  16.518  65.771  1.00  0.00     0.669 A  
HETATM   43  N   UNL     1      -7.454  17.700  65.919  1.00  0.00    -0.506 NA 
HETATM   44  C   UNL     1      -8.457  18.515  66.404  1.00  0.00    -0.258 A  
HETATM   45  C   UNL     1      -8.496  19.876  66.750  1.00  0.00    -0.328 A  
HETATM   46  N   UNL     1      -7.413  20.730  66.600  1.00  0.00    -0.524 NA 
HETATM   47  N   UNL     1      -9.646  20.380  67.256  1.00  0.00    -0.434 NA 
HETATM   48  H1  UNL     1      -7.441  21.719  66.851  1.00  0.00     0.000 HD 
HETATM   49  C   UNL     1     -10.715  19.562  67.362  1.00  0.00    -0.467 A  
HETATM   50  H2  UNL     1      -7.113  20.673  65.626  1.00  0.00     0.000 HD 
HETATM   51  N   UNL     1     -10.816  18.258  67.015  1.00  0.00    -0.264 NA 
HETATM   52  C   UNL     1      -9.635  17.803  66.557  1.00  0.00    -0.308 A  
ENDBRANCH  34  41
ENDBRANCH  31  32
ENDBRANCH  30  31
ENDBRANCH  27  30
ENDBRANCH  26  27
ENDBRANCH  23  26
ENDBRANCH  22  23
ENDBRANCH  21  22
ENDBRANCH  14  21
ENDBRANCH   8  12
ENDBRANCH   4   6
TORSDOF 11
ENDMDL
MODEL      170
REMARK 921   NORMALIZED FREE ENERGY PREDICTED BY IDOCK:   -5.32 KCAL/MOL
REMARK 922        TOTAL FREE ENERGY PREDICTED BY IDOCK:  -10.94 KCAL/MOL
REMARK 923 INTER-LIGAND FREE ENERGY PREDICTED BY IDOCK:   -8.38 KCAL/MOL
REMARK 924 INTRA-LIGAND FREE ENERGY PREDICTED BY IDOCK:   -2.56 KCAL/MOL
REMARK 927      BINDING AFFINITY PREDICTED BY RF-SCORE:    0.00 PKD
ROOT
HETATM    1  N   UNL     1      -9.500   9.541  64.830  1.00  0.00    -0.431 N  
HETATM    2  H1  UNL     1      -9.541   9.103  65.751  1.00  0.00     0.000 HD 
HETATM    3  H2  UNL     1     -10.110  10.331  64.620  1.00  0.00     0.000 HD 
HETATM    4  C   UNL     1      -8.644   9.089  63.887  1.00  0.00    -0.132 C  
HETATM    5  O   UNL     1      -8.594   9.618  62.777  1.00  0.00    -0.170 OA 
ENDROOT
BRANCH   4   6
HETATM    6  C   UNL     1      -7.798   7.931  64.257  1.00  0.00    -0.136 C  
HETATM    7  C   UNL     1      -8.410   6.734  64.306  1.00  0.00     0.136 C  
HETATM    8  N   UNL     1      -7.748   5.539  64.575  1.00  0.00    -0.084 NA 
HETATM    9  C   UNL     1      -6.318   8.054  64.494  1.00  0.00    -0.056 C  
HETATM   10  C   UNL     1      -6.404   5.620  64.961  1.00  0.00    -0.041 C  
HETATM   11  C   UNL     1      -5.693   6.757  64.945  1.00  0.00    -0.031 C  
BRANCH   8  12
HETATM   12  C   UNL     1      -8.319   4.197  64.328  1.00  0.00    -0.098 C  
HETATM   13  O   UNL     1      -9.720   4.216  64.684  1.00  0.00    -0.164 OA 
HETATM   14  C   UNL     1      -9.822   3.850  66.078  1.00  0.00    -0.121 C  
HETATM   15  H   UNL     1      -7.717   1.009  64.946  1.00  0.00     0.000 HD 
HETATM   16  C   UNL     1      -8.573   3.044  66.427  1.00  0.00    -0.118 C  
HETATM   17  H   UNL     1      -8.152   1.228  67.086  1.00  0.00     0.000 HD 
HETATM   18  C   UNL     1      -7.776   3.001  65.126  1.00  0.00    -0.081 C  
HETATM   19  O   UNL     1      -8.930   1.729  66.869  1.00  0.00    -0.123 OA 
HETATM   20  O   UNL     1      -8.053   1.749  64.452  1.00  0.00    -0.068 OA 
BRANCH  14  21
HETATM   21  C   UNL     1      -9.966   5.105  66.952  1.00  0.00    -0.201 C  
BRANCH  21  22
HETATM   22  O   UNL     1     -10.155   4.761  68.319  1.00  0.00    -0.123 OA 
BRANCH  22  23
HETATM   23  P   UNL     1      -9.634   5.777  69.435  1.00  0.00    -0.156 P  
HETATM   24  O   UNL     1     -10.602   6.797  69.934  1.00  0.00    -0.202 OA 
HETATM   25  O   UNL     1      -9.273   4.775  70.641  1.00  0.00    -0.122 OA 
BRANCH  23  26
HETATM   26  O   UNL     1      -8.209   6.290  68.985  1.00  0.00    -0.111 OA 
BRANCH  26  27
HETATM   27  P   UNL     1      -7.874   7.773  68.547  1.00  0.00    -0.123 P  
HETATM   28  O   UNL     1      -8.996   8.077  67.438  1.00  0.00    -0.132 OA 
HETATM   29  O   UNL     1      -6.524   8.047  67.979  1.00  0.00    -0.053 OA 
BRANCH  27  30
HETATM   30  O   UNL     1      -8.299   8.735  69.759  1.00  0.00    -0.119 OA 
BRANCH  30  31
HETATM   31  C   UNL     1      -8.951   9.976  69.511  1.00  0.00    -0.205 C  
BRANCH  31  32
HETATM   32  C   UNL     1      -8.297  10.796  68.404  1.00  0.00    -0.132 C  
HETATM   33  O   UNL     1      -9.280  11.503  67.623  1.00  0.00    -0.165 OA 
HETATM   34  C   UNL     1      -8.510  12.489  66.909  1.00  0.00    -0.130 C  
HETATM   35  H   UNL     1      -5.456  12.056  69.436  1.00  0.00     0.000 HD 
HETATM   36  C   UNL     1      -7.474  13.004  67.921  1.00  0.00    -0.137 C  
HETATM   37  C   UNL     1      -7.365  11.873  68.947  1.00  0.00    -0.080 C  
HETATM   38  H   UNL     1      -5.557  13.609  67.967  1.00  0.00     0.000 HD 
HETATM   39  O   UNL     1      -6.198  13.291  67.342  1.00  0.00    -0.277 OA 
HETATM   40  O   UNL     1      -6.037  11.385  69.098  1.00  0.00    -0.047 OA 
BRANCH  34  41
HETATM   41  N   UNL     1      -9.371  13.532  66.389  1.00  0.00    -0.221 NA 
HETATM   42  C   UNL     1      -9.435  14.841  66.774  1.00  0.00    -0.254 A  
HETATM   43  N   UNL     1     -10.304  15.523  66.054  1.00  0.00    -0.306 NA 
HETATM   44  C   UNL     1     -10.846  14.599  65.184  1.00  0.00    -0.401 A  
HETATM   45  C   UNL     1     -11.808  14.699  64.164  1.00  0.00    -0.241 A  
HETATM   46  N   UNL     1     -12.406  15.895  63.797  1.00  0.00    -1.018 NA 
HETATM   47  N   UNL     1     -12.170  13.572  63.507  1.00  0.00    -0.675 NA 
HETATM   48  H1  UNL     1     -13.104  15.968  63.057  1.00  0.00     0.000 HD 
HETATM   49  C   UNL     1     -11.557  12.413  63.831  1.00  0.00    -0.441 A  
HETATM   50  H2  UNL     1     -11.659  16.554  63.575  1.00  0.00     0.000 HD 
HETATM   51  N   UNL     1     -10.587  12.201  64.750  1.00  0.00    -0.283 NA 
HETATM   52  C   UNL     1     -10.297  13.345  65.397  1.00  0.00    -0.312 A  
ENDBRANCH  34  41
ENDBRANCH  31  32
ENDBRANCH  30  31
ENDBRANCH  27  30
ENDBRANCH  26  27
ENDBRANCH  23  26
ENDBRANCH  22  23
ENDBRANCH  21  22
ENDBRANCH  14  21
ENDBRANCH   8  12
ENDBRANCH   4   6
TORSDOF 11
ENDMDL
MODEL      171
REMARK 921   NORMALIZED FREE ENERGY PREDICTED BY IDOCK:   -5.31 KCAL/MOL
REMARK 922        TOTAL FREE ENERGY PREDICTED BY IDOCK:  -10.93 KCAL/MOL
REMARK 923 INTER-LIGAND FREE ENERGY PREDICTED BY IDOCK:   -9.16 KCAL/MOL
REMARK 924 INTRA-LIGAND FREE ENERGY PREDICTED BY IDOCK:   -1.77 KCAL/MOL
REMARK 927      BINDING AFFINITY PREDICTED BY RF-SCORE:    0.00 PKD
ROOT
HETATM    1  N   UNL     1      -9.227  20.584  66.583  1.00  0.00    -0.607 N  
HETATM    2  H1  UNL     1      -8.359  20.749  67.092  1.00  0.00     0.000 HD 
HETATM    3  H2  UNL     1      -9.795  21.377  66.285  1.00  0.00     0.000 HD 
HETATM    4  C   UNL     1      -9.633  19.327  66.298  1.00  0.00    -0.362 C  
HETATM    5  O   UNL     1     -10.681  19.128  65.684  1.00  0.00    -0.477 OA 
ENDROOT
BRANCH   4   6
HETATM    6  C   UNL     1      -8.766  18.225  66.773  1.00  0.00    -0.281 C  
HETATM    7  C   UNL     1      -9.168  17.584  67.886  1.00  0.00    -0.265 C  
HETATM    8  N   UNL     1      -8.503  16.487  68.428  1.00  0.00    -0.199 NA 
HETATM    9  C   UNL     1      -7.540  17.779  66.024  1.00  0.00    -0.255 C  
HETATM   10  C   UNL     1      -7.272  16.137  67.862  1.00  0.00    -0.130 C  
HETATM   11  C   UNL     1      -6.775  16.702  66.752  1.00  0.00    -0.241 C  
BRANCH   8  12
HETATM   12  C   UNL     1      -9.083  15.583  69.446  1.00  0.00    -0.280 C  
HETATM   13  O   UNL     1      -9.021  14.227  68.950  1.00  0.00    -0.137 OA 
HETATM   14  C   UNL     1     -10.244  13.969  68.225  1.00  0.00    -0.249 C  
HETATM   15  H   UNL     1     -11.758  15.268  71.356  1.00  0.00     0.000 HD 
HETATM   16  C   UNL     1     -11.298  14.935  68.759  1.00  0.00    -0.287 C  
HETATM   17  H   UNL     1     -13.061  14.818  69.648  1.00  0.00     0.000 HD 
HETATM   18  C   UNL     1     -10.564  15.746  69.823  1.00  0.00    -0.312 C  
HETATM   19  O   UNL     1     -12.405  14.216  69.316  1.00  0.00    -0.311 OA 
HETATM   20  O   UNL     1     -10.842  15.167  71.123  1.00  0.00    -0.233 OA 
BRANCH  14  21
HETATM   21  C   UNL     1     -10.016  14.135  66.715  1.00  0.00    -0.267 C  
BRANCH  21  22
HETATM   22  O   UNL     1      -9.683  12.894  66.106  1.00  0.00    -0.266 OA 
BRANCH  22  23
HETATM   23  P   UNL     1     -10.824  12.109  65.312  1.00  0.00    -0.315 P  
HETATM   24  O   UNL     1     -12.238  12.388  65.699  1.00  0.00    -0.599 OA 
HETATM   25  O   UNL     1     -10.588  12.628  63.808  1.00  0.00    -0.417 OA 
BRANCH  23  26
HETATM   26  O   UNL     1     -10.385  10.594  65.219  1.00  0.00    -0.290 OA 
BRANCH  26  27
HETATM   27  P   UNL     1      -9.361  10.008  64.165  1.00  0.00    -0.172 P  
HETATM   28  O   UNL     1      -8.025  10.849  64.463  1.00  0.00     0.098 OA 
HETATM   29  O   UNL     1      -9.706  10.117  62.719  1.00  0.00    -0.260 OA 
BRANCH  27  30
HETATM   30  O   UNL     1      -8.970   8.530  64.650  1.00  0.00     0.009 OA 
BRANCH  30  31
HETATM   31  C   UNL     1      -7.613   8.100  64.657  1.00  0.00    -0.111 C  
BRANCH  31  32
HETATM   32  C   UNL     1      -7.135   7.616  66.022  1.00  0.00    -0.069 C  
HETATM   33  O   UNL     1      -6.726   8.718  66.856  1.00  0.00    -0.067 OA 
HETATM   34  C   UNL     1      -6.680   8.152  68.179  1.00  0.00    -0.061 C  
HETATM   35  H   UNL     1      -8.928   5.066  67.027  1.00  0.00     0.000 HD 
HETATM   36  C   UNL     1      -7.908   7.231  68.268  1.00  0.00    -0.122 C  
HETATM   37  C   UNL     1      -8.233   6.906  66.808  1.00  0.00    -0.114 C  
HETATM   38  H   UNL     1      -8.435   5.465  69.071  1.00  0.00     0.000 HD 
HETATM   39  O   UNL     1      -7.676   6.034  69.016  1.00  0.00    -0.089 OA 
HETATM   40  O   UNL     1      -8.244   5.508  66.538  1.00  0.00    -0.105 OA 
BRANCH  34  41
HETATM   41  N   UNL     1      -6.675   9.197  69.182  1.00  0.00    -0.050 NA 
HETATM   42  C   UNL     1      -7.031   9.105  70.498  1.00  0.00    -0.082 A  
HETATM   43  N   UNL     1      -6.860  10.247  71.135  1.00  0.00    -0.123 NA 
HETATM   44  C   UNL     1      -6.397  11.123  70.174  1.00  0.00    -0.137 A  
HETATM   45  C   UNL     1      -6.019  12.475  70.220  1.00  0.00    -0.126 A  
HETATM   46  N   UNL     1      -6.008  13.223  71.388  1.00  0.00    -0.555 NA 
HETATM   47  N   UNL     1      -5.648  13.080  69.067  1.00  0.00    -0.069 NA 
HETATM   48  H1  UNL     1      -5.733  14.205  71.421  1.00  0.00     0.000 HD 
HETATM   49  C   UNL     1      -5.614  12.343  67.935  1.00  0.00    -0.085 A  
HETATM   50  H2  UNL     1      -5.429  12.723  72.064  1.00  0.00     0.000 HD 
HETATM   51  N   UNL     1      -5.902  11.031  67.776  1.00  0.00    -0.046 NA 
HETATM   52  C   UNL     1      -6.302  10.494  68.944  1.00  0.00    -0.047 A  
ENDBRANCH  34  41
ENDBRANCH  31  32
ENDBRANCH  30  31
ENDBRANCH  27  30
ENDBRANCH  26  27
ENDBRANCH  23  26
ENDBRANCH  22  23
ENDBRANCH  21  22
ENDBRANCH  14  21
ENDBRANCH   8  12
ENDBRANCH   4   6
TORSDOF 11
ENDMDL
MODEL      172
REMARK 921   NORMALIZED FREE ENERGY PREDICTED BY IDOCK:   -5.30 KCAL/MOL
REMARK 922        TOTAL FREE ENERGY PREDICTED BY IDOCK:  -10.91 KCAL/MOL
REMARK 923 INTER-LIGAND FREE ENERGY PREDICTED BY IDOCK:   -9.05 KCAL/MOL
REMARK 924 INTRA-LIGAND FREE ENERGY PREDICTED BY IDOCK:   -1.86 KCAL/MOL
REMARK 927      BINDING AFFINITY PREDICTED BY RF-SCORE:    0.00 PKD
ROOT
HETATM    1  N   UNL     1     -10.738   7.242  72.398  1.00  0.00    -0.232 N  
HETATM    2  H1  UNL     1      -9.938   7.529  72.963  1.00  0.00     0.000 HD 
HETATM    3  H2  UNL     1     -11.668   7.595  72.624  1.00  0.00     0.000 HD 
HETATM    4  C   UNL     1     -10.579   6.399  71.353  1.00  0.00    -0.230 C  
HETATM    5  O   UNL     1     -11.544   6.053  70.672  1.00  0.00    -0.261 OA 
ENDROOT
BRANCH   4   6
HETATM    6  C   UNL     1      -9.205   5.916  71.092  1.00  0.00    -0.163 C  
HETATM    7  C   UNL     1      -9.065   5.015  70.101  1.00  0.00    -0.120 C  
HETATM    8  N   UNL     1      -7.837   4.508  69.687  1.00  0.00    -0.058 NA 
HETATM    9  C   UNL     1      -8.006   6.446  71.829  1.00  0.00    -0.105 C  
HETATM   10  C   UNL     1      -6.711   4.847  70.446  1.00  0.00    -0.036 C  
HETATM   11  C   UNL     1      -6.730   5.735  71.450  1.00  0.00    -0.061 C  
BRANCH   8  12
HETATM   12  C   UNL     1      -7.625   3.775  68.419  1.00  0.00    -0.061 C  
HETATM   13  O   UNL     1      -6.674   4.507  67.613  1.00  0.00    -0.046 OA 
HETATM   14  C   UNL     1      -7.419   5.434  66.791  1.00  0.00    -0.088 C  
HETATM   15  H   UNL     1      -9.330   2.359  65.971  1.00  0.00     0.000 HD 
HETATM   16  C   UNL     1      -8.834   4.880  66.654  1.00  0.00    -0.110 C  
HETATM   17  H   UNL     1     -10.028   4.289  65.192  1.00  0.00     0.000 HD 
HETATM   18  C   UNL     1      -8.815   3.588  67.464  1.00  0.00    -0.126 C  
HETATM   19  O   UNL     1      -9.147   4.633  65.277  1.00  0.00    -0.142 OA 
HETATM   20  O   UNL     1      -8.594   2.475  66.561  1.00  0.00    -0.100 OA 
BRANCH  14  21
HETATM   21  C   UNL     1      -7.402   6.837  67.418  1.00  0.00    -0.095 C  
BRANCH  21  22
HETATM   22  O   UNL     1      -8.723   7.323  67.624  1.00  0.00    -0.125 OA 
BRANCH  22  23
HETATM   23  P   UNL     1      -9.318   8.367  66.573  1.00  0.00    -0.226 P  
HETATM   24  O   UNL     1      -9.042   8.112  65.129  1.00  0.00     0.064 OA 
HETATM   25  O   UNL     1     -10.899   8.219  66.830  1.00  0.00    -0.228 OA 
BRANCH  23  26
HETATM   26  O   UNL     1      -9.021   9.819  67.122  1.00  0.00    -0.134 OA 
BRANCH  26  27
HETATM   27  P   UNL     1      -9.422  10.346  68.557  1.00  0.00    -0.173 P  
HETATM   28  O   UNL     1      -8.064  11.031  69.076  1.00  0.00    -0.145 OA 
HETATM   29  O   UNL     1      -9.894   9.351  69.562  1.00  0.00    -0.167 OA 
BRANCH  27  30
HETATM   30  O   UNL     1     -10.399  11.602  68.349  1.00  0.00    -0.191 OA 
BRANCH  30  31
HETATM   31  C   UNL     1     -11.268  11.671  67.224  1.00  0.00    -0.304 C  
BRANCH  31  32
HETATM   32  C   UNL     1     -11.526  13.095  66.742  1.00  0.00    -0.343 C  
HETATM   33  O   UNL     1     -10.548  14.013  67.268  1.00  0.00    -0.270 OA 
HETATM   34  C   UNL     1     -10.693  15.184  66.442  1.00  0.00    -0.317 C  
HETATM   35  H   UNL     1     -12.620  13.081  63.655  1.00  0.00     0.000 HD 
HETATM   36  C   UNL     1     -10.901  14.650  65.016  1.00  0.00    -0.417 C  
HETATM   37  C   UNL     1     -11.426  13.227  65.226  1.00  0.00    -0.295 C  
HETATM   38  H   UNL     1     -11.951  15.093  63.360  1.00  0.00     0.000 HD 
HETATM   39  O   UNL     1     -11.822  15.423  64.241  1.00  0.00    -0.398 OA 
HETATM   40  O   UNL     1     -12.683  12.999  64.599  1.00  0.00    -0.658 OA 
BRANCH  34  41
HETATM   41  N   UNL     1      -9.535  16.045  66.569  1.00  0.00    -0.251 NA 
HETATM   42  C   UNL     1      -8.270  15.704  66.957  1.00  0.00    -0.233 A  
HETATM   43  N   UNL     1      -7.449  16.735  66.916  1.00  0.00    -0.196 NA 
HETATM   44  C   UNL     1      -8.231  17.796  66.508  1.00  0.00    -0.269 A  
HETATM   45  C   UNL     1      -7.949  19.150  66.261  1.00  0.00    -0.300 A  
HETATM   46  N   UNL     1      -6.676  19.692  66.359  1.00  0.00    -0.196 NA 
HETATM   47  N   UNL     1      -8.970  19.969  65.911  1.00  0.00    -0.241 NA 
HETATM   48  H1  UNL     1      -6.471  20.675  66.180  1.00  0.00     0.000 HD 
HETATM   49  C   UNL     1     -10.203  19.436  65.771  1.00  0.00    -0.269 A  
HETATM   50  H2  UNL     1      -6.064  19.140  65.757  1.00  0.00     0.000 HD 
HETATM   51  N   UNL     1     -10.587  18.147  65.928  1.00  0.00    -0.494 NA 
HETATM   52  C   UNL     1      -9.542  17.391  66.313  1.00  0.00    -0.242 A  
ENDBRANCH  34  41
ENDBRANCH  31  32
ENDBRANCH  30  31
ENDBRANCH  27  30
ENDBRANCH  26  27
ENDBRANCH  23  26
ENDBRANCH  22  23
ENDBRANCH  21  22
ENDBRANCH  14  21
ENDBRANCH   8  12
ENDBRANCH   4   6
TORSDOF 11
ENDMDL
MODEL      173
REMARK 921   NORMALIZED FREE ENERGY PREDICTED BY IDOCK:   -5.29 KCAL/MOL
REMARK 922        TOTAL FREE ENERGY PREDICTED BY IDOCK:  -10.89 KCAL/MOL
REMARK 923 INTER-LIGAND FREE ENERGY PREDICTED BY IDOCK:   -9.82 KCAL/MOL
REMARK 924 INTRA-LIGAND FREE ENERGY PREDICTED BY IDOCK:   -1.07 KCAL/MOL
REMARK 927      BINDING AFFINITY PREDICTED BY RF-SCORE:    0.00 PKD
ROOT
HETATM    1  N   UNL     1      -9.901   4.011  70.466  1.00  0.00    -0.187 N  
HETATM    2  H1  UNL     1     -10.401   4.783  70.908  1.00  0.00     0.000 HD 
HETATM    3  H2  UNL     1      -9.703   3.166  71.001  1.00  0.00     0.000 HD 
HETATM    4  C   UNL     1      -9.500   4.095  69.178  1.00  0.00    -0.178 C  
HETATM    5  O   UNL     1      -8.896   3.164  68.645  1.00  0.00    -0.094 OA 
ENDROOT
BRANCH   4   6
HETATM    6  C   UNL     1      -9.810   5.356  68.466  1.00  0.00    -0.199 C  
HETATM    7  C   UNL     1      -9.128   6.448  68.858  1.00  0.00    -0.129 C  
HETATM    8  N   UNL     1      -9.254   7.695  68.252  1.00  0.00    -0.139 NA 
HETATM    9  C   UNL     1     -10.773   5.418  67.312  1.00  0.00    -0.180 C  
HETATM   10  C   UNL     1     -10.254   7.842  67.283  1.00  0.00    -0.273 C  
HETATM   11  C   UNL     1     -10.990   6.824  66.812  1.00  0.00    -0.248 C  
BRANCH   8  12
HETATM   12  C   UNL     1      -8.306   8.814  68.447  1.00  0.00    -0.126 C  
HETATM   13  O   UNL     1      -8.254   9.137  69.855  1.00  0.00    -0.112 OA 
HETATM   14  C   UNL     1      -9.268  10.134  70.114  1.00  0.00     0.111 C  
HETATM   15  H   UNL     1      -7.609  11.811  67.247  1.00  0.00     0.000 HD 
HETATM   16  C   UNL     1      -9.546  10.850  68.795  1.00  0.00    -0.189 C  
HETATM   17  H   UNL     1      -9.433  12.695  68.090  1.00  0.00     0.000 HD 
HETATM   18  C   UNL     1      -8.616  10.170  67.793  1.00  0.00    -0.118 C  
HETATM   19  O   UNL     1      -9.259  12.249  68.911  1.00  0.00     0.057 OA 
HETATM   20  O   UNL     1      -7.417  10.972  67.652  1.00  0.00    -0.092 OA 
BRANCH  14  21
HETATM   21  C   UNL     1     -10.530   9.476  70.693  1.00  0.00    -0.308 C  
BRANCH  21  22
HETATM   22  O   UNL     1     -11.236  10.375  71.540  1.00  0.00     0.115 OA 
BRANCH  22  23
HETATM   23  P   UNL     1     -12.687  10.861  71.085  1.00  0.00    -0.390 P  
HETATM   24  O   UNL     1     -12.956  10.924  69.619  1.00  0.00    -0.131 OA 
HETATM   25  O   UNL     1     -13.626   9.727  71.734  1.00  0.00    -0.366 OA 
BRANCH  23  26
HETATM   26  O   UNL     1     -13.054  12.135  71.945  1.00  0.00    -0.446 OA 
BRANCH  26  27
HETATM   27  P   UNL     1     -12.930  13.632  71.449  1.00  0.00    -0.269 P  
HETATM   28  O   UNL     1     -11.835  14.247  72.451  1.00  0.00     0.083 OA 
HETATM   29  O   UNL     1     -14.155  14.480  71.467  1.00  0.00    -0.409 OA 
BRANCH  27  30
HETATM   30  O   UNL     1     -12.154  13.606  70.044  1.00  0.00    -0.319 OA 
BRANCH  30  31
HETATM   31  C   UNL     1     -11.088  14.512  69.783  1.00  0.00    -0.200 C  
BRANCH  31  32
HETATM   32  C   UNL     1     -11.248  15.275  68.472  1.00  0.00    -0.303 C  
HETATM   33  O   UNL     1     -10.763  16.627  68.589  1.00  0.00    -0.310 OA 
HETATM   34  C   UNL     1     -10.628  17.066  67.224  1.00  0.00    -0.267 C  
HETATM   35  H   UNL     1     -10.698  13.298  65.919  1.00  0.00     0.000 HD 
HETATM   36  C   UNL     1     -10.054  15.858  66.466  1.00  0.00    -0.282 C  
HETATM   37  C   UNL     1     -10.441  14.658  67.334  1.00  0.00    -0.255 C  
HETATM   38  H   UNL     1     -10.214  14.967  64.671  1.00  0.00     0.000 HD 
HETATM   39  O   UNL     1     -10.568  15.714  65.139  1.00  0.00    -0.397 OA 
HETATM   40  O   UNL     1     -11.200  13.683  66.628  1.00  0.00    -0.302 OA 
BRANCH  34  41
HETATM   41  N   UNL     1      -9.788  18.244  67.146  1.00  0.00    -0.311 NA 
HETATM   42  C   UNL     1     -10.021  19.401  66.458  1.00  0.00    -0.396 A  
HETATM   43  N   UNL     1      -9.062  20.286  66.647  1.00  0.00    -0.309 NA 
HETATM   44  C   UNL     1      -8.155  19.656  67.475  1.00  0.00    -0.298 A  
HETATM   45  C   UNL     1      -6.938  20.066  68.045  1.00  0.00    -0.286 A  
HETATM   46  N   UNL     1      -6.413  21.340  67.883  1.00  0.00    -0.366 NA 
HETATM   47  N   UNL     1      -6.242  19.175  68.790  1.00  0.00    -0.234 NA 
HETATM   48  H1  UNL     1      -5.530  21.638  68.297  1.00  0.00     0.000 HD 
HETATM   49  C   UNL     1      -6.772  17.949  68.988  1.00  0.00    -0.248 A  
HETATM   50  H2  UNL     1      -7.128  22.004  68.182  1.00  0.00     0.000 HD 
HETATM   51  N   UNL     1      -7.950  17.457  68.539  1.00  0.00    -0.258 NA 
HETATM   52  C   UNL     1      -8.577  18.370  67.774  1.00  0.00    -0.267 A  
ENDBRANCH  34  41
ENDBRANCH  31  32
ENDBRANCH  30  31
ENDBRANCH  27  30
ENDBRANCH  26  27
ENDBRANCH  23  26
ENDBRANCH  22  23
ENDBRANCH  21  22
ENDBRANCH  14  21
ENDBRANCH   8  12
ENDBRANCH   4   6
TORSDOF 11
ENDMDL
MODEL      174
REMARK 921   NORMALIZED FREE ENERGY PREDICTED BY IDOCK:   -5.23 KCAL/MOL
REMARK 922        TOTAL FREE ENERGY PREDICTED BY IDOCK:  -10.80 KCAL/MOL
REMARK 923 INTER-LIGAND FREE ENERGY PREDICTED BY IDOCK:   -9.09 KCAL/MOL
REMARK 924 INTRA-LIGAND FREE ENERGY PREDICTED BY IDOCK:   -1.71 KCAL/MOL
REMARK 927      BINDING AFFINITY PREDICTED BY RF-SCORE:    0.00 PKD
ROOT
HETATM    1  N   UNL     1     -12.659  14.558  64.797  1.00  0.00    -0.583 N  
HETATM    2  H1  UNL     1     -12.701  15.528  65.110  1.00  0.00     0.000 HD 
HETATM    3  H2  UNL     1     -13.099  14.292  63.916  1.00  0.00     0.000 HD 
HETATM    4  C   UNL     1     -12.027  13.621  65.538  1.00  0.00    -0.384 C  
HETATM    5  O   UNL     1     -11.976  12.450  65.161  1.00  0.00    -0.392 OA 
ENDROOT
BRANCH   4   6
HETATM    6  C   UNL     1     -11.424  14.075  66.811  1.00  0.00    -0.379 C  
HETATM    7  C   UNL     1     -10.285  14.785  66.714  1.00  0.00    -0.266 C  
HETATM    8  N   UNL     1      -9.625  15.339  67.809  1.00  0.00    -0.206 NA 
HETATM    9  C   UNL     1     -12.073  13.832  68.146  1.00  0.00    -0.316 C  
HETATM   10  C   UNL     1     -10.099  15.005  69.083  1.00  0.00    -0.245 C  
HETATM   11  C   UNL     1     -11.224  14.308  69.299  1.00  0.00    -0.309 C  
BRANCH   8  12
HETATM   12  C   UNL     1      -8.570  16.371  67.708  1.00  0.00    -0.168 C  
HETATM   13  O   UNL     1      -7.540  15.897  66.812  1.00  0.00    -0.226 OA 
HETATM   14  C   UNL     1      -6.568  15.178  67.603  1.00  0.00    -0.171 C  
HETATM   15  H   UNL     1      -6.684  18.291  69.622  1.00  0.00     0.000 HD 
HETATM   16  C   UNL     1      -6.675  15.698  69.034  1.00  0.00    -0.131 C  
HETATM   17  H   UNL     1      -5.498  16.593  70.348  1.00  0.00     0.000 HD 
HETATM   18  C   UNL     1      -7.780  16.748  68.972  1.00  0.00    -0.213 C  
HETATM   19  O   UNL     1      -5.431  16.269  69.457  1.00  0.00    -0.125 OA 
HETATM   20  O   UNL     1      -7.172  18.057  68.841  1.00  0.00    -0.272 OA 
BRANCH  14  21
HETATM   21  C   UNL     1      -6.820  13.664  67.515  1.00  0.00    -0.137 C  
BRANCH  21  22
HETATM   22  O   UNL     1      -7.119  13.118  68.794  1.00  0.00    -0.100 OA 
BRANCH  22  23
HETATM   23  P   UNL     1      -6.597  11.648  69.131  1.00  0.00    -0.110 P  
HETATM   24  O   UNL     1      -5.900  10.905  68.040  1.00  0.00    -0.046 OA 
HETATM   25  O   UNL     1      -5.543  11.941  70.310  1.00  0.00    -0.113 OA 
BRANCH  23  26
HETATM   26  O   UNL     1      -7.757  10.893  69.895  1.00  0.00     0.043 OA 
BRANCH  26  27
HETATM   27  P   UNL     1      -9.058  10.305  69.216  1.00  0.00    -0.139 P  
HETATM   28  O   UNL     1      -8.564   8.871  68.685  1.00  0.00    -0.130 OA 
HETATM   29  O   UNL     1      -9.668  11.070  68.091  1.00  0.00    -0.163 OA 
BRANCH  27  30
HETATM   30  O   UNL     1     -10.077   9.919  70.392  1.00  0.00    -0.267 OA 
BRANCH  30  31
HETATM   31  C   UNL     1     -11.277   9.205  70.114  1.00  0.00    -0.187 C  
BRANCH  31  32
HETATM   32  C   UNL     1     -11.326   7.824  70.761  1.00  0.00    -0.279 C  
HETATM   33  O   UNL     1     -11.051   6.784  69.802  1.00  0.00    -0.281 OA 
HETATM   34  C   UNL     1     -10.761   5.632  70.616  1.00  0.00    -0.263 C  
HETATM   35  H   UNL     1     -10.119   7.940  73.804  1.00  0.00     0.000 HD 
HETATM   36  C   UNL     1      -9.917   6.165  71.785  1.00  0.00    -0.172 C  
HETATM   37  C   UNL     1     -10.274   7.652  71.852  1.00  0.00    -0.193 C  
HETATM   38  H   UNL     1      -9.669   5.849  73.755  1.00  0.00     0.000 HD 
HETATM   39  O   UNL     1     -10.190   5.519  73.032  1.00  0.00    -0.175 OA 
HETATM   40  O   UNL     1     -10.774   8.048  73.124  1.00  0.00    -0.332 OA 
BRANCH  34  41
HETATM   41  N   UNL     1     -10.083   4.615  69.837  1.00  0.00    -0.235 NA 
HETATM   42  C   UNL     1      -9.399   3.523  70.291  1.00  0.00    -0.172 A  
HETATM   43  N   UNL     1      -8.946   2.780  69.300  1.00  0.00    -0.098 NA 
HETATM   44  C   UNL     1      -9.333   3.444  68.154  1.00  0.00    -0.184 A  
HETATM   45  C   UNL     1      -9.168   3.163  66.788  1.00  0.00    -0.154 A  
HETATM   46  N   UNL     1      -8.551   2.013  66.316  1.00  0.00    -0.107 NA 
HETATM   47  N   UNL     1      -9.631   4.059  65.884  1.00  0.00    -0.182 NA 
HETATM   48  H1  UNL     1      -8.431   1.809  65.324  1.00  0.00     0.000 HD 
HETATM   49  C   UNL     1     -10.271   5.158  66.338  1.00  0.00    -0.266 A  
HETATM   50  H2  UNL     1      -9.034   1.216  66.734  1.00  0.00     0.000 HD 
HETATM   51  N   UNL     1     -10.537   5.509  67.617  1.00  0.00    -0.198 NA 
HETATM   52  C   UNL     1     -10.020   4.605  68.469  1.00  0.00    -0.060 A  
ENDBRANCH  34  41
ENDBRANCH  31  32
ENDBRANCH  30  31
ENDBRANCH  27  30
ENDBRANCH  26  27
ENDBRANCH  23  26
ENDBRANCH  22  23
ENDBRANCH  21  22
ENDBRANCH  14  21
ENDBRANCH   8  12
ENDBRANCH   4   6
TORSDOF 11
ENDMDL
MODEL      175
REMARK 921   NORMALIZED FREE ENERGY PREDICTED BY IDOCK:   -5.22 KCAL/MOL
REMARK 922        TOTAL FREE ENERGY PREDICTED BY IDOCK:  -10.79 KCAL/MOL
REMARK 923 INTER-LIGAND FREE ENERGY PREDICTED BY IDOCK:   -8.61 KCAL/MOL
REMARK 924 INTRA-LIGAND FREE ENERGY PREDICTED BY IDOCK:   -2.18 KCAL/MOL
REMARK 927      BINDING AFFINITY PREDICTED BY RF-SCORE:    0.00 PKD
ROOT
HETATM    1  N   UNL     1     -13.132   7.825  70.909  1.00  0.00    -0.540 N  
HETATM    2  H1  UNL     1     -13.207   7.930  69.897  1.00  0.00     0.000 HD 
HETATM    3  H2  UNL     1     -13.824   7.269  71.412  1.00  0.00     0.000 HD 
HETATM    4  C   UNL     1     -12.126   8.415  71.592  1.00  0.00    -0.313 C  
HETATM    5  O   UNL     1     -12.035   8.290  72.813  1.00  0.00    -0.377 OA 
ENDROOT
BRANCH   4   6
HETATM    6  C   UNL     1     -11.166   9.218  70.801  1.00  0.00    -0.351 C  
HETATM    7  C   UNL     1     -11.696  10.118  69.951  1.00  0.00    -0.179 C  
HETATM    8  N   UNL     1     -10.935  10.994  69.181  1.00  0.00    -0.221 NA 
HETATM    9  C   UNL     1      -9.677   9.105  70.977  1.00  0.00    -0.359 C  
HETATM   10  C   UNL     1      -9.547  10.818  69.189  1.00  0.00    -0.151 C  
HETATM   11  C   UNL     1      -8.910   9.958  69.997  1.00  0.00    -0.194 C  
BRANCH   8  12
HETATM   12  C   UNL     1     -11.481  12.184  68.492  1.00  0.00    -0.300 C  
HETATM   13  O   UNL     1     -12.088  11.763  67.250  1.00  0.00    -0.595 OA 
HETATM   14  C   UNL     1     -11.069  11.810  66.226  1.00  0.00    -0.311 C  
HETATM   15  H   UNL     1     -10.605  15.235  67.581  1.00  0.00     0.000 HD 
HETATM   16  C   UNL     1     -10.006  12.802  66.691  1.00  0.00    -0.245 C  
HETATM   17  H   UNL     1      -9.219  14.498  66.046  1.00  0.00     0.000 HD 
HETATM   18  C   UNL     1     -10.512  13.291  68.045  1.00  0.00    -0.242 C  
HETATM   19  O   UNL     1      -9.881  13.881  65.757  1.00  0.00    -0.291 OA 
HETATM   20  O   UNL     1     -11.204  14.551  67.857  1.00  0.00    -0.272 OA 
BRANCH  14  21
HETATM   21  C   UNL     1     -10.488  10.408  65.985  1.00  0.00    -0.140 C  
BRANCH  21  22
HETATM   22  O   UNL     1      -9.913  10.306  64.688  1.00  0.00    -0.336 OA 
BRANCH  22  23
HETATM   23  P   UNL     1      -8.421   9.751  64.562  1.00  0.00    -0.209 P  
HETATM   24  O   UNL     1      -7.679  10.069  63.307  1.00  0.00    -0.139 OA 
HETATM   25  O   UNL     1      -7.696  10.490  65.792  1.00  0.00    -0.143 OA 
BRANCH  23  26
HETATM   26  O   UNL     1      -8.432   8.242  65.034  1.00  0.00    -0.166 OA 
BRANCH  26  27
HETATM   27  P   UNL     1      -7.764   7.041  64.252  1.00  0.00    -0.095 P  
HETATM   28  O   UNL     1      -6.240   7.091  64.760  1.00  0.00    -0.036 OA 
HETATM   29  O   UNL     1      -7.794   7.073  62.762  1.00  0.00    -0.111 OA 
BRANCH  27  30
HETATM   30  O   UNL     1      -8.314   5.683  64.904  1.00  0.00    -0.137 OA 
BRANCH  30  31
HETATM   31  C   UNL     1      -7.776   5.190  66.126  1.00  0.00    -0.091 C  
BRANCH  31  32
HETATM   32  C   UNL     1      -8.825   4.989  67.215  1.00  0.00    -0.102 C  
HETATM   33  O   UNL     1      -8.213   4.711  68.490  1.00  0.00    -0.083 OA 
HETATM   34  C   UNL     1      -9.275   4.928  69.438  1.00  0.00    -0.109 C  
HETATM   35  H   UNL     1     -11.361   7.008  66.750  1.00  0.00     0.000 HD 
HETATM   36  C   UNL     1     -10.017   6.177  68.934  1.00  0.00    -0.152 C  
HETATM   37  C   UNL     1      -9.677   6.233  67.443  1.00  0.00    -0.120 C  
HETATM   38  H   UNL     1     -11.892   6.893  68.820  1.00  0.00     0.000 HD 
HETATM   39  O   UNL     1     -11.433   6.122  69.132  1.00  0.00    -0.379 OA 
HETATM   40  O   UNL     1     -10.830   6.234  66.609  1.00  0.00    -0.289 OA 
BRANCH  34  41
HETATM   41  N   UNL     1      -8.741   5.080  70.776  1.00  0.00    -0.124 NA 
HETATM   42  C   UNL     1      -9.133   4.439  71.918  1.00  0.00    -0.126 A  
HETATM   43  N   UNL     1      -8.396   4.787  72.954  1.00  0.00    -0.101 NA 
HETATM   44  C   UNL     1      -7.505   5.718  72.460  1.00  0.00    -0.096 A  
HETATM   45  C   UNL     1      -6.462   6.448  73.053  1.00  0.00    -0.068 A  
HETATM   46  N   UNL     1      -6.089   6.300  74.381  1.00  0.00    -0.064 NA 
HETATM   47  N   UNL     1      -5.788   7.343  72.293  1.00  0.00    -0.037 NA 
HETATM   48  H1  UNL     1      -5.331   6.831  74.812  1.00  0.00     0.000 HD 
HETATM   49  C   UNL     1      -6.119   7.458  70.989  1.00  0.00    -0.035 A  
HETATM   50  H2  UNL     1      -5.891   5.310  74.532  1.00  0.00     0.000 HD 
HETATM   51  N   UNL     1      -7.061   6.777  70.296  1.00  0.00    -0.070 NA 
HETATM   52  C   UNL     1      -7.723   5.935  71.109  1.00  0.00    -0.109 A  
ENDBRANCH  34  41
ENDBRANCH  31  32
ENDBRANCH  30  31
ENDBRANCH  27  30
ENDBRANCH  26  27
ENDBRANCH  23  26
ENDBRANCH  22  23
ENDBRANCH  21  22
ENDBRANCH  14  21
ENDBRANCH   8  12
ENDBRANCH   4   6
TORSDOF 11
ENDMDL
MODEL      176
REMARK 921   NORMALIZED FREE ENERGY PREDICTED BY IDOCK:   -5.22 KCAL/MOL
REMARK 922        TOTAL FREE ENERGY PREDICTED BY IDOCK:  -10.77 KCAL/MOL
REMARK 923 INTER-LIGAND FREE ENERGY PREDICTED BY IDOCK:   -9.21 KCAL/MOL
REMARK 924 INTRA-LIGAND FREE ENERGY PREDICTED BY IDOCK:   -1.56 KCAL/MOL
REMARK 927      BINDING AFFINITY PREDICTED BY RF-SCORE:    0.00 PKD
ROOT
HETATM    1  N   UNL     1     -10.980  19.095  65.593  1.00  0.00    -0.188 N  
HETATM    2  H1  UNL     1     -11.751  18.477  65.844  1.00  0.00     0.000 HD 
HETATM    3  H2  UNL     1     -11.108  19.787  64.854  1.00  0.00     0.000 HD 
HETATM    4  C   UNL     1      -9.790  19.009  66.227  1.00  0.00    -0.374 C  
HETATM    5  O   UNL     1      -8.859  19.755  65.924  1.00  0.00    -0.365 OA 
ENDROOT
BRANCH   4   6
HETATM    6  C   UNL     1      -9.671  17.974  67.279  1.00  0.00    -0.297 C  
HETATM    7  C   UNL     1      -8.578  17.189  67.225  1.00  0.00    -0.201 C  
HETATM    8  N   UNL     1      -8.283  16.211  68.172  1.00  0.00    -0.155 NA 
HETATM    9  C   UNL     1     -10.665  17.840  68.400  1.00  0.00    -0.205 C  
HETATM   10  C   UNL     1      -9.256  15.939  69.141  1.00  0.00    -0.253 C  
HETATM   11  C   UNL     1     -10.378  16.657  69.292  1.00  0.00    -0.318 C  
BRANCH   8  12
HETATM   12  C   UNL     1      -6.961  15.563  68.313  1.00  0.00    -0.115 C  
HETATM   13  O   UNL     1      -6.754  14.678  67.190  1.00  0.00    -0.233 OA 
HETATM   14  C   UNL     1      -7.274  13.379  67.554  1.00  0.00    -0.153 C  
HETATM   15  H   UNL     1      -5.136  13.940  70.537  1.00  0.00     0.000 HD 
HETATM   16  C   UNL     1      -7.265  13.300  69.079  1.00  0.00    -0.007 C  
HETATM   17  H   UNL     1      -6.430  12.169  70.470  1.00  0.00     0.000 HD 
HETATM   18  C   UNL     1      -6.709  14.650  69.524  1.00  0.00    -0.158 C  
HETATM   19  O   UNL     1      -6.436  12.218  69.521  1.00  0.00    -0.116 OA 
HETATM   20  O   UNL     1      -5.291  14.505  69.788  1.00  0.00    -0.092 OA 
BRANCH  14  21
HETATM   21  C   UNL     1      -8.683  13.184  66.972  1.00  0.00    -0.189 C  
BRANCH  21  22
HETATM   22  O   UNL     1      -9.235  11.936  67.370  1.00  0.00    -0.171 OA 
BRANCH  22  23
HETATM   23  P   UNL     1     -10.530  11.401  66.604  1.00  0.00    -0.262 P  
HETATM   24  O   UNL     1     -11.842  11.544  67.302  1.00  0.00    -0.609 OA 
HETATM   25  O   UNL     1     -10.539  12.334  65.294  1.00  0.00    -0.270 OA 
BRANCH  23  26
HETATM   26  O   UNL     1     -10.179   9.981  66.006  1.00  0.00    -0.252 OA 
BRANCH  26  27
HETATM   27  P   UNL     1      -9.157   9.720  64.828  1.00  0.00    -0.238 P  
HETATM   28  O   UNL     1      -7.798  10.374  65.385  1.00  0.00    -0.147 OA 
HETATM   29  O   UNL     1      -9.472  10.292  63.488  1.00  0.00    -0.276 OA 
BRANCH  27  30
HETATM   30  O   UNL     1      -8.823   8.151  64.825  1.00  0.00     0.035 OA 
BRANCH  30  31
HETATM   31  C   UNL     1      -7.560   7.673  65.274  1.00  0.00    -0.089 C  
BRANCH  31  32
HETATM   32  C   UNL     1      -7.661   6.681  66.429  1.00  0.00    -0.102 C  
HETATM   33  O   UNL     1      -8.351   7.256  67.556  1.00  0.00    -0.115 OA 
HETATM   34  C   UNL     1      -8.692   6.118  68.370  1.00  0.00    -0.115 C  
HETATM   35  H   UNL     1      -8.124   3.644  65.294  1.00  0.00     0.000 HD 
HETATM   36  C   UNL     1      -9.130   5.028  67.377  1.00  0.00    -0.115 C  
HETATM   37  C   UNL     1      -8.462   5.437  66.062  1.00  0.00    -0.123 C  
HETATM   38  H   UNL     1      -9.003   3.035  67.148  1.00  0.00     0.000 HD 
HETATM   39  O   UNL     1      -8.733   3.708  67.761  1.00  0.00    -0.095 OA 
HETATM   40  O   UNL     1      -7.626   4.419  65.523  1.00  0.00    -0.083 OA 
BRANCH  34  41
HETATM   41  N   UNL     1      -9.721   6.466  69.329  1.00  0.00    -0.136 NA 
HETATM   42  C   UNL     1     -11.035   6.092  69.327  1.00  0.00    -0.381 A  
HETATM   43  N   UNL     1     -11.679   6.556  70.381  1.00  0.00    -0.406 NA 
HETATM   44  C   UNL     1     -10.738   7.286  71.079  1.00  0.00    -0.231 A  
HETATM   45  C   UNL     1     -10.793   8.010  72.281  1.00  0.00    -0.305 A  
HETATM   46  N   UNL     1     -11.927   8.078  73.077  1.00  0.00    -0.633 NA 
HETATM   47  N   UNL     1      -9.685   8.675  72.685  1.00  0.00    -0.212 NA 
HETATM   48  H1  UNL     1     -11.966   8.603  73.951  1.00  0.00     0.000 HD 
HETATM   49  C   UNL     1      -8.565   8.575  71.936  1.00  0.00    -0.188 A  
HETATM   50  H2  UNL     1     -12.210   7.120  73.286  1.00  0.00     0.000 HD 
HETATM   51  N   UNL     1      -8.375   7.871  70.796  1.00  0.00    -0.113 NA 
HETATM   52  C   UNL     1      -9.518   7.265  70.423  1.00  0.00    -0.165 A  
ENDBRANCH  34  41
ENDBRANCH  31  32
ENDBRANCH  30  31
ENDBRANCH  27  30
ENDBRANCH  26  27
ENDBRANCH  23  26
ENDBRANCH  22  23
ENDBRANCH  21  22
ENDBRANCH  14  21
ENDBRANCH   8  12
ENDBRANCH   4   6
TORSDOF 11
ENDMDL
MODEL      177
REMARK 921   NORMALIZED FREE ENERGY PREDICTED BY IDOCK:   -5.22 KCAL/MOL
REMARK 922        TOTAL FREE ENERGY PREDICTED BY IDOCK:  -10.77 KCAL/MOL
REMARK 923 INTER-LIGAND FREE ENERGY PREDICTED BY IDOCK:   -8.80 KCAL/MOL
REMARK 924 INTRA-LIGAND FREE ENERGY PREDICTED BY IDOCK:   -1.98 KCAL/MOL
REMARK 927      BINDING AFFINITY PREDICTED BY RF-SCORE:    0.00 PKD
ROOT
HETATM    1  N   UNL     1      -7.499  12.363  69.110  1.00  0.00    -0.328 N  
HETATM    2  H1  UNL     1      -8.303  11.903  68.683  1.00  0.00     0.000 HD 
HETATM    3  H2  UNL     1      -6.935  11.861  69.796  1.00  0.00     0.000 HD 
HETATM    4  C   UNL     1      -7.170  13.631  68.776  1.00  0.00    -0.100 C  
HETATM    5  O   UNL     1      -6.200  14.186  69.291  1.00  0.00    -0.092 OA 
ENDROOT
BRANCH   4   6
HETATM    6  C   UNL     1      -8.039  14.304  67.784  1.00  0.00    -0.176 C  
HETATM    7  C   UNL     1      -9.143  13.634  67.404  1.00  0.00    -0.222 C  
HETATM    8  N   UNL     1     -10.096  14.151  66.529  1.00  0.00    -0.273 NA 
HETATM    9  C   UNL     1      -7.762  15.692  67.275  1.00  0.00    -0.239 C  
HETATM   10  C   UNL     1      -9.803  15.368  65.904  1.00  0.00    -0.356 C  
HETATM   11  C   UNL     1      -8.737  16.123  66.207  1.00  0.00    -0.373 C  
BRANCH   8  12
HETATM   12  C   UNL     1     -11.449  13.582  66.344  1.00  0.00    -0.331 C  
HETATM   13  O   UNL     1     -11.323  12.181  66.011  1.00  0.00    -0.329 OA 
HETATM   14  C   UNL     1     -11.235  12.081  64.571  1.00  0.00    -0.332 C  
HETATM   15  H   UNL     1     -14.282  14.193  64.760  1.00  0.00     0.000 HD 
HETATM   16  C   UNL     1     -11.888  13.332  63.989  1.00  0.00    -0.455 C  
HETATM   17  H   UNL     1     -13.406  13.758  62.796  1.00  0.00     0.000 HD 
HETATM   18  C   UNL     1     -12.334  14.129  65.212  1.00  0.00    -0.460 C  
HETATM   19  O   UNL     1     -13.000  12.979  63.158  1.00  0.00    -0.355 OA 
HETATM   20  O   UNL     1     -13.735  13.855  65.460  1.00  0.00    -0.389 OA 
BRANCH  14  21
HETATM   21  C   UNL     1      -9.769  11.934  64.134  1.00  0.00    -0.128 C  
BRANCH  21  22
HETATM   22  O   UNL     1      -9.031  11.152  65.066  1.00  0.00    -0.167 OA 
BRANCH  22  23
HETATM   23  P   UNL     1      -8.365   9.794  64.555  1.00  0.00    -0.196 P  
HETATM   24  O   UNL     1      -8.974   9.144  63.359  1.00  0.00    -0.144 OA 
HETATM   25  O   UNL     1      -6.880  10.284  64.177  1.00  0.00    -0.123 OA 
BRANCH  23  26
HETATM   26  O   UNL     1      -8.108   8.884  65.822  1.00  0.00    -0.101 OA 
BRANCH  26  27
HETATM   27  P   UNL     1      -7.573   9.401  67.217  1.00  0.00    -0.091 P  
HETATM   28  O   UNL     1      -8.925   9.793  67.992  1.00  0.00    -0.119 OA 
HETATM   29  O   UNL     1      -6.640  10.563  67.223  1.00  0.00    -0.069 OA 
BRANCH  27  30
HETATM   30  O   UNL     1      -7.053   8.121  68.033  1.00  0.00    -0.082 OA 
BRANCH  30  31
HETATM   31  C   UNL     1      -6.296   7.103  67.387  1.00  0.00    -0.050 C  
BRANCH  31  32
HETATM   32  C   UNL     1      -6.939   5.722  67.470  1.00  0.00    -0.069 C  
HETATM   33  O   UNL     1      -7.275   5.380  68.829  1.00  0.00    -0.063 OA 
HETATM   34  C   UNL     1      -8.185   4.272  68.691  1.00  0.00    -0.083 C  
HETATM   35  H   UNL     1      -8.859   5.193  64.870  1.00  0.00     0.000 HD 
HETATM   36  C   UNL     1      -9.084   4.634  67.498  1.00  0.00    -0.121 C  
HETATM   37  C   UNL     1      -8.252   5.641  66.700  1.00  0.00    -0.105 C  
HETATM   38  H   UNL     1      -9.995   3.735  65.948  1.00  0.00     0.000 HD 
HETATM   39  O   UNL     1      -9.440   3.511  66.685  1.00  0.00    -0.192 OA 
HETATM   40  O   UNL     1      -8.041   5.243  65.350  1.00  0.00    -0.111 OA 
BRANCH  34  41
HETATM   41  N   UNL     1      -8.923   4.062  69.921  1.00  0.00    -0.088 NA 
HETATM   42  C   UNL     1      -9.063   2.903  70.631  1.00  0.00    -0.122 A  
HETATM   43  N   UNL     1      -9.768   3.084  71.731  1.00  0.00    -0.154 NA 
HETATM   44  C   UNL     1     -10.122   4.418  71.711  1.00  0.00    -0.168 A  
HETATM   45  C   UNL     1     -10.855   5.223  72.598  1.00  0.00    -0.253 A  
HETATM   46  N   UNL     1     -11.367   4.760  73.801  1.00  0.00    -0.374 NA 
HETATM   47  N   UNL     1     -11.077   6.516  72.262  1.00  0.00    -0.251 NA 
HETATM   48  H1  UNL     1     -11.899   5.345  74.445  1.00  0.00     0.000 HD 
HETATM   49  C   UNL     1     -10.543   6.983  71.113  1.00  0.00    -0.217 A  
HETATM   50  H2  UNL     1     -10.589   4.359  74.327  1.00  0.00     0.000 HD 
HETATM   51  N   UNL     1      -9.779   6.324  70.210  1.00  0.00    -0.163 NA 
HETATM   52  C   UNL     1      -9.627   5.038  70.575  1.00  0.00    -0.185 A  
ENDBRANCH  34  41
ENDBRANCH  31  32
ENDBRANCH  30  31
ENDBRANCH  27  30
ENDBRANCH  26  27
ENDBRANCH  23  26
ENDBRANCH  22  23
ENDBRANCH  21  22
ENDBRANCH  14  21
ENDBRANCH   8  12
ENDBRANCH   4   6
TORSDOF 11
ENDMDL
MODEL      178
REMARK 921   NORMALIZED FREE ENERGY PREDICTED BY IDOCK:   -5.19 KCAL/MOL
REMARK 922        TOTAL FREE ENERGY PREDICTED BY IDOCK:  -10.72 KCAL/MOL
REMARK 923 INTER-LIGAND FREE ENERGY PREDICTED BY IDOCK:   -9.92 KCAL/MOL
REMARK 924 INTRA-LIGAND FREE ENERGY PREDICTED BY IDOCK:   -0.80 KCAL/MOL
REMARK 927      BINDING AFFINITY PREDICTED BY RF-SCORE:    0.00 PKD
ROOT
HETATM    1  N   UNL     1     -14.283   7.012  71.971  1.00  0.00    -0.604 N  
HETATM    2  H1  UNL     1     -13.735   6.189  71.719  1.00  0.00     0.000 HD 
HETATM    3  H2  UNL     1     -15.297   6.940  72.046  1.00  0.00     0.000 HD 
HETATM    4  C   UNL     1     -13.679   8.198  72.206  1.00  0.00    -0.146 C  
HETATM    5  O   UNL     1     -14.340   9.192  72.510  1.00  0.00    -0.529 OA 
ENDROOT
BRANCH   4   6
HETATM    6  C   UNL     1     -12.205   8.234  72.066  1.00  0.00    -0.398 C  
HETATM    7  C   UNL     1     -11.552   7.085  72.319  1.00  0.00    -0.269 C  
HETATM    8  N   UNL     1     -10.176   6.931  72.173  1.00  0.00    -0.192 NA 
HETATM    9  C   UNL     1     -11.467   9.456  71.593  1.00  0.00    -0.463 C  
HETATM   10  C   UNL     1      -9.426   8.080  71.893  1.00  0.00    -0.182 C  
HETATM   11  C   UNL     1      -9.969   9.275  71.619  1.00  0.00    -0.198 C  
BRANCH   8  12
HETATM   12  C   UNL     1      -9.484   5.624  72.136  1.00  0.00    -0.149 C  
HETATM   13  O   UNL     1      -8.183   5.803  71.534  1.00  0.00    -0.116 OA 
HETATM   14  C   UNL     1      -8.330   5.609  70.109  1.00  0.00    -0.118 C  
HETATM   15  H   UNL     1      -9.995   2.488  71.234  1.00  0.00     0.000 HD 
HETATM   16  C   UNL     1      -9.570   4.745  69.896  1.00  0.00    -0.181 C  
HETATM   17  H   UNL     1      -9.997   2.987  69.097  1.00  0.00     0.000 HD 
HETATM   18  C   UNL     1     -10.096   4.485  71.304  1.00  0.00    -0.155 C  
HETATM   19  O   UNL     1      -9.224   3.524  69.230  1.00  0.00    -0.132 OA 
HETATM   20  O   UNL     1      -9.617   3.192  71.749  1.00  0.00    -0.134 OA 
BRANCH  14  21
HETATM   21  C   UNL     1      -8.436   6.964  69.393  1.00  0.00    -0.133 C  
BRANCH  21  22
HETATM   22  O   UNL     1      -9.672   7.083  68.698  1.00  0.00    -0.138 OA 
BRANCH  22  23
HETATM   23  P   UNL     1      -9.648   7.626  67.197  1.00  0.00    -0.193 P  
HETATM   24  O   UNL     1      -8.533   7.160  66.322  1.00  0.00    -0.124 OA 
HETATM   25  O   UNL     1     -11.033   7.045  66.621  1.00  0.00    -0.219 OA 
BRANCH  23  26
HETATM   26  O   UNL     1      -9.929   9.180  67.247  1.00  0.00    -0.181 OA 
BRANCH  26  27
HETATM   27  P   UNL     1      -8.816  10.303  67.277  1.00  0.00    -0.130 P  
HETATM   28  O   UNL     1      -8.734  10.762  65.739  1.00  0.00    -0.176 OA 
HETATM   29  O   UNL     1      -7.456   9.929  67.758  1.00  0.00    -0.089 OA 
BRANCH  27  30
HETATM   30  O   UNL     1      -9.452  11.586  67.999  1.00  0.00    -0.169 OA 
BRANCH  30  31
HETATM   31  C   UNL     1      -8.752  12.825  68.035  1.00  0.00    -0.194 C  
BRANCH  31  32
HETATM   32  C   UNL     1      -9.571  14.002  67.513  1.00  0.00    -0.228 C  
HETATM   33  O   UNL     1      -9.118  15.248  68.075  1.00  0.00    -0.173 OA 
HETATM   34  C   UNL     1      -9.706  16.247  67.221  1.00  0.00    -0.237 C  
HETATM   35  H   UNL     1     -10.369  13.538  64.371  1.00  0.00     0.000 HD 
HETATM   36  C   UNL     1      -9.579  15.686  65.795  1.00  0.00    -0.326 C  
HETATM   37  C   UNL     1      -9.449  14.175  66.003  1.00  0.00    -0.160 C  
HETATM   38  H   UNL     1     -10.618  15.643  64.075  1.00  0.00     0.000 HD 
HETATM   39  O   UNL     1     -10.697  15.990  64.956  1.00  0.00    -0.513 OA 
HETATM   40  O   UNL     1     -10.445  13.430  65.311  1.00  0.00    -0.300 OA 
BRANCH  34  41
HETATM   41  N   UNL     1      -9.043  17.523  67.395  1.00  0.00    -0.236 NA 
HETATM   42  C   UNL     1      -9.590  18.709  67.798  1.00  0.00    -0.304 A  
HETATM   43  N   UNL     1      -8.683  19.662  67.892  1.00  0.00    -0.319 NA 
HETATM   44  C   UNL     1      -7.500  19.066  67.502  1.00  0.00    -0.231 A  
HETATM   45  C   UNL     1      -6.182  19.540  67.398  1.00  0.00    -0.190 A  
HETATM   46  N   UNL     1      -5.807  20.827  67.755  1.00  0.00    -0.250 NA 
HETATM   47  N   UNL     1      -5.230  18.701  66.925  1.00  0.00    -0.131 NA 
HETATM   48  H1  UNL     1      -4.849  21.171  67.679  1.00  0.00     0.000 HD 
HETATM   49  C   UNL     1      -5.584  17.434  66.620  1.00  0.00    -0.192 A  
HETATM   50  H2  UNL     1      -6.107  20.975  68.719  1.00  0.00     0.000 HD 
HETATM   51  N   UNL     1      -6.799  16.849  66.726  1.00  0.00    -0.212 NA 
HETATM   52  C   UNL     1      -7.710  17.739  67.162  1.00  0.00    -0.205 A  
ENDBRANCH  34  41
ENDBRANCH  31  32
ENDBRANCH  30  31
ENDBRANCH  27  30
ENDBRANCH  26  27
ENDBRANCH  23  26
ENDBRANCH  22  23
ENDBRANCH  21  22
ENDBRANCH  14  21
ENDBRANCH   8  12
ENDBRANCH   4   6
TORSDOF 11
ENDMDL
MODEL      179
REMARK 921   NORMALIZED FREE ENERGY PREDICTED BY IDOCK:   -5.19 KCAL/MOL
REMARK 922        TOTAL FREE ENERGY PREDICTED BY IDOCK:  -10.72 KCAL/MOL
REMARK 923 INTER-LIGAND FREE ENERGY PREDICTED BY IDOCK:   -9.52 KCAL/MOL
REMARK 924 INTRA-LIGAND FREE ENERGY PREDICTED BY IDOCK:   -1.20 KCAL/MOL
REMARK 927      BINDING AFFINITY PREDICTED BY RF-SCORE:    0.00 PKD
ROOT
HETATM    1  N   UNL     1     -10.290  18.418  68.602  1.00  0.00    -0.410 N  
HETATM    2  H1  UNL     1     -10.933  18.217  69.369  1.00  0.00     0.000 HD 
HETATM    3  H2  UNL     1      -9.916  19.361  68.492  1.00  0.00     0.000 HD 
HETATM    4  C   UNL     1      -9.928  17.450  67.732  1.00  0.00    -0.301 C  
HETATM    5  O   UNL     1      -9.153  17.693  66.807  1.00  0.00    -0.245 OA 
ENDROOT
BRANCH   4   6
HETATM    6  C   UNL     1     -10.519  16.110  67.944  1.00  0.00    -0.290 C  
HETATM    7  C   UNL     1     -11.276  15.624  66.942  1.00  0.00    -0.106 C  
HETATM    8  N   UNL     1     -11.852  14.356  66.955  1.00  0.00    -0.407 NA 
HETATM    9  C   UNL     1     -10.239  15.286  69.171  1.00  0.00    -0.242 C  
HETATM   10  C   UNL     1     -11.756  13.617  68.140  1.00  0.00    -0.357 C  
HETATM   11  C   UNL     1     -11.026  13.999  69.198  1.00  0.00    -0.263 C  
BRANCH   8  12
HETATM   12  C   UNL     1     -12.411  13.685  65.760  1.00  0.00    -0.477 C  
HETATM   13  O   UNL     1     -12.211  12.260  65.893  1.00  0.00    -0.634 OA 
HETATM   14  C   UNL     1     -10.932  11.940  65.301  1.00  0.00    -0.302 C  
HETATM   15  H   UNL     1     -12.350  13.868  62.464  1.00  0.00     0.000 HD 
HETATM   16  C   UNL     1     -10.610  13.043  64.297  1.00  0.00    -0.412 C  
HETATM   17  H   UNL     1     -10.267  13.185  62.354  1.00  0.00     0.000 HD 
HETATM   18  C   UNL     1     -11.801  13.993  64.384  1.00  0.00    -0.431 C  
HETATM   19  O   UNL     1     -10.468  12.498  62.979  1.00  0.00    -0.122 OA 
HETATM   20  O   UNL     1     -12.727  13.678  63.315  1.00  0.00    -0.765 OA 
BRANCH  14  21
HETATM   21  C   UNL     1      -9.855  11.816  66.391  1.00  0.00    -0.214 C  
BRANCH  21  22
HETATM   22  O   UNL     1      -8.630  11.338  65.850  1.00  0.00    -0.167 OA 
BRANCH  22  23
HETATM   23  P   UNL     1      -8.531   9.797  65.444  1.00  0.00    -0.167 P  
HETATM   24  O   UNL     1      -9.632   8.900  65.900  1.00  0.00    -0.253 OA 
HETATM   25  O   UNL     1      -8.566   9.882  63.839  1.00  0.00    -0.162 OA 
BRANCH  23  26
HETATM   26  O   UNL     1      -7.049   9.324  65.725  1.00  0.00    -0.084 OA 
BRANCH  26  27
HETATM   27  P   UNL     1      -6.343   9.342  67.139  1.00  0.00    -0.067 P  
HETATM   28  O   UNL     1      -7.572   9.132  68.152  1.00  0.00    -0.083 OA 
HETATM   29  O   UNL     1      -5.581  10.564  67.527  1.00  0.00    -0.044 OA 
BRANCH  27  30
HETATM   30  O   UNL     1      -5.524   7.970  67.282  1.00  0.00    -0.034 OA 
BRANCH  30  31
HETATM   31  C   UNL     1      -6.037   6.755  66.746  1.00  0.00    -0.036 C  
BRANCH  31  32
HETATM   32  C   UNL     1      -6.145   5.635  67.776  1.00  0.00    -0.026 C  
HETATM   33  O   UNL     1      -7.042   5.990  68.846  1.00  0.00    -0.075 OA 
HETATM   34  C   UNL     1      -7.323   4.734  69.492  1.00  0.00    -0.056 C  
HETATM   35  H   UNL     1      -6.041   2.711  66.304  1.00  0.00     0.000 HD 
HETATM   36  C   UNL     1      -7.479   3.717  68.350  1.00  0.00    -0.054 C  
HETATM   37  C   UNL     1      -6.715   4.350  67.184  1.00  0.00    -0.051 C  
HETATM   38  H   UNL     1      -7.052   1.794  67.952  1.00  0.00     0.000 HD 
HETATM   39  O   UNL     1      -6.956   2.422  68.658  1.00  0.00    -0.042 OA 
HETATM   40  O   UNL     1      -5.686   3.511  66.672  1.00  0.00    -0.021 OA 
BRANCH  34  41
HETATM   41  N   UNL     1      -8.501   4.842  70.328  1.00  0.00    -0.090 NA 
HETATM   42  C   UNL     1      -8.835   4.087  71.417  1.00  0.00    -0.104 A  
HETATM   43  N   UNL     1      -9.962   4.491  71.969  1.00  0.00    -0.184 NA 
HETATM   44  C   UNL     1     -10.388   5.540  71.179  1.00  0.00    -0.234 A  
HETATM   45  C   UNL     1     -11.503   6.391  71.245  1.00  0.00    -0.314 A  
HETATM   46  N   UNL     1     -12.445   6.334  72.262  1.00  0.00    -0.528 NA 
HETATM   47  N   UNL     1     -11.669   7.314  70.268  1.00  0.00    -0.183 NA 
HETATM   48  H1  UNL     1     -13.255   6.952  72.309  1.00  0.00     0.000 HD 
HETATM   49  C   UNL     1     -10.730   7.403  69.301  1.00  0.00    -0.185 A  
HETATM   50  H2  UNL     1     -11.944   6.422  73.146  1.00  0.00     0.000 HD 
HETATM   51  N   UNL     1      -9.594   6.681  69.161  1.00  0.00    -0.136 NA 
HETATM   52  C   UNL     1      -9.504   5.756  70.135  1.00  0.00    -0.160 A  
ENDBRANCH  34  41
ENDBRANCH  31  32
ENDBRANCH  30  31
ENDBRANCH  27  30
ENDBRANCH  26  27
ENDBRANCH  23  26
ENDBRANCH  22  23
ENDBRANCH  21  22
ENDBRANCH  14  21
ENDBRANCH   8  12
ENDBRANCH   4   6
TORSDOF 11
ENDMDL
MODEL      180
REMARK 921   NORMALIZED FREE ENERGY PREDICTED BY IDOCK:   -5.17 KCAL/MOL
REMARK 922        TOTAL FREE ENERGY PREDICTED BY IDOCK:  -10.70 KCAL/MOL
REMARK 923 INTER-LIGAND FREE ENERGY PREDICTED BY IDOCK:   -9.00 KCAL/MOL
REMARK 924 INTRA-LIGAND FREE ENERGY PREDICTED BY IDOCK:   -1.70 KCAL/MOL
REMARK 927      BINDING AFFINITY PREDICTED BY RF-SCORE:    0.00 PKD
ROOT
HETATM    1  N   UNL     1     -12.072  14.131  63.774  1.00  0.00    -0.903 N  
HETATM    2  H1  UNL     1     -11.231  14.465  63.303  1.00  0.00     0.000 HD 
HETATM    3  H2  UNL     1     -12.909  14.713  63.783  1.00  0.00     0.000 HD 
HETATM    4  C   UNL     1     -12.089  12.927  64.387  1.00  0.00    -0.410 C  
HETATM    5  O   UNL     1     -13.103  12.524  64.956  1.00  0.00    -0.765 OA 
ENDROOT
BRANCH   4   6
HETATM    6  C   UNL     1     -10.834  12.142  64.346  1.00  0.00    -0.372 C  
HETATM    7  C   UNL     1     -10.106  12.118  65.477  1.00  0.00    -0.248 C  
HETATM    8  N   UNL     1      -8.935  11.379  65.626  1.00  0.00    -0.169 NA 
HETATM    9  C   UNL     1     -10.417  11.344  63.141  1.00  0.00    -0.323 C  
HETATM   10  C   UNL     1      -8.421  10.751  64.486  1.00  0.00    -0.005 C  
HETATM   11  C   UNL     1      -9.061  10.705  63.309  1.00  0.00    -0.266 C  
BRANCH   8  12
HETATM   12  C   UNL     1      -8.297  11.085  66.929  1.00  0.00    -0.138 C  
HETATM   13  O   UNL     1      -8.887  11.937  67.937  1.00  0.00    -0.157 OA 
HETATM   14  C   UNL     1      -8.110  13.155  67.989  1.00  0.00    -0.157 C  
HETATM   15  H   UNL     1      -5.308  10.739  68.289  1.00  0.00     0.000 HD 
HETATM   16  C   UNL     1      -6.720  12.829  67.449  1.00  0.00    -0.134 C  
HETATM   17  H   UNL     1      -4.856  12.879  68.109  1.00  0.00     0.000 HD 
HETATM   18  C   UNL     1      -6.792  11.347  67.092  1.00  0.00    -0.124 C  
HETATM   19  O   UNL     1      -5.722  13.082  68.445  1.00  0.00    -0.065 OA 
HETATM   20  O   UNL     1      -6.239  10.577  68.188  1.00  0.00    -0.050 OA 
BRANCH  14  21
HETATM   21  C   UNL     1      -8.801  14.264  67.180  1.00  0.00    -0.229 C  
BRANCH  21  22
HETATM   22  O   UNL     1      -9.341  15.264  68.036  1.00  0.00    -0.194 OA 
BRANCH  22  23
HETATM   23  P   UNL     1     -10.926  15.453  68.075  1.00  0.00    -0.327 P  
HETATM   24  O   UNL     1     -11.446  16.718  68.671  1.00  0.00    -0.188 OA 
HETATM   25  O   UNL     1     -11.293  15.429  66.510  1.00  0.00    -0.243 OA 
BRANCH  23  26
HETATM   26  O   UNL     1     -11.554  14.097  68.591  1.00  0.00    -0.278 OA 
BRANCH  26  27
HETATM   27  P   UNL     1     -12.013  13.817  70.078  1.00  0.00    -0.299 P  
HETATM   28  O   UNL     1     -13.505  14.412  70.107  1.00  0.00     0.247 OA 
HETATM   29  O   UNL     1     -11.214  14.419  71.183  1.00  0.00     0.030 OA 
BRANCH  27  30
HETATM   30  O   UNL     1     -12.256  12.237  70.212  1.00  0.00    -0.319 OA 
BRANCH  30  31
HETATM   31  C   UNL     1     -11.162  11.326  70.197  1.00  0.00    -0.067 C  
BRANCH  31  32
HETATM   32  C   UNL     1     -11.510   9.968  69.594  1.00  0.00    -0.155 C  
HETATM   33  O   UNL     1     -10.680   9.672  68.454  1.00  0.00    -0.226 OA 
HETATM   34  C   UNL     1     -10.859   8.257  68.256  1.00  0.00     0.085 C  
HETATM   35  H   UNL     1     -12.294   7.835  71.952  1.00  0.00     0.000 HD 
HETATM   36  C   UNL     1     -10.875   7.649  69.668  1.00  0.00    -0.191 C  
HETATM   37  C   UNL     1     -11.277   8.819  70.569  1.00  0.00    -0.247 C  
HETATM   38  H   UNL     1     -11.799   6.182  70.686  1.00  0.00     0.000 HD 
HETATM   39  O   UNL     1     -11.788   6.558  69.813  1.00  0.00    -0.345 OA 
HETATM   40  O   UNL     1     -12.439   8.551  71.345  1.00  0.00    -0.308 OA 
BRANCH  34  41
HETATM   41  N   UNL     1      -9.807   7.722  67.414  1.00  0.00    -0.161 NA 
HETATM   42  C   UNL     1      -8.562   8.239  67.191  1.00  0.00    -0.123 A  
HETATM   43  N   UNL     1      -7.844   7.465  66.401  1.00  0.00    -0.099 NA 
HETATM   44  C   UNL     1      -8.678   6.415  66.078  1.00  0.00    -0.151 A  
HETATM   45  C   UNL     1      -8.503   5.265  65.290  1.00  0.00    -0.147 A  
HETATM   46  N   UNL     1      -7.305   4.942  64.671  1.00  0.00    -0.062 NA 
HETATM   47  N   UNL     1      -9.556   4.430  65.124  1.00  0.00    -0.172 NA 
HETATM   48  H1  UNL     1      -7.178   4.107  64.099  1.00  0.00     0.000 HD 
HETATM   49  C   UNL     1     -10.712   4.717  65.762  1.00  0.00    -0.170 A  
HETATM   50  H2  UNL     1      -6.584   4.928  65.393  1.00  0.00     0.000 HD 
HETATM   51  N   UNL     1     -10.984   5.757  66.584  1.00  0.00    -0.230 NA 
HETATM   52  C   UNL     1      -9.917   6.572  66.678  1.00  0.00    -0.143 A  
ENDBRANCH  34  41
ENDBRANCH  31  32
ENDBRANCH  30  31
ENDBRANCH  27  30
ENDBRANCH  26  27
ENDBRANCH  23  26
ENDBRANCH  22  23
ENDBRANCH  21  22
ENDBRANCH  14  21
ENDBRANCH   8  12
ENDBRANCH   4   6
TORSDOF 11
ENDMDL
MODEL      181
REMARK 921   NORMALIZED FREE ENERGY PREDICTED BY IDOCK:   -5.17 KCAL/MOL
REMARK 922        TOTAL FREE ENERGY PREDICTED BY IDOCK:  -10.69 KCAL/MOL
REMARK 923 INTER-LIGAND FREE ENERGY PREDICTED BY IDOCK:   -9.09 KCAL/MOL
REMARK 924 INTRA-LIGAND FREE ENERGY PREDICTED BY IDOCK:   -1.60 KCAL/MOL
REMARK 927      BINDING AFFINITY PREDICTED BY RF-SCORE:    0.00 PKD
ROOT
HETATM    1  N   UNL     1      -8.714   2.657  73.947  1.00  0.00    -0.071 N  
HETATM    2  H1  UNL     1      -7.942   3.169  74.375  1.00  0.00     0.000 HD 
HETATM    3  H2  UNL     1      -8.690   1.638  73.922  1.00  0.00     0.000 HD 
HETATM    4  C   UNL     1      -9.768   3.314  73.415  1.00  0.00    -0.105 C  
HETATM    5  O   UNL     1     -10.699   2.697  72.899  1.00  0.00    -0.155 OA 
ENDROOT
BRANCH   4   6
HETATM    6  C   UNL     1      -9.728   4.793  73.474  1.00  0.00    -0.153 C  
HETATM    7  C   UNL     1     -10.716   5.444  72.833  1.00  0.00    -0.253 C  
HETATM    8  N   UNL     1     -10.862   6.829  72.843  1.00  0.00    -0.258 NA 
HETATM    9  C   UNL     1      -8.695   5.545  74.267  1.00  0.00    -0.118 C  
HETATM   10  C   UNL     1      -9.836   7.580  73.430  1.00  0.00    -0.310 C  
HETATM   11  C   UNL     1      -8.808   7.039  74.100  1.00  0.00    -0.223 C  
BRANCH   8  12
HETATM   12  C   UNL     1     -12.090   7.540  72.423  1.00  0.00    -0.176 C  
HETATM   13  O   UNL     1     -12.519   7.010  71.148  1.00  0.00    -0.368 OA 
HETATM   14  C   UNL     1     -11.881   7.791  70.113  1.00  0.00     0.237 C  
HETATM   15  H   UNL     1     -13.285  10.601  72.092  1.00  0.00     0.000 HD 
HETATM   16  C   UNL     1     -11.531   9.147  70.719  1.00  0.00    -0.282 C  
HETATM   17  H   UNL     1     -11.976  11.046  70.387  1.00  0.00     0.000 HD 
HETATM   18  C   UNL     1     -12.018   9.053  72.162  1.00  0.00    -0.325 C  
HETATM   19  O   UNL     1     -12.194  10.201  70.009  1.00  0.00    -0.174 OA 
HETATM   20  O   UNL     1     -13.329   9.665  72.253  1.00  0.00    -0.438 OA 
BRANCH  14  21
HETATM   21  C   UNL     1     -10.640   7.057  69.578  1.00  0.00    -0.234 C  
BRANCH  21  22
HETATM   22  O   UNL     1     -10.264   7.550  68.298  1.00  0.00    -0.175 OA 
BRANCH  22  23
HETATM   23  P   UNL     1      -8.896   7.031  67.659  1.00  0.00    -0.117 P  
HETATM   24  O   UNL     1      -8.234   5.868  68.318  1.00  0.00    -0.108 OA 
HETATM   25  O   UNL     1      -9.375   6.588  66.188  1.00  0.00    -0.147 OA 
BRANCH  23  26
HETATM   26  O   UNL     1      -8.001   8.298  67.355  1.00  0.00    -0.104 OA 
BRANCH  26  27
HETATM   27  P   UNL     1      -6.851   8.358  66.272  1.00  0.00    -0.074 P  
HETATM   28  O   UNL     1      -6.561   6.805  65.976  1.00  0.00    -0.048 OA 
HETATM   29  O   UNL     1      -5.578   9.042  66.638  1.00  0.00    -0.039 OA 
BRANCH  27  30
HETATM   30  O   UNL     1      -7.513   8.865  64.901  1.00  0.00    -0.094 OA 
BRANCH  30  31
HETATM   31  C   UNL     1      -7.625  10.255  64.615  1.00  0.00    -0.103 C  
BRANCH  31  32
HETATM   32  C   UNL     1      -9.039  10.799  64.788  1.00  0.00    -0.200 C  
HETATM   33  O   UNL     1      -9.080  11.858  65.765  1.00  0.00    -0.163 OA 
HETATM   34  C   UNL     1     -10.349  12.496  65.531  1.00  0.00    -0.280 C  
HETATM   35  H   UNL     1     -10.613  10.833  61.916  1.00  0.00     0.000 HD 
HETATM   36  C   UNL     1     -10.506  12.537  64.002  1.00  0.00    -0.422 C  
HETATM   37  C   UNL     1      -9.589  11.416  63.506  1.00  0.00    -0.298 C  
HETATM   38  H   UNL     1     -11.946  12.356  62.611  1.00  0.00     0.000 HD 
HETATM   39  O   UNL     1     -11.849  12.331  63.556  1.00  0.00    -0.461 OA 
HETATM   40  O   UNL     1     -10.271  10.449  62.714  1.00  0.00     0.028 OA 
BRANCH  34  41
HETATM   41  N   UNL     1     -10.383  13.808  66.145  1.00  0.00    -0.294 NA 
HETATM   42  C   UNL     1      -9.941  14.992  65.628  1.00  0.00    -0.355 A  
HETATM   43  N   UNL     1     -10.169  16.001  66.445  1.00  0.00    -0.291 NA 
HETATM   44  C   UNL     1     -10.762  15.433  67.554  1.00  0.00    -0.295 A  
HETATM   45  C   UNL     1     -11.250  15.971  68.756  1.00  0.00    -0.360 A  
HETATM   46  N   UNL     1     -11.254  17.330  69.035  1.00  0.00    -0.091 NA 
HETATM   47  N   UNL     1     -11.741  15.123  69.691  1.00  0.00    -0.306 NA 
HETATM   48  H1  UNL     1     -11.608  17.721  69.908  1.00  0.00     0.000 HD 
HETATM   49  C   UNL     1     -11.780  13.804  69.405  1.00  0.00    -0.325 A  
HETATM   50  H2  UNL     1     -11.746  17.796  68.272  1.00  0.00     0.000 HD 
HETATM   51  N   UNL     1     -11.392  13.175  68.271  1.00  0.00    -0.277 NA 
HETATM   52  C   UNL     1     -10.878  14.061  67.397  1.00  0.00    -0.282 A  
ENDBRANCH  34  41
ENDBRANCH  31  32
ENDBRANCH  30  31
ENDBRANCH  27  30
ENDBRANCH  26  27
ENDBRANCH  23  26
ENDBRANCH  22  23
ENDBRANCH  21  22
ENDBRANCH  14  21
ENDBRANCH   8  12
ENDBRANCH   4   6
TORSDOF 11
ENDMDL
MODEL      182
REMARK 921   NORMALIZED FREE ENERGY PREDICTED BY IDOCK:   -5.16 KCAL/MOL
REMARK 922        TOTAL FREE ENERGY PREDICTED BY IDOCK:  -10.68 KCAL/MOL
REMARK 923 INTER-LIGAND FREE ENERGY PREDICTED BY IDOCK:   -8.62 KCAL/MOL
REMARK 924 INTRA-LIGAND FREE ENERGY PREDICTED BY IDOCK:   -2.06 KCAL/MOL
REMARK 927      BINDING AFFINITY PREDICTED BY RF-SCORE:    0.00 PKD
ROOT
HETATM    1  N   UNL     1     -10.636  17.539  65.880  1.00  0.00    -0.290 N  
HETATM    2  H1  UNL     1     -11.652  17.500  65.960  1.00  0.00     0.000 HD 
HETATM    3  H2  UNL     1     -10.164  18.443  65.876  1.00  0.00     0.000 HD 
HETATM    4  C   UNL     1      -9.907  16.405  65.781  1.00  0.00    -0.271 C  
HETATM    5  O   UNL     1      -8.681  16.452  65.684  1.00  0.00    -0.372 OA 
ENDROOT
BRANCH   4   6
HETATM    6  C   UNL     1     -10.658  15.129  65.780  1.00  0.00    -0.364 C  
HETATM    7  C   UNL     1     -10.321  14.236  66.729  1.00  0.00    -0.274 C  
HETATM    8  N   UNL     1     -10.970  13.017  66.906  1.00  0.00    -0.261 NA 
HETATM    9  C   UNL     1     -11.792  14.858  64.830  1.00  0.00    -0.385 C  
HETATM   10  C   UNL     1     -11.921  12.648  65.948  1.00  0.00    -0.438 C  
HETATM   11  C   UNL     1     -12.338  13.458  64.963  1.00  0.00    -0.481 C  
BRANCH   8  12
HETATM   12  C   UNL     1     -10.835  12.171  68.113  1.00  0.00    -0.222 C  
HETATM   13  O   UNL     1      -9.444  11.816  68.279  1.00  0.00    -0.184 OA 
HETATM   14  C   UNL     1      -9.219  10.583  67.560  1.00  0.00    -0.142 C  
HETATM   15  H   UNL     1     -12.177   9.505  69.527  1.00  0.00     0.000 HD 
HETATM   16  C   UNL     1     -10.565   9.873  67.444  1.00  0.00    -0.277 C  
HETATM   17  H   UNL     1     -11.353   8.150  68.010  1.00  0.00     0.000 HD 
HETATM   18  C   UNL     1     -11.546  10.809  68.146  1.00  0.00    -0.197 C  
HETATM   19  O   UNL     1     -10.515   8.591  68.082  1.00  0.00    -0.217 OA 
HETATM   20  O   UNL     1     -11.738  10.348  69.506  1.00  0.00    -0.241 OA 
BRANCH  14  21
HETATM   21  C   UNL     1      -8.595  10.872  66.185  1.00  0.00    -0.169 C  
BRANCH  21  22
HETATM   22  O   UNL     1      -8.951   9.870  65.239  1.00  0.00    -0.164 OA 
BRANCH  22  23
HETATM   23  P   UNL     1      -7.872   8.749  64.882  1.00  0.00    -0.135 P  
HETATM   24  O   UNL     1      -7.672   8.432  63.437  1.00  0.00    -0.125 OA 
HETATM   25  O   UNL     1      -6.521   9.404  65.459  1.00  0.00    -0.067 OA 
BRANCH  23  26
HETATM   26  O   UNL     1      -8.105   7.533  65.864  1.00  0.00    -0.112 OA 
BRANCH  26  27
HETATM   27  P   UNL     1      -7.876   6.012  65.497  1.00  0.00    -0.118 P  
HETATM   28  O   UNL     1      -6.274   5.904  65.417  1.00  0.00    -0.034 OA 
HETATM   29  O   UNL     1      -8.474   5.499  64.231  1.00  0.00    -0.135 OA 
BRANCH  27  30
HETATM   30  O   UNL     1      -8.227   5.148  66.802  1.00  0.00    -0.108 OA 
BRANCH  30  31
HETATM   31  C   UNL     1      -7.202   4.491  67.540  1.00  0.00    -0.069 C  
BRANCH  31  32
HETATM   32  C   UNL     1      -6.863   5.184  68.856  1.00  0.00    -0.051 C  
HETATM   33  O   UNL     1      -7.753   6.287  69.114  1.00  0.00    -0.096 OA 
HETATM   34  C   UNL     1      -7.556   6.570  70.513  1.00  0.00    -0.096 C  
HETATM   35  H   UNL     1      -5.890   2.993  71.087  1.00  0.00     0.000 HD 
HETATM   36  C   UNL     1      -7.441   5.195  71.191  1.00  0.00    -0.079 C  
HETATM   37  C   UNL     1      -7.011   4.259  70.059  1.00  0.00    -0.041 C  
HETATM   38  H   UNL     1      -6.426   4.312  72.685  1.00  0.00     0.000 HD 
HETATM   39  O   UNL     1      -6.497   5.162  72.266  1.00  0.00    -0.040 OA 
HETATM   40  O   UNL     1      -5.798   3.569  70.338  1.00  0.00    -0.016 OA 
BRANCH  34  41
HETATM   41  N   UNL     1      -8.645   7.374  71.029  1.00  0.00    -0.133 NA 
HETATM   42  C   UNL     1      -8.684   8.729  71.200  1.00  0.00    -0.212 A  
HETATM   43  N   UNL     1      -9.855   9.133  71.652  1.00  0.00    -0.286 NA 
HETATM   44  C   UNL     1     -10.595   7.978  71.807  1.00  0.00    -0.238 A  
HETATM   45  C   UNL     1     -11.910   7.738  72.237  1.00  0.00    -0.329 A  
HETATM   46  N   UNL     1     -12.797   8.750  72.575  1.00  0.00    -0.516 NA 
HETATM   47  N   UNL     1     -12.335   6.456  72.328  1.00  0.00    -0.196 NA 
HETATM   48  H1  UNL     1     -13.752   8.576  72.887  1.00  0.00     0.000 HD 
HETATM   49  C   UNL     1     -11.490   5.470  71.957  1.00  0.00    -0.058 A  
HETATM   50  H2  UNL     1     -12.849   9.387  71.779  1.00  0.00     0.000 HD 
HETATM   51  N   UNL     1     -10.228   5.577  71.479  1.00  0.00    -0.205 NA 
HETATM   52  C   UNL     1      -9.847   6.868  71.449  1.00  0.00    -0.178 A  
ENDBRANCH  34  41
ENDBRANCH  31  32
ENDBRANCH  30  31
ENDBRANCH  27  30
ENDBRANCH  26  27
ENDBRANCH  23  26
ENDBRANCH  22  23
ENDBRANCH  21  22
ENDBRANCH  14  21
ENDBRANCH   8  12
ENDBRANCH   4   6
TORSDOF 11
ENDMDL
MODEL      183
REMARK 921   NORMALIZED FREE ENERGY PREDICTED BY IDOCK:   -5.14 KCAL/MOL
REMARK 922        TOTAL FREE ENERGY PREDICTED BY IDOCK:  -10.64 KCAL/MOL
REMARK 923 INTER-LIGAND FREE ENERGY PREDICTED BY IDOCK:   -9.41 KCAL/MOL
REMARK 924 INTRA-LIGAND FREE ENERGY PREDICTED BY IDOCK:   -1.23 KCAL/MOL
REMARK 927      BINDING AFFINITY PREDICTED BY RF-SCORE:    0.00 PKD
ROOT
HETATM    1  N   UNL     1      -9.478  17.040  69.320  1.00  0.00    -0.094 N  
HETATM    2  H1  UNL     1      -8.779  17.339  68.640  1.00  0.00     0.000 HD 
HETATM    3  H2  UNL     1      -9.306  17.182  70.316  1.00  0.00     0.000 HD 
HETATM    4  C   UNL     1     -10.629  16.458  68.918  1.00  0.00    -0.307 C  
HETATM    5  O   UNL     1     -11.473  16.097  69.739  1.00  0.00    -0.321 OA 
ENDROOT
BRANCH   4   6
HETATM    6  C   UNL     1     -10.806  16.271  67.460  1.00  0.00    -0.268 C  
HETATM    7  C   UNL     1     -11.188  15.045  67.056  1.00  0.00    -0.328 C  
HETATM    8  N   UNL     1     -11.459  14.719  65.729  1.00  0.00    -0.344 NA 
HETATM    9  C   UNL     1     -10.646  17.396  66.474  1.00  0.00    -0.184 C  
HETATM   10  C   UNL     1     -11.169  15.684  64.757  1.00  0.00    -0.382 C  
HETATM   11  C   UNL     1     -10.787  16.938  65.043  1.00  0.00    -0.077 C  
BRANCH   8  12
HETATM   12  C   UNL     1     -12.173  13.496  65.302  1.00  0.00    -0.441 C  
HETATM   13  O   UNL     1     -11.681  12.378  66.075  1.00  0.00    -0.389 OA 
HETATM   14  C   UNL     1     -10.563  11.808  65.358  1.00  0.00    -0.277 C  
HETATM   15  H   UNL     1     -13.008  11.848  62.565  1.00  0.00     0.000 HD 
HETATM   16  C   UNL     1     -10.727  12.188  63.889  1.00  0.00    -0.407 C  
HETATM   17  H   UNL     1     -10.935  11.250  62.160  1.00  0.00     0.000 HD 
HETATM   18  C   UNL     1     -12.011  13.011  63.852  1.00  0.00    -0.485 C  
HETATM   19  O   UNL     1     -10.833  11.013  63.074  1.00  0.00    -0.042 OA 
HETATM   20  O   UNL     1     -13.107  12.148  63.461  1.00  0.00    -0.785 OA 
BRANCH  14  21
HETATM   21  C   UNL     1      -9.236  12.317  65.944  1.00  0.00    -0.027 C  
BRANCH  21  22
HETATM   22  O   UNL     1      -8.308  11.252  66.114  1.00  0.00    -0.167 OA 
BRANCH  22  23
HETATM   23  P   UNL     1      -8.280  10.489  67.517  1.00  0.00    -0.114 P  
HETATM   24  O   UNL     1      -7.001   9.825  67.905  1.00  0.00    -0.076 OA 
HETATM   25  O   UNL     1      -8.570  11.691  68.545  1.00  0.00    -0.159 OA 
BRANCH  23  26
HETATM   26  O   UNL     1      -9.602   9.630  67.619  1.00  0.00    -0.139 OA 
BRANCH  26  27
HETATM   27  P   UNL     1     -10.192   9.027  68.956  1.00  0.00    -0.207 P  
HETATM   28  O   UNL     1     -11.440   9.993  69.260  1.00  0.00    -0.168 OA 
HETATM   29  O   UNL     1      -9.303   8.971  70.152  1.00  0.00    -0.167 OA 
BRANCH  27  30
HETATM   30  O   UNL     1     -10.899   7.637  68.582  1.00  0.00    -0.113 OA 
BRANCH  30  31
HETATM   31  C   UNL     1     -10.568   6.950  67.380  1.00  0.00    -0.303 C  
BRANCH  31  32
HETATM   32  C   UNL     1      -9.635   5.763  67.596  1.00  0.00    -0.114 C  
HETATM   33  O   UNL     1      -9.664   5.313  68.964  1.00  0.00    -0.133 OA 
HETATM   34  C   UNL     1      -9.061   4.006  68.911  1.00  0.00    -0.133 C  
HETATM   35  H   UNL     1      -9.649   3.802  64.972  1.00  0.00     0.000 HD 
HETATM   36  C   UNL     1      -9.612   3.358  67.631  1.00  0.00    -0.107 C  
HETATM   37  C   UNL     1     -10.033   4.548  66.765  1.00  0.00    -0.215 C  
HETATM   38  H   UNL     1      -9.000   2.140  66.153  1.00  0.00     0.000 HD 
HETATM   39  O   UNL     1      -8.660   2.540  66.944  1.00  0.00    -0.097 OA 
HETATM   40  O   UNL     1      -9.402   4.559  65.490  1.00  0.00    -0.145 OA 
BRANCH  34  41
HETATM   41  N   UNL     1      -9.366   3.254  70.111  1.00  0.00    -0.161 NA 
HETATM   42  C   UNL     1      -9.209   1.914  70.329  1.00  0.00    -0.102 A  
HETATM   43  N   UNL     1      -9.546   1.573  71.557  1.00  0.00    -0.115 NA 
HETATM   44  C   UNL     1      -9.968   2.747  72.149  1.00  0.00    -0.167 A  
HETATM   45  C   UNL     1     -10.436   3.050  73.437  1.00  0.00    -0.162 A  
HETATM   46  N   UNL     1     -10.519   2.113  74.457  1.00  0.00    -0.138 NA 
HETATM   47  N   UNL     1     -10.828   4.320  73.699  1.00  0.00    -0.251 NA 
HETATM   48  H1  UNL     1     -10.860   2.334  75.393  1.00  0.00     0.000 HD 
HETATM   49  C   UNL     1     -10.706   5.245  72.722  1.00  0.00    -0.243 A  
HETATM   50  H2  UNL     1      -9.594   1.695  74.561  1.00  0.00     0.000 HD 
HETATM   51  N   UNL     1     -10.224   5.087  71.468  1.00  0.00    -0.205 NA 
HETATM   52  C   UNL     1      -9.889   3.801  71.254  1.00  0.00    -0.149 A  
ENDBRANCH  34  41
ENDBRANCH  31  32
ENDBRANCH  30  31
ENDBRANCH  27  30
ENDBRANCH  26  27
ENDBRANCH  23  26
ENDBRANCH  22  23
ENDBRANCH  21  22
ENDBRANCH  14  21
ENDBRANCH   8  12
ENDBRANCH   4   6
TORSDOF 11
ENDMDL
MODEL      184
REMARK 921   NORMALIZED FREE ENERGY PREDICTED BY IDOCK:   -5.13 KCAL/MOL
REMARK 922        TOTAL FREE ENERGY PREDICTED BY IDOCK:  -10.63 KCAL/MOL
REMARK 923 INTER-LIGAND FREE ENERGY PREDICTED BY IDOCK:  -10.10 KCAL/MOL
REMARK 924 INTRA-LIGAND FREE ENERGY PREDICTED BY IDOCK:   -0.52 KCAL/MOL
REMARK 927      BINDING AFFINITY PREDICTED BY RF-SCORE:    0.00 PKD
ROOT
HETATM    1  N   UNL     1      -9.750  20.881  66.989  1.00  0.00    -0.651 N  
HETATM    2  H1  UNL     1      -9.071  20.934  67.749  1.00  0.00     0.000 HD 
HETATM    3  H2  UNL     1     -10.271  21.716  66.719  1.00  0.00     0.000 HD 
HETATM    4  C   UNL     1      -9.966  19.718  66.336  1.00  0.00    -0.470 C  
HETATM    5  O   UNL     1     -10.784  19.655  65.418  1.00  0.00    -0.426 OA 
ENDROOT
BRANCH   4   6
HETATM    6  C   UNL     1      -9.185  18.545  66.790  1.00  0.00    -0.297 C  
HETATM    7  C   UNL     1      -9.568  17.985  67.952  1.00  0.00    -0.284 C  
HETATM    8  N   UNL     1      -8.982  16.841  68.488  1.00  0.00    -0.236 NA 
HETATM    9  C   UNL     1      -8.071  17.949  65.974  1.00  0.00    -0.130 C  
HETATM   10  C   UNL     1      -7.839  16.345  67.850  1.00  0.00    -0.152 C  
HETATM   11  C   UNL     1      -7.370  16.820  66.687  1.00  0.00    -0.297 C  
BRANCH   8  12
HETATM   12  C   UNL     1      -9.575  16.035  69.577  1.00  0.00    -0.200 C  
HETATM   13  O   UNL     1      -9.614  14.651  69.162  1.00  0.00    -0.181 OA 
HETATM   14  C   UNL     1     -10.878  14.428  68.497  1.00  0.00    -0.251 C  
HETATM   15  H   UNL     1     -12.190  15.997  71.595  1.00  0.00     0.000 HD 
HETATM   16  C   UNL     1     -11.851  15.488  69.007  1.00  0.00    -0.354 C  
HETATM   17  H   UNL     1     -13.582  15.531  69.963  1.00  0.00     0.000 HD 
HETATM   18  C   UNL     1     -11.029  16.311  69.995  1.00  0.00    -0.355 C  
HETATM   19  O   UNL     1     -12.976  14.872  69.645  1.00  0.00     0.075 OA 
HETATM   20  O   UNL     1     -11.291  15.827  71.336  1.00  0.00    -0.375 OA 
BRANCH  14  21
HETATM   21  C   UNL     1     -10.698  14.493  66.972  1.00  0.00    -0.291 C  
BRANCH  21  22
HETATM   22  O   UNL     1     -10.305  13.230  66.447  1.00  0.00    -0.275 OA 
BRANCH  22  23
HETATM   23  P   UNL     1     -11.408  12.082  66.331  1.00  0.00    -0.286 P  
HETATM   24  O   UNL     1     -12.012  11.587  67.602  1.00  0.00    -0.630 OA 
HETATM   25  O   UNL     1     -12.549  12.815  65.467  1.00  0.00    -0.611 OA 
BRANCH  23  26
HETATM   26  O   UNL     1     -10.862  10.997  65.319  1.00  0.00    -0.210 OA 
BRANCH  26  27
HETATM   27  P   UNL     1      -9.858  11.287  64.132  1.00  0.00    -0.307 P  
HETATM   28  O   UNL     1      -9.929  12.887  63.990  1.00  0.00    -0.294 OA 
HETATM   29  O   UNL     1     -10.135  10.657  62.810  1.00  0.00    -0.200 OA 
BRANCH  27  30
HETATM   30  O   UNL     1      -8.374  11.044  64.693  1.00  0.00     0.038 OA 
BRANCH  30  31
HETATM   31  C   UNL     1      -8.164  10.402  65.945  1.00  0.00    -0.150 C  
BRANCH  31  32
HETATM   32  C   UNL     1      -7.598   8.991  65.818  1.00  0.00    -0.090 C  
HETATM   33  O   UNL     1      -7.557   8.324  67.094  1.00  0.00    -0.091 OA 
HETATM   34  C   UNL     1      -7.378   6.936  66.753  1.00  0.00    -0.078 C  
HETATM   35  H   UNL     1      -8.572   7.616  63.009  1.00  0.00     0.000 HD 
HETATM   36  C   UNL     1      -8.277   6.701  65.528  1.00  0.00    -0.138 C  
HETATM   37  C   UNL     1      -8.453   8.097  64.925  1.00  0.00    -0.075 C  
HETATM   38  H   UNL     1      -8.272   5.655  63.812  1.00  0.00     0.000 HD 
HETATM   39  O   UNL     1      -7.717   5.800  64.569  1.00  0.00    -0.082 OA 
HETATM   40  O   UNL     1      -8.040   8.172  63.565  1.00  0.00    -0.155 OA 
BRANCH  34  41
HETATM   41  N   UNL     1      -7.710   6.087  67.879  1.00  0.00    -0.096 NA 
HETATM   42  C   UNL     1      -6.936   5.126  68.467  1.00  0.00    -0.057 A  
HETATM   43  N   UNL     1      -7.539   4.575  69.502  1.00  0.00    -0.055 NA 
HETATM   44  C   UNL     1      -8.772   5.193  69.565  1.00  0.00    -0.099 A  
HETATM   45  C   UNL     1      -9.862   5.059  70.441  1.00  0.00    -0.230 A  
HETATM   46  N   UNL     1      -9.855   4.215  71.541  1.00  0.00    -0.183 NA 
HETATM   47  N   UNL     1     -10.976   5.790  70.200  1.00  0.00    -0.324 NA 
HETATM   48  H1  UNL     1     -10.646   4.119  72.177  1.00  0.00     0.000 HD 
HETATM   49  C   UNL     1     -10.971   6.647  69.156  1.00  0.00    -0.287 A  
HETATM   50  H2  UNL     1      -9.039   4.458  72.105  1.00  0.00     0.000 HD 
HETATM   51  N   UNL     1      -9.971   6.900  68.279  1.00  0.00    -0.148 NA 
HETATM   52  C   UNL     1      -8.908   6.119  68.543  1.00  0.00    -0.113 A  
ENDBRANCH  34  41
ENDBRANCH  31  32
ENDBRANCH  30  31
ENDBRANCH  27  30
ENDBRANCH  26  27
ENDBRANCH  23  26
ENDBRANCH  22  23
ENDBRANCH  21  22
ENDBRANCH  14  21
ENDBRANCH   8  12
ENDBRANCH   4   6
TORSDOF 11
ENDMDL
MODEL      185
REMARK 921   NORMALIZED FREE ENERGY PREDICTED BY IDOCK:   -5.12 KCAL/MOL
REMARK 922        TOTAL FREE ENERGY PREDICTED BY IDOCK:  -10.61 KCAL/MOL
REMARK 923 INTER-LIGAND FREE ENERGY PREDICTED BY IDOCK:   -9.22 KCAL/MOL
REMARK 924 INTRA-LIGAND FREE ENERGY PREDICTED BY IDOCK:   -1.39 KCAL/MOL
REMARK 927      BINDING AFFINITY PREDICTED BY RF-SCORE:    0.00 PKD
ROOT
HETATM    1  N   UNL     1     -11.281   4.379  65.021  1.00  0.00    -0.928 N  
HETATM    2  H1  UNL     1     -11.330   5.133  65.706  1.00  0.00     0.000 HD 
HETATM    3  H2  UNL     1     -12.125   3.860  64.781  1.00  0.00     0.000 HD 
HETATM    4  C   UNL     1     -10.109   4.060  64.428  1.00  0.00    -0.190 C  
HETATM    5  O   UNL     1     -10.049   3.150  63.602  1.00  0.00    -0.145 OA 
ENDROOT
BRANCH   4   6
HETATM    6  C   UNL     1      -8.922   4.846  64.835  1.00  0.00    -0.138 C  
HETATM    7  C   UNL     1      -8.941   5.359  66.079  1.00  0.00    -0.147 C  
HETATM    8  N   UNL     1      -7.881   6.068  66.638  1.00  0.00    -0.100 NA 
HETATM    9  C   UNL     1      -7.717   5.010  63.949  1.00  0.00    -0.079 C  
HETATM   10  C   UNL     1      -6.806   6.385  65.800  1.00  0.00    -0.053 C  
HETATM   11  C   UNL     1      -6.678   5.926  64.547  1.00  0.00    -0.046 C  
BRANCH   8  12
HETATM   12  C   UNL     1      -7.748   6.363  68.082  1.00  0.00    -0.104 C  
HETATM   13  O   UNL     1      -8.970   6.981  68.544  1.00  0.00    -0.125 OA 
HETATM   14  C   UNL     1      -8.827   8.410  68.381  1.00  0.00    -0.140 C  
HETATM   15  H   UNL     1      -5.664   7.777  70.219  1.00  0.00     0.000 HD 
HETATM   16  C   UNL     1      -7.332   8.717  68.374  1.00  0.00    -0.086 C  
HETATM   17  H   UNL     1      -6.064   9.792  69.446  1.00  0.00     0.000 HD 
HETATM   18  C   UNL     1      -6.665   7.354  68.538  1.00  0.00    -0.054 C  
HETATM   19  O   UNL     1      -6.995   9.600  69.450  1.00  0.00    -0.051 OA 
HETATM   20  O   UNL     1      -6.334   7.164  69.936  1.00  0.00    -0.033 OA 
BRANCH  14  21
HETATM   21  C   UNL     1      -9.520   8.872  67.090  1.00  0.00    -0.157 C  
BRANCH  21  22
HETATM   22  O   UNL     1     -10.726   9.571  67.376  1.00  0.00    -0.279 OA 
BRANCH  22  23
HETATM   23  P   UNL     1     -10.763  11.149  67.137  1.00  0.00    -0.279 P  
HETATM   24  O   UNL     1     -11.062  11.622  65.754  1.00  0.00    -0.302 OA 
HETATM   25  O   UNL     1     -11.966  11.595  68.107  1.00  0.00    -0.550 OA 
BRANCH  23  26
HETATM   26  O   UNL     1      -9.501  11.769  67.858  1.00  0.00    -0.178 OA 
BRANCH  26  27
HETATM   27  P   UNL     1      -9.116  13.303  67.855  1.00  0.00    -0.218 P  
HETATM   28  O   UNL     1     -10.304  13.968  68.710  1.00  0.00    -0.240 OA 
HETATM   29  O   UNL     1      -9.002  13.994  66.539  1.00  0.00    -0.202 OA 
BRANCH  27  30
HETATM   30  O   UNL     1      -7.843  13.478  68.816  1.00  0.00    -0.118 OA 
BRANCH  30  31
HETATM   31  C   UNL     1      -6.528  13.556  68.278  1.00  0.00    -0.104 C  
BRANCH  31  32
HETATM   32  C   UNL     1      -5.955  14.970  68.276  1.00  0.00    -0.122 C  
HETATM   33  O   UNL     1      -6.572  15.786  67.261  1.00  0.00    -0.180 OA 
HETATM   34  C   UNL     1      -6.218  17.130  67.637  1.00  0.00    -0.144 C  
HETATM   35  H   UNL     1      -5.304  15.946  71.333  1.00  0.00     0.000 HD 
HETATM   36  C   UNL     1      -6.345  17.169  69.169  1.00  0.00    -0.220 C  
HETATM   37  C   UNL     1      -6.206  15.704  69.589  1.00  0.00    -0.164 C  
HETATM   38  H   UNL     1      -5.432  18.002  70.754  1.00  0.00     0.000 HD 
HETATM   39  O   UNL     1      -5.354  17.979  69.807  1.00  0.00    -0.191 OA 
HETATM   40  O   UNL     1      -5.148  15.489  70.516  1.00  0.00    -0.124 OA 
BRANCH  34  41
HETATM   41  N   UNL     1      -7.073  18.089  66.967  1.00  0.00    -0.190 NA 
HETATM   42  C   UNL     1      -6.732  18.988  65.996  1.00  0.00    -0.236 A  
HETATM   43  N   UNL     1      -7.774  19.678  65.576  1.00  0.00    -0.391 NA 
HETATM   44  C   UNL     1      -8.832  19.219  66.335  1.00  0.00    -0.348 A  
HETATM   45  C   UNL     1     -10.199  19.541  66.359  1.00  0.00    -0.479 A  
HETATM   46  N   UNL     1     -10.781  20.453  65.491  1.00  0.00    -0.152 NA 
HETATM   47  N   UNL     1     -10.989  18.935  67.277  1.00  0.00    -0.363 NA 
HETATM   48  H1  UNL     1     -11.774  20.687  65.508  1.00  0.00     0.000 HD 
HETATM   49  C   UNL     1     -10.435  18.014  68.094  1.00  0.00    -0.361 A  
HETATM   50  H2  UNL     1     -10.557  20.154  64.541  1.00  0.00     0.000 HD 
HETATM   51  N   UNL     1      -9.153  17.582  68.131  1.00  0.00    -0.269 NA 
HETATM   52  C   UNL     1      -8.409  18.247  67.227  1.00  0.00    -0.246 A  
ENDBRANCH  34  41
ENDBRANCH  31  32
ENDBRANCH  30  31
ENDBRANCH  27  30
ENDBRANCH  26  27
ENDBRANCH  23  26
ENDBRANCH  22  23
ENDBRANCH  21  22
ENDBRANCH  14  21
ENDBRANCH   8  12
ENDBRANCH   4   6
TORSDOF 11
ENDMDL
MODEL      186
REMARK 921   NORMALIZED FREE ENERGY PREDICTED BY IDOCK:   -5.12 KCAL/MOL
REMARK 922        TOTAL FREE ENERGY PREDICTED BY IDOCK:  -10.61 KCAL/MOL
REMARK 923 INTER-LIGAND FREE ENERGY PREDICTED BY IDOCK:   -9.22 KCAL/MOL
REMARK 924 INTRA-LIGAND FREE ENERGY PREDICTED BY IDOCK:   -1.39 KCAL/MOL
REMARK 927      BINDING AFFINITY PREDICTED BY RF-SCORE:    0.00 PKD
ROOT
HETATM    1  N   UNL     1     -14.408  15.480  71.029  1.00  0.00    -0.815 N  
HETATM    2  H1  UNL     1     -14.281  16.431  70.684  1.00  0.00     0.000 HD 
HETATM    3  H2  UNL     1     -15.324  15.185  71.369  1.00  0.00     0.000 HD 
HETATM    4  C   UNL     1     -13.378  14.605  71.042  1.00  0.00    -0.355 C  
HETATM    5  O   UNL     1     -13.533  13.457  71.458  1.00  0.00    -0.310 OA 
ENDROOT
BRANCH   4   6
HETATM    6  C   UNL     1     -12.075  15.105  70.548  1.00  0.00    -0.390 C  
HETATM    7  C   UNL     1     -12.025  15.465  69.252  1.00  0.00    -0.310 C  
HETATM    8  N   UNL     1     -10.897  16.013  68.646  1.00  0.00    -0.283 NA 
HETATM    9  C   UNL     1     -10.882  15.281  71.446  1.00  0.00    -0.035 C  
HETATM   10  C   UNL     1      -9.716  16.046  69.397  1.00  0.00    -0.248 C  
HETATM   11  C   UNL     1      -9.649  15.716  70.695  1.00  0.00     1.139 C  
BRANCH   8  12
HETATM   12  C   UNL     1     -10.907  16.700  67.336  1.00  0.00    -0.186 C  
HETATM   13  O   UNL     1     -10.597  15.736  66.304  1.00  0.00    -0.306 OA 
HETATM   14  C   UNL     1      -9.162  15.727  66.132  1.00  0.00    -0.350 C  
HETATM   15  H   UNL     1      -9.696  19.390  65.851  1.00  0.00     0.000 HD 
HETATM   16  C   UNL     1      -8.638  17.075  66.620  1.00  0.00    -0.252 C  
HETATM   17  H   UNL     1      -7.645  18.609  65.865  1.00  0.00     0.000 HD 
HETATM   18  C   UNL     1      -9.888  17.821  67.079  1.00  0.00    -0.309 C  
HETATM   19  O   UNL     1      -7.971  17.770  65.560  1.00  0.00    -0.395 OA 
HETATM   20  O   UNL     1     -10.327  18.696  66.010  1.00  0.00    -0.445 OA 
BRANCH  14  21
HETATM   21  C   UNL     1      -8.538  14.550  66.898  1.00  0.00    -0.179 C  
BRANCH  21  22
HETATM   22  O   UNL     1      -7.260  14.895  67.419  1.00  0.00    -0.194 OA 
BRANCH  22  23
HETATM   23  P   UNL     1      -6.342  13.729  68.007  1.00  0.00    -0.160 P  
HETATM   24  O   UNL     1      -5.163  13.314  67.192  1.00  0.00    -0.330 OA 
HETATM   25  O   UNL     1      -5.816  14.391  69.376  1.00  0.00    -0.092 OA 
BRANCH  23  26
HETATM   26  O   UNL     1      -7.299  12.586  68.530  1.00  0.00    -0.106 OA 
BRANCH  26  27
HETATM   27  P   UNL     1      -6.913  11.056  68.637  1.00  0.00    -0.090 P  
HETATM   28  O   UNL     1      -7.879  10.528  69.808  1.00  0.00    -0.139 OA 
HETATM   29  O   UNL     1      -5.500  10.712  68.963  1.00  0.00    -0.042 OA 
BRANCH  27  30
HETATM   30  O   UNL     1      -7.497  10.324  67.335  1.00  0.00    -0.093 OA 
BRANCH  30  31
HETATM   31  C   UNL     1      -8.582  10.888  66.606  1.00  0.00    -0.148 C  
BRANCH  31  32
HETATM   32  C   UNL     1      -9.948  10.568  67.204  1.00  0.00    -0.193 C  
HETATM   33  O   UNL     1      -9.856   9.523  68.193  1.00  0.00    -0.148 OA 
HETATM   34  C   UNL     1     -11.104   9.613  68.907  1.00  0.00    -0.059 C  
HETATM   35  H   UNL     1     -11.732  13.296  67.515  1.00  0.00     0.000 HD 
HETATM   36  C   UNL     1     -11.374  11.118  69.062  1.00  0.00    -0.276 C  
HETATM   37  C   UNL     1     -10.560  11.758  67.935  1.00  0.00    -0.201 C  
HETATM   38  H   UNL     1     -12.924  12.398  69.049  1.00  0.00     0.000 HD 
HETATM   39  O   UNL     1     -12.757  11.468  68.953  1.00  0.00    -0.017 OA 
HETATM   40  O   UNL     1     -11.351  12.555  67.060  1.00  0.00    -0.290 OA 
BRANCH  34  41
HETATM   41  N   UNL     1     -11.019   8.912  70.172  1.00  0.00    -0.238 NA 
HETATM   42  C   UNL     1     -11.015   9.444  71.431  1.00  0.00    -0.373 A  
HETATM   43  N   UNL     1     -10.972   8.508  72.359  1.00  0.00    -0.356 NA 
HETATM   44  C   UNL     1     -10.918   7.318  71.662  1.00  0.00    -0.226 A  
HETATM   45  C   UNL     1     -10.869   5.975  72.070  1.00  0.00    -0.252 A  
HETATM   46  N   UNL     1     -10.917   5.582  73.400  1.00  0.00    -0.361 NA 
HETATM   47  N   UNL     1     -10.769   5.016  71.120  1.00  0.00    -0.079 NA 
HETATM   48  H1  UNL     1     -10.882   4.606  73.696  1.00  0.00     0.000 HD 
HETATM   49  C   UNL     1     -10.768   5.392  69.823  1.00  0.00    -0.210 A  
HETATM   50  H2  UNL     1     -11.757   5.993  73.808  1.00  0.00     0.000 HD 
HETATM   51  N   UNL     1     -10.862   6.640  69.308  1.00  0.00    -0.265 NA 
HETATM   52  C   UNL     1     -10.918   7.551  70.297  1.00  0.00    -0.250 A  
ENDBRANCH  34  41
ENDBRANCH  31  32
ENDBRANCH  30  31
ENDBRANCH  27  30
ENDBRANCH  26  27
ENDBRANCH  23  26
ENDBRANCH  22  23
ENDBRANCH  21  22
ENDBRANCH  14  21
ENDBRANCH   8  12
ENDBRANCH   4   6
TORSDOF 11
ENDMDL
MODEL      187
REMARK 921   NORMALIZED FREE ENERGY PREDICTED BY IDOCK:   -5.10 KCAL/MOL
REMARK 922        TOTAL FREE ENERGY PREDICTED BY IDOCK:  -10.58 KCAL/MOL
REMARK 923 INTER-LIGAND FREE ENERGY PREDICTED BY IDOCK:   -8.69 KCAL/MOL
REMARK 924 INTRA-LIGAND FREE ENERGY PREDICTED BY IDOCK:   -1.89 KCAL/MOL
REMARK 927      BINDING AFFINITY PREDICTED BY RF-SCORE:    0.00 PKD
ROOT
HETATM    1  N   UNL     1     -12.172  13.586  63.050  1.00  0.00    -0.956 N  
HETATM    2  H1  UNL     1     -11.356  13.067  62.726  1.00  0.00     0.000 HD 
HETATM    3  H2  UNL     1     -12.899  13.849  62.384  1.00  0.00     0.000 HD 
HETATM    4  C   UNL     1     -12.301  13.929  64.350  1.00  0.00    -0.361 C  
HETATM    5  O   UNL     1     -13.286  14.556  64.741  1.00  0.00    -0.337 OA 
ENDROOT
BRANCH   4   6
HETATM    6  C   UNL     1     -11.202  13.527  65.257  1.00  0.00    -0.304 C  
HETATM    7  C   UNL     1     -11.047  14.263  66.373  1.00  0.00    -0.325 C  
HETATM    8  N   UNL     1     -10.104  13.982  67.358  1.00  0.00    -0.242 NA 
HETATM    9  C   UNL     1     -10.343  12.319  65.001  1.00  0.00    -0.321 C  
HETATM   10  C   UNL     1      -9.176  12.968  67.091  1.00  0.00    -0.226 C  
HETATM   11  C   UNL     1      -9.236  12.169  66.015  1.00  0.00    -0.119 C  
BRANCH   8  12
HETATM   12  C   UNL     1     -10.120  14.568  68.716  1.00  0.00    -0.239 C  
HETATM   13  O   UNL     1     -10.171  13.496  69.684  1.00  0.00     0.442 OA 
HETATM   14  C   UNL     1     -11.563  13.206  69.944  1.00  0.00    -0.185 C  
HETATM   15  H   UNL     1     -11.686  16.877  70.484  1.00  0.00     0.000 HD 
HETATM   16  C   UNL     1     -12.359  14.462  69.598  1.00  0.00    -0.255 C  
HETATM   17  H   UNL     1     -13.556  15.728  70.534  1.00  0.00     0.000 HD 
HETATM   18  C   UNL     1     -11.305  15.459  69.124  1.00  0.00    -0.315 C  
HETATM   19  O   UNL     1     -13.060  14.946  70.750  1.00  0.00    -0.366 OA 
HETATM   20  O   UNL     1     -10.954  16.326  70.231  1.00  0.00    -0.347 OA 
BRANCH  14  21
HETATM   21  C   UNL     1     -12.017  11.988  69.125  1.00  0.00    -0.268 C  
BRANCH  21  22
HETATM   22  O   UNL     1     -11.854  10.783  69.864  1.00  0.00    -0.280 OA 
BRANCH  22  23
HETATM   23  P   UNL     1     -10.664   9.800  69.458  1.00  0.00    -0.241 P  
HETATM   24  O   UNL     1      -9.290  10.171  69.906  1.00  0.00    -0.199 OA 
HETATM   25  O   UNL     1     -11.099   8.441  70.200  1.00  0.00    -0.245 OA 
BRANCH  23  26
HETATM   26  O   UNL     1     -10.852   9.427  67.933  1.00  0.00    -0.236 OA 
BRANCH  26  27
HETATM   27  P   UNL     1     -10.258   8.140  67.233  1.00  0.00    -0.320 P  
HETATM   28  O   UNL     1      -9.759   8.706  65.814  1.00  0.00    -0.167 OA 
HETATM   29  O   UNL     1     -11.167   6.979  67.015  1.00  0.00    -0.328 OA 
BRANCH  27  30
HETATM   30  O   UNL     1      -8.883   7.783  67.979  1.00  0.00    -0.125 OA 
BRANCH  30  31
HETATM   31  C   UNL     1      -7.738   7.369  67.240  1.00  0.00    -0.116 C  
BRANCH  31  32
HETATM   32  C   UNL     1      -7.290   5.947  67.560  1.00  0.00    -0.077 C  
HETATM   33  O   UNL     1      -7.314   5.695  68.979  1.00  0.00    -0.078 OA 
HETATM   34  C   UNL     1      -7.247   4.260  69.076  1.00  0.00    -0.051 C  
HETATM   35  H   UNL     1      -8.352   3.866  65.265  1.00  0.00     0.000 HD 
HETATM   36  C   UNL     1      -8.152   3.735  67.950  1.00  0.00    -0.084 C  
HETATM   37  C   UNL     1      -8.208   4.893  66.950  1.00  0.00    -0.107 C  
HETATM   38  H   UNL     1      -8.220   2.222  66.628  1.00  0.00     0.000 HD 
HETATM   39  O   UNL     1      -7.661   2.546  67.324  1.00  0.00    -0.064 OA 
HETATM   40  O   UNL     1      -7.780   4.522  65.645  1.00  0.00    -0.091 OA 
BRANCH  34  41
HETATM   41  N   UNL     1      -7.657   3.817  70.394  1.00  0.00    -0.044 NA 
HETATM   42  C   UNL     1      -7.080   2.859  71.178  1.00  0.00    -0.033 A  
HETATM   43  N   UNL     1      -7.689   2.744  72.342  1.00  0.00    -0.053 NA 
HETATM   44  C   UNL     1      -8.725   3.654  72.291  1.00  0.00    -0.092 A  
HETATM   45  C   UNL     1      -9.721   4.019  73.213  1.00  0.00    -0.116 A  
HETATM   46  N   UNL     1      -9.804   3.488  74.492  1.00  0.00    -0.123 NA 
HETATM   47  N   UNL     1     -10.646   4.932  72.836  1.00  0.00    -0.206 NA 
HETATM   48  H1  UNL     1     -10.527   3.753  75.161  1.00  0.00     0.000 HD 
HETATM   49  C   UNL     1     -10.542   5.485  71.608  1.00  0.00    -0.231 A  
HETATM   50  H2  UNL     1      -8.902   3.640  74.944  1.00  0.00     0.000 HD 
HETATM   51  N   UNL     1      -9.605   5.257  70.658  1.00  0.00    -0.166 NA 
HETATM   52  C   UNL     1      -8.738   4.314  71.073  1.00  0.00    -0.093 A  
ENDBRANCH  34  41
ENDBRANCH  31  32
ENDBRANCH  30  31
ENDBRANCH  27  30
ENDBRANCH  26  27
ENDBRANCH  23  26
ENDBRANCH  22  23
ENDBRANCH  21  22
ENDBRANCH  14  21
ENDBRANCH   8  12
ENDBRANCH   4   6
TORSDOF 11
ENDMDL
MODEL      188
REMARK 921   NORMALIZED FREE ENERGY PREDICTED BY IDOCK:   -5.06 KCAL/MOL
REMARK 922        TOTAL FREE ENERGY PREDICTED BY IDOCK:  -10.52 KCAL/MOL
REMARK 923 INTER-LIGAND FREE ENERGY PREDICTED BY IDOCK:   -8.55 KCAL/MOL
REMARK 924 INTRA-LIGAND FREE ENERGY PREDICTED BY IDOCK:   -1.96 KCAL/MOL
REMARK 927      BINDING AFFINITY PREDICTED BY RF-SCORE:    0.00 PKD
ROOT
HETATM    1  N   UNL     1     -11.608  15.081  64.164  1.00  0.00    -0.674 N  
HETATM    2  H1  UNL     1     -11.055  15.854  64.534  1.00  0.00     0.000 HD 
HETATM    3  H2  UNL     1     -11.946  15.117  63.202  1.00  0.00     0.000 HD 
HETATM    4  C   UNL     1     -11.898  14.008  64.934  1.00  0.00    -0.393 C  
HETATM    5  O   UNL     1     -12.566  13.075  64.488  1.00  0.00    -0.598 OA 
ENDROOT
BRANCH   4   6
HETATM    6  C   UNL     1     -11.387  14.029  66.323  1.00  0.00    -0.336 C  
HETATM    7  C   UNL     1     -10.092  14.360  66.480  1.00  0.00    -0.276 C  
HETATM    8  N   UNL     1      -9.472  14.487  67.720  1.00  0.00    -0.207 NA 
HETATM    9  C   UNL     1     -12.269  13.774  67.515  1.00  0.00    -0.262 C  
HETATM   10  C   UNL     1     -10.206  14.103  68.849  1.00  0.00    -0.175 C  
HETATM   11  C   UNL     1     -11.502  13.761  68.813  1.00  0.00    -0.338 C  
BRANCH   8  12
HETATM   12  C   UNL     1      -8.164  15.145  67.933  1.00  0.00    -0.146 C  
HETATM   13  O   UNL     1      -7.147  14.394  67.232  1.00  0.00    -0.163 OA 
HETATM   14  C   UNL     1      -6.636  13.395  68.142  1.00  0.00    -0.118 C  
HETATM   15  H   UNL     1      -6.274  16.352  70.358  1.00  0.00     0.000 HD 
HETATM   16  C   UNL     1      -6.903  13.895  69.559  1.00  0.00    -0.024 C  
HETATM   17  H   UNL     1      -5.841  14.356  71.163  1.00  0.00     0.000 HD 
HETATM   18  C   UNL     1      -7.604  15.236  69.361  1.00  0.00    -0.219 C  
HETATM   19  O   UNL     1      -5.674  14.045  70.280  1.00  0.00    -0.114 OA 
HETATM   20  O   UNL     1      -6.621  16.296  69.475  1.00  0.00    -0.193 OA 
BRANCH  14  21
HETATM   21  C   UNL     1      -7.299  12.035  67.872  1.00  0.00    -0.104 C  
BRANCH  21  22
HETATM   22  O   UNL     1      -7.895  11.510  69.052  1.00  0.00    -0.100 OA 
BRANCH  22  23
HETATM   23  P   UNL     1      -7.355  10.119  69.620  1.00  0.00    -0.161 P  
HETATM   24  O   UNL     1      -6.772   9.162  68.635  1.00  0.00    -0.057 OA 
HETATM   25  O   UNL     1      -6.191  10.607  70.616  1.00  0.00    -0.234 OA 
BRANCH  23  26
HETATM   26  O   UNL     1      -8.442   9.558  70.619  1.00  0.00    -0.200 OA 
BRANCH  26  27
HETATM   27  P   UNL     1      -9.972   9.351  70.275  1.00  0.00    -0.267 P  
HETATM   28  O   UNL     1      -9.976   9.349  68.668  1.00  0.00    -0.163 OA 
HETATM   29  O   UNL     1     -10.946  10.362  70.775  1.00  0.00    -0.262 OA 
BRANCH  27  30
HETATM   30  O   UNL     1     -10.340   7.831  70.634  1.00  0.00    -0.200 OA 
BRANCH  30  31
HETATM   31  C   UNL     1     -11.404   7.161  69.967  1.00  0.00    -0.206 C  
BRANCH  31  32
HETATM   32  C   UNL     1     -11.002   5.809  69.386  1.00  0.00    -0.282 C  
HETATM   33  O   UNL     1     -10.859   5.874  67.954  1.00  0.00    -0.271 OA 
HETATM   34  C   UNL     1     -10.128   4.678  67.625  1.00  0.00    -0.052 C  
HETATM   35  H   UNL     1      -8.947   4.258  71.411  1.00  0.00     0.000 HD 
HETATM   36  C   UNL     1      -9.071   4.533  68.732  1.00  0.00    -0.120 C  
HETATM   37  C   UNL     1      -9.649   5.331  69.903  1.00  0.00    -0.177 C  
HETATM   38  H   UNL     1      -8.168   3.086  69.798  1.00  0.00     0.000 HD 
HETATM   39  O   UNL     1      -8.821   3.177  69.114  1.00  0.00    -0.078 OA 
HETATM   40  O   UNL     1      -9.789   4.556  71.089  1.00  0.00    -0.173 OA 
BRANCH  34  41
HETATM   41  N   UNL     1      -9.557   4.777  66.297  1.00  0.00    -0.161 NA 
HETATM   42  C   UNL     1      -9.618   3.863  65.283  1.00  0.00    -0.185 A  
HETATM   43  N   UNL     1      -9.024   4.302  64.190  1.00  0.00    -0.144 NA 
HETATM   44  C   UNL     1      -8.534   5.547  64.528  1.00  0.00    -0.094 A  
HETATM   45  C   UNL     1      -7.823   6.520  63.806  1.00  0.00    -0.107 A  
HETATM   46  N   UNL     1      -7.499   6.386  62.463  1.00  0.00    -0.058 NA 
HETATM   47  N   UNL     1      -7.433   7.645  64.450  1.00  0.00    -0.092 NA 
HETATM   48  H1  UNL     1      -6.983   7.092  61.939  1.00  0.00     0.000 HD 
HETATM   49  C   UNL     1      -7.785   7.799  65.745  1.00  0.00    -0.099 A  
HETATM   50  H2  UNL     1      -8.368   6.206  61.958  1.00  0.00     0.000 HD 
HETATM   51  N   UNL     1      -8.508   6.964  66.527  1.00  0.00    -0.120 NA 
HETATM   52  C   UNL     1      -8.832   5.849  65.846  1.00  0.00    -0.149 A  
ENDBRANCH  34  41
ENDBRANCH  31  32
ENDBRANCH  30  31
ENDBRANCH  27  30
ENDBRANCH  26  27
ENDBRANCH  23  26
ENDBRANCH  22  23
ENDBRANCH  21  22
ENDBRANCH  14  21
ENDBRANCH   8  12
ENDBRANCH   4   6
TORSDOF 11
ENDMDL
MODEL      189
REMARK 921   NORMALIZED FREE ENERGY PREDICTED BY IDOCK:   -5.05 KCAL/MOL
REMARK 922        TOTAL FREE ENERGY PREDICTED BY IDOCK:  -10.50 KCAL/MOL
REMARK 923 INTER-LIGAND FREE ENERGY PREDICTED BY IDOCK:   -9.81 KCAL/MOL
REMARK 924 INTRA-LIGAND FREE ENERGY PREDICTED BY IDOCK:   -0.69 KCAL/MOL
REMARK 927      BINDING AFFINITY PREDICTED BY RF-SCORE:    0.00 PKD
ROOT
HETATM    1  N   UNL     1      -7.912   9.294  66.263  1.00  0.00    -0.106 N  
HETATM    2  H1  UNL     1      -7.245   8.545  66.449  1.00  0.00     0.000 HD 
HETATM    3  H2  UNL     1      -8.436   9.297  65.388  1.00  0.00     0.000 HD 
HETATM    4  C   UNL     1      -8.110  10.282  67.164  1.00  0.00    -0.121 C  
HETATM    5  O   UNL     1      -8.915  11.186  66.940  1.00  0.00    -0.154 OA 
ENDROOT
BRANCH   4   6
HETATM    6  C   UNL     1      -7.306  10.221  68.406  1.00  0.00    -0.084 C  
HETATM    7  C   UNL     1      -7.042   8.992  68.888  1.00  0.00    -0.069 C  
HETATM    8  N   UNL     1      -6.249   8.757  70.008  1.00  0.00    -0.036 NA 
HETATM    9  C   UNL     1      -6.741  11.449  69.065  1.00  0.00    -0.092 C  
HETATM   10  C   UNL     1      -5.834   9.870  70.748  1.00  0.00    -0.086 C  
HETATM   11  C   UNL     1      -6.036  11.138  70.362  1.00  0.00    -0.126 C  
BRANCH   8  12
HETATM   12  C   UNL     1      -5.690   7.435  70.368  1.00  0.00    -0.024 C  
HETATM   13  O   UNL     1      -6.133   6.463  69.395  1.00  0.00    -0.027 OA 
HETATM   14  C   UNL     1      -7.382   5.909  69.868  1.00  0.00    -0.075 C  
HETATM   15  H   UNL     1      -5.386   5.409  72.958  1.00  0.00     0.000 HD 
HETATM   16  C   UNL     1      -7.415   6.096  71.382  1.00  0.00    -0.093 C  
HETATM   17  H   UNL     1      -7.531   4.945  72.987  1.00  0.00     0.000 HD 
HETATM   18  C   UNL     1      -6.099   6.798  71.705  1.00  0.00    -0.038 C  
HETATM   19  O   UNL     1      -7.511   4.828  72.044  1.00  0.00    -0.077 OA 
HETATM   20  O   UNL     1      -5.133   5.804  72.131  1.00  0.00    -0.016 OA 
BRANCH  14  21
HETATM   21  C   UNL     1      -8.569   6.594  69.173  1.00  0.00    -0.130 C  
BRANCH  21  22
HETATM   22  O   UNL     1      -9.523   7.056  70.121  1.00  0.00    -0.162 OA 
BRANCH  22  23
HETATM   23  P   UNL     1     -10.985   6.415  70.098  1.00  0.00    -0.397 P  
HETATM   24  O   UNL     1     -11.637   6.253  68.766  1.00  0.00    -0.167 OA 
HETATM   25  O   UNL     1     -10.708   4.957  70.719  1.00  0.00    -0.086 OA 
BRANCH  23  26
HETATM   26  O   UNL     1     -11.829   7.113  71.238  1.00  0.00    -0.285 OA 
BRANCH  26  27
HETATM   27  P   UNL     1     -11.791   8.656  71.580  1.00  0.00    -0.376 P  
HETATM   28  O   UNL     1     -10.271   8.877  72.055  1.00  0.00    -0.334 OA 
HETATM   29  O   UNL     1     -12.720   9.164  72.630  1.00  0.00    -0.329 OA 
BRANCH  27  30
HETATM   30  O   UNL     1     -11.850   9.455  70.190  1.00  0.00    -0.109 OA 
BRANCH  30  31
HETATM   31  C   UNL     1     -12.658  10.619  70.052  1.00  0.00    -0.165 C  
BRANCH  31  32
HETATM   32  C   UNL     1     -11.896  11.919  70.290  1.00  0.00    -0.281 C  
HETATM   33  O   UNL     1     -11.517  12.540  69.046  1.00  0.00    -0.264 OA 
HETATM   34  C   UNL     1     -11.172  13.887  69.424  1.00  0.00    -0.224 C  
HETATM   35  H   UNL     1     -13.112  13.501  72.887  1.00  0.00     0.000 HD 
HETATM   36  C   UNL     1     -12.223  14.295  70.469  1.00  0.00    -0.356 C  
HETATM   37  C   UNL     1     -12.735  12.962  71.020  1.00  0.00    -0.251 C  
HETATM   38  H   UNL     1     -12.350  15.366  72.166  1.00  0.00     0.000 HD 
HETATM   39  O   UNL     1     -11.701  15.114  71.520  1.00  0.00    -0.337 OA 
HETATM   40  O   UNL     1     -12.590  12.851  72.431  1.00  0.00     0.079 OA 
BRANCH  34  41
HETATM   41  N   UNL     1     -11.151  14.753  68.263  1.00  0.00    -0.263 NA 
HETATM   42  C   UNL     1     -10.676  16.032  68.175  1.00  0.00    -0.311 A  
HETATM   43  N   UNL     1     -10.773  16.508  66.949  1.00  0.00    -0.235 NA 
HETATM   44  C   UNL     1     -11.366  15.496  66.221  1.00  0.00    -0.004 A  
HETATM   45  C   UNL     1     -11.725  15.379  64.868  1.00  0.00    -0.174 A  
HETATM   46  N   UNL     1     -11.471  16.365  63.925  1.00  0.00    -1.618 NA 
HETATM   47  N   UNL     1     -12.352  14.249  64.462  1.00  0.00    -0.615 NA 
HETATM   48  H1  UNL     1     -11.732  16.279  62.943  1.00  0.00     0.000 HD 
HETATM   49  C   UNL     1     -12.560  13.269  65.368  1.00  0.00    -0.468 A  
HETATM   50  H2  UNL     1     -10.471  16.566  63.958  1.00  0.00     0.000 HD 
HETATM   51  N   UNL     1     -12.215  13.243  66.676  1.00  0.00    -0.344 NA 
HETATM   52  C   UNL     1     -11.634  14.404  67.030  1.00  0.00    -0.384 A  
ENDBRANCH  34  41
ENDBRANCH  31  32
ENDBRANCH  30  31
ENDBRANCH  27  30
ENDBRANCH  26  27
ENDBRANCH  23  26
ENDBRANCH  22  23
ENDBRANCH  21  22
ENDBRANCH  14  21
ENDBRANCH   8  12
ENDBRANCH   4   6
TORSDOF 11
ENDMDL
MODEL      190
REMARK 921   NORMALIZED FREE ENERGY PREDICTED BY IDOCK:   -5.04 KCAL/MOL
REMARK 922        TOTAL FREE ENERGY PREDICTED BY IDOCK:  -10.48 KCAL/MOL
REMARK 923 INTER-LIGAND FREE ENERGY PREDICTED BY IDOCK:   -8.55 KCAL/MOL
REMARK 924 INTRA-LIGAND FREE ENERGY PREDICTED BY IDOCK:   -1.94 KCAL/MOL
REMARK 927      BINDING AFFINITY PREDICTED BY RF-SCORE:    0.00 PKD
ROOT
HETATM    1  N   UNL     1     -12.409  14.009  63.321  1.00  0.00    -1.145 N  
HETATM    2  H1  UNL     1     -11.727  14.714  63.600  1.00  0.00     0.000 HD 
HETATM    3  H2  UNL     1     -13.159  14.260  62.676  1.00  0.00     0.000 HD 
HETATM    4  C   UNL     1     -12.331  12.746  63.794  1.00  0.00    -0.446 C  
HETATM    5  O   UNL     1     -13.154  11.895  63.457  1.00  0.00    -0.715 OA 
ENDROOT
BRANCH   4   6
HETATM    6  C   UNL     1     -11.226  12.456  64.736  1.00  0.00    -0.353 C  
HETATM    7  C   UNL     1     -10.386  11.464  64.386  1.00  0.00    -0.320 C  
HETATM    8  N   UNL     1      -9.262  11.107  65.127  1.00  0.00    -0.212 NA 
HETATM    9  C   UNL     1     -10.991  13.264  65.983  1.00  0.00    -0.292 C  
HETATM   10  C   UNL     1      -9.092  11.719  66.374  1.00  0.00    -0.213 C  
HETATM   11  C   UNL     1      -9.863  12.721  66.823  1.00  0.00    -0.242 C  
BRANCH   8  12
HETATM   12  C   UNL     1      -8.166  10.253  64.617  1.00  0.00    -0.161 C  
HETATM   13  O   UNL     1      -8.670   8.911  64.435  1.00  0.00    -0.160 OA 
HETATM   14  C   UNL     1      -8.464   8.195  65.673  1.00  0.00    -0.156 C  
HETATM   15  H   UNL     1      -5.014   9.496  65.244  1.00  0.00     0.000 HD 
HETATM   16  C   UNL     1      -7.323   8.889  66.413  1.00  0.00    -0.088 C  
HETATM   17  H   UNL     1      -5.525   8.414  67.084  1.00  0.00     0.000 HD 
HETATM   18  C   UNL     1      -6.923  10.040  65.495  1.00  0.00    -0.124 C  
HETATM   19  O   UNL     1      -6.235   7.981  66.623  1.00  0.00    -0.051 OA 
HETATM   20  O   UNL     1      -5.783   9.628  64.701  1.00  0.00    -0.067 OA 
BRANCH  14  21
HETATM   21  C   UNL     1      -9.760   8.169  66.498  1.00  0.00    -0.239 C  
BRANCH  21  22
HETATM   22  O   UNL     1      -9.523   7.680  67.813  1.00  0.00    -0.141 OA 
BRANCH  22  23
HETATM   23  P   UNL     1      -9.936   6.174  68.146  1.00  0.00    -0.170 P  
HETATM   24  O   UNL     1     -11.038   5.972  69.131  1.00  0.00    -0.362 OA 
HETATM   25  O   UNL     1     -10.426   5.647  66.708  1.00  0.00    -0.235 OA 
BRANCH  23  26
HETATM   26  O   UNL     1      -8.604   5.353  68.371  1.00  0.00    -0.097 OA 
BRANCH  26  27
HETATM   27  P   UNL     1      -8.528   3.790  68.598  1.00  0.00    -0.091 P  
HETATM   28  O   UNL     1      -7.405   3.333  67.543  1.00  0.00    -0.057 OA 
HETATM   29  O   UNL     1      -9.768   2.990  68.385  1.00  0.00    -0.116 OA 
BRANCH  27  30
HETATM   30  O   UNL     1      -7.809   3.548  70.012  1.00  0.00    -0.047 OA 
BRANCH  30  31
HETATM   31  C   UNL     1      -8.473   2.845  71.056  1.00  0.00    -0.062 C  
BRANCH  31  32
HETATM   32  C   UNL     1      -8.600   3.650  72.346  1.00  0.00    -0.086 C  
HETATM   33  O   UNL     1      -7.653   4.736  72.382  1.00  0.00    -0.082 OA 
HETATM   34  C   UNL     1      -8.148   5.590  73.431  1.00  0.00    -0.114 C  
HETATM   35  H   UNL     1     -11.738   3.862  73.260  1.00  0.00     0.000 HD 
HETATM   36  C   UNL     1      -9.676   5.599  73.259  1.00  0.00    -0.151 C  
HETATM   37  C   UNL     1      -9.969   4.307  72.492  1.00  0.00    -0.160 C  
HETATM   38  H   UNL     1     -11.337   5.635  74.391  1.00  0.00     0.000 HD 
HETATM   39  O   UNL     1     -10.393   5.630  74.496  1.00  0.00    -0.269 OA 
HETATM   40  O   UNL     1     -10.885   3.454  73.169  1.00  0.00    -0.178 OA 
BRANCH  34  41
HETATM   41  N   UNL     1      -7.554   6.909  73.338  1.00  0.00    -0.081 NA 
HETATM   42  C   UNL     1      -7.302   7.793  74.349  1.00  0.00    -0.146 A  
HETATM   43  N   UNL     1      -6.709   8.885  73.910  1.00  0.00    -0.350 NA 
HETATM   44  C   UNL     1      -6.600   8.707  72.546  1.00  0.00    -0.040 A  
HETATM   45  C   UNL     1      -6.056   9.498  71.521  1.00  0.00    -0.000 A  
HETATM   46  N   UNL     1      -5.426  10.712  71.750  1.00  0.00    -0.314 NA 
HETATM   47  N   UNL     1      -6.151   9.055  70.245  1.00  0.00    -0.037 NA 
HETATM   48  H1  UNL     1      -5.030  11.286  71.006  1.00  0.00     0.000 HD 
HETATM   49  C   UNL     1      -6.724   7.852  70.022  1.00  0.00    -0.041 A  
HETATM   50  H2  UNL     1      -4.684  10.546  72.432  1.00  0.00     0.000 HD 
HETATM   51  N   UNL     1      -7.233   6.982  70.924  1.00  0.00    -0.070 NA 
HETATM   52  C   UNL     1      -7.147   7.492  72.166  1.00  0.00    -0.067 A  
ENDBRANCH  34  41
ENDBRANCH  31  32
ENDBRANCH  30  31
ENDBRANCH  27  30
ENDBRANCH  26  27
ENDBRANCH  23  26
ENDBRANCH  22  23
ENDBRANCH  21  22
ENDBRANCH  14  21
ENDBRANCH   8  12
ENDBRANCH   4   6
TORSDOF 11
ENDMDL
MODEL      191
REMARK 921   NORMALIZED FREE ENERGY PREDICTED BY IDOCK:   -5.02 KCAL/MOL
REMARK 922        TOTAL FREE ENERGY PREDICTED BY IDOCK:  -10.44 KCAL/MOL
REMARK 923 INTER-LIGAND FREE ENERGY PREDICTED BY IDOCK:   -8.99 KCAL/MOL
REMARK 924 INTRA-LIGAND FREE ENERGY PREDICTED BY IDOCK:   -1.45 KCAL/MOL
REMARK 927      BINDING AFFINITY PREDICTED BY RF-SCORE:    0.00 PKD
ROOT
HETATM    1  N   UNL     1     -11.375   5.232  73.482  1.00  0.00    -0.473 N  
HETATM    2  H1  UNL     1     -10.986   4.507  74.085  1.00  0.00     0.000 HD 
HETATM    3  H2  UNL     1     -12.232   5.711  73.758  1.00  0.00     0.000 HD 
HETATM    4  C   UNL     1     -10.767   5.565  72.322  1.00  0.00    -0.231 C  
HETATM    5  O   UNL     1     -11.236   6.441  71.594  1.00  0.00    -0.254 OA 
ENDROOT
BRANCH   4   6
HETATM    6  C   UNL     1      -9.535   4.820  71.978  1.00  0.00    -0.186 C  
HETATM    7  C   UNL     1      -9.561   4.116  70.831  1.00  0.00    -0.179 C  
HETATM    8  N   UNL     1      -8.468   3.412  70.332  1.00  0.00    -0.056 NA 
HETATM    9  C   UNL     1      -8.285   4.894  72.812  1.00  0.00    -0.105 C  
HETATM   10  C   UNL     1      -7.336   3.317  71.150  1.00  0.00    -0.033 C  
HETATM   11  C   UNL     1      -7.197   3.979  72.308  1.00  0.00    -0.057 C  
BRANCH   8  12
HETATM   12  C   UNL     1      -8.370   2.903  68.947  1.00  0.00    -0.064 C  
HETATM   13  O   UNL     1      -7.373   3.673  68.238  1.00  0.00    -0.054 OA 
HETATM   14  C   UNL     1      -8.042   4.799  67.628  1.00  0.00    -0.097 C  
HETATM   15  H   UNL     1     -10.283   2.120  66.371  1.00  0.00     0.000 HD 
HETATM   16  C   UNL     1      -9.511   4.418  67.463  1.00  0.00    -0.166 C  
HETATM   17  H   UNL     1     -10.801   4.216  65.978  1.00  0.00     0.000 HD 
HETATM   18  C   UNL     1      -9.601   3.005  68.031  1.00  0.00    -0.065 C  
HETATM   19  O   UNL     1      -9.887   4.454  66.081  1.00  0.00    -0.192 OA 
HETATM   20  O   UNL     1      -9.522   2.057  66.937  1.00  0.00     0.008 OA 
BRANCH  14  21
HETATM   21  C   UNL     1      -7.863   6.059  68.491  1.00  0.00    -0.100 C  
BRANCH  21  22
HETATM   22  O   UNL     1      -6.597   6.664  68.260  1.00  0.00    -0.053 OA 
BRANCH  22  23
HETATM   23  P   UNL     1      -6.499   7.816  67.158  1.00  0.00    -0.058 P  
HETATM   24  O   UNL     1      -5.742   9.048  67.526  1.00  0.00    -0.038 OA 
HETATM   25  O   UNL     1      -5.714   7.063  65.973  1.00  0.00    -0.029 OA 
BRANCH  23  26
HETATM   26  O   UNL     1      -7.940   8.008  66.539  1.00  0.00    -0.098 OA 
BRANCH  26  27
HETATM   27  P   UNL     1      -8.944   9.168  66.921  1.00  0.00    -0.129 P  
HETATM   28  O   UNL     1      -8.686   9.358  68.496  1.00  0.00    -0.126 OA 
HETATM   29  O   UNL     1     -10.398   8.945  66.678  1.00  0.00    -0.271 OA 
BRANCH  27  30
HETATM   30  O   UNL     1      -8.363  10.527  66.298  1.00  0.00    -0.140 OA 
BRANCH  30  31
HETATM   31  C   UNL     1      -9.214  11.438  65.610  1.00  0.00    -0.193 C  
BRANCH  31  32
HETATM   32  C   UNL     1      -9.861  12.474  66.524  1.00  0.00    -0.246 C  
HETATM   33  O   UNL     1      -9.485  13.813  66.149  1.00  0.00    -0.249 OA 
HETATM   34  C   UNL     1     -10.446  14.644  66.828  1.00  0.00    -0.277 C  
HETATM   35  H   UNL     1     -12.886  11.536  67.358  1.00  0.00     0.000 HD 
HETATM   36  C   UNL     1     -11.787  13.905  66.693  1.00  0.00    -0.420 C  
HETATM   37  C   UNL     1     -11.384  12.449  66.449  1.00  0.00    -0.342 C  
HETATM   38  H   UNL     1     -13.452  13.559  67.766  1.00  0.00     0.000 HD 
HETATM   39  O   UNL     1     -12.623  14.016  67.849  1.00  0.00     0.065 OA 
HETATM   40  O   UNL     1     -11.938  11.551  67.405  1.00  0.00    -0.623 OA 
BRANCH  34  41
HETATM   41  N   UNL     1     -10.465  15.975  66.254  1.00  0.00    -0.315 NA 
HETATM   42  C   UNL     1     -11.083  16.390  65.109  1.00  0.00    -0.170 A  
HETATM   43  N   UNL     1     -10.930  17.685  64.910  1.00  0.00    -0.765 NA 
HETATM   44  C   UNL     1     -10.152  18.117  65.965  1.00  0.00    -0.268 A  
HETATM   45  C   UNL     1      -9.655  19.379  66.329  1.00  0.00    -0.375 A  
HETATM   46  N   UNL     1      -9.939  20.541  65.626  1.00  0.00    -0.476 NA 
HETATM   47  N   UNL     1      -8.859  19.469  67.421  1.00  0.00    -0.299 NA 
HETATM   48  H1  UNL     1      -9.579  21.457  65.891  1.00  0.00     0.000 HD 
HETATM   49  C   UNL     1      -8.617  18.348  68.134  1.00  0.00    -0.284 A  
HETATM   50  H2  UNL     1     -10.955  20.619  65.566  1.00  0.00     0.000 HD 
HETATM   51  N   UNL     1      -9.078  17.094  67.916  1.00  0.00    -0.227 NA 
HETATM   52  C   UNL     1      -9.828  17.059  66.799  1.00  0.00    -0.278 A  
ENDBRANCH  34  41
ENDBRANCH  31  32
ENDBRANCH  30  31
ENDBRANCH  27  30
ENDBRANCH  26  27
ENDBRANCH  23  26
ENDBRANCH  22  23
ENDBRANCH  21  22
ENDBRANCH  14  21
ENDBRANCH   8  12
ENDBRANCH   4   6
TORSDOF 11
ENDMDL
MODEL      192
REMARK 921   NORMALIZED FREE ENERGY PREDICTED BY IDOCK:   -5.01 KCAL/MOL
REMARK 922        TOTAL FREE ENERGY PREDICTED BY IDOCK:  -10.43 KCAL/MOL
REMARK 923 INTER-LIGAND FREE ENERGY PREDICTED BY IDOCK:   -8.32 KCAL/MOL
REMARK 924 INTRA-LIGAND FREE ENERGY PREDICTED BY IDOCK:   -2.11 KCAL/MOL
REMARK 927      BINDING AFFINITY PREDICTED BY RF-SCORE:    0.00 PKD
ROOT
HETATM    1  N   UNL     1     -11.312  14.543  64.482  1.00  0.00    -0.574 N  
HETATM    2  H1  UNL     1     -10.379  14.776  64.823  1.00  0.00     0.000 HD 
HETATM    3  H2  UNL     1     -11.986  15.289  64.306  1.00  0.00     0.000 HD 
HETATM    4  C   UNL     1     -11.666  13.258  64.260  1.00  0.00    -0.407 C  
HETATM    5  O   UNL     1     -12.792  12.977  63.849  1.00  0.00    -0.664 OA 
ENDROOT
BRANCH   4   6
HETATM    6  C   UNL     1     -10.643  12.227  64.550  1.00  0.00    -0.346 C  
HETATM    7  C   UNL     1      -9.503  12.659  65.119  1.00  0.00     0.254 C  
HETATM    8  N   UNL     1      -8.468  11.814  65.512  1.00  0.00     0.352 NA 
HETATM    9  C   UNL     1     -10.877  10.762  64.301  1.00  0.00     0.061 C  
HETATM   10  C   UNL     1      -8.569  10.464  65.155  1.00  0.00    -0.180 C  
HETATM   11  C   UNL     1      -9.658   9.923  64.590  1.00  0.00    -0.320 C  
BRANCH   8  12
HETATM   12  C   UNL     1      -7.363  12.215  66.410  1.00  0.00     0.530 C  
HETATM   13  O   UNL     1      -7.267  11.255  67.486  1.00  0.00    -0.090 OA 
HETATM   14  C   UNL     1      -8.120  11.715  68.559  1.00  0.00    -0.145 C  
HETATM   15  H   UNL     1      -6.215  14.856  68.027  1.00  0.00     0.000 HD 
HETATM   16  C   UNL     1      -8.281  13.224  68.395  1.00  0.00    -0.134 C  
HETATM   17  H   UNL     1      -7.887  14.851  69.448  1.00  0.00     0.000 HD 
HETATM   18  C   UNL     1      -7.461  13.558  67.152  1.00  0.00     0.096 C  
HETATM   19  O   UNL     1      -7.787  13.911  69.551  1.00  0.00     0.260 OA 
HETATM   20  O   UNL     1      -6.154  14.026  67.568  1.00  0.00    -0.323 OA 
BRANCH  14  21
HETATM   21  C   UNL     1      -9.469  10.980  68.522  1.00  0.00    -0.188 C  
BRANCH  21  22
HETATM   22  O   UNL     1     -10.291  11.358  69.620  1.00  0.00     0.046 OA 
BRANCH  22  23
HETATM   23  P   UNL     1     -11.812  11.745  69.330  1.00  0.00    -0.301 P  
HETATM   24  O   UNL     1     -12.244  13.127  69.692  1.00  0.00    -0.270 OA 
HETATM   25  O   UNL     1     -11.888  11.583  67.732  1.00  0.00    -0.584 OA 
BRANCH  23  26
HETATM   26  O   UNL     1     -12.713  10.549  69.834  1.00  0.00    -0.209 OA 
BRANCH  26  27
HETATM   27  P   UNL     1     -12.955  10.171  71.351  1.00  0.00    -0.456 P  
HETATM   28  O   UNL     1     -14.243   9.212  71.276  1.00  0.00    -0.230 OA 
HETATM   29  O   UNL     1     -13.214  11.278  72.316  1.00  0.00    -0.402 OA 
BRANCH  27  30
HETATM   30  O   UNL     1     -11.784   9.165  71.785  1.00  0.00    -0.346 OA 
BRANCH  30  31
HETATM   31  C   UNL     1     -12.011   8.162  72.770  1.00  0.00    -0.190 C  
BRANCH  31  32
HETATM   32  C   UNL     1     -10.926   7.091  72.808  1.00  0.00    -0.294 C  
HETATM   33  O   UNL     1     -11.090   6.138  71.740  1.00  0.00    -0.253 OA 
HETATM   34  C   UNL     1      -9.822   5.458  71.685  1.00  0.00    -0.172 C  
HETATM   35  H   UNL     1      -8.068   8.388  73.745  1.00  0.00     0.000 HD 
HETATM   36  C   UNL     1      -8.766   6.555  71.895  1.00  0.00    -0.130 C  
HETATM   37  C   UNL     1      -9.527   7.669  72.618  1.00  0.00    -0.176 C  
HETATM   38  H   UNL     1      -6.985   6.806  72.795  1.00  0.00     0.000 HD 
HETATM   39  O   UNL     1      -7.638   6.128  72.665  1.00  0.00    -0.099 OA 
HETATM   40  O   UNL     1      -8.939   8.028  73.863  1.00  0.00    -0.269 OA 
BRANCH  34  41
HETATM   41  N   UNL     1      -9.674   4.754  70.428  1.00  0.00    -0.199 NA 
HETATM   42  C   UNL     1      -9.166   3.502  70.217  1.00  0.00    -0.155 A  
HETATM   43  N   UNL     1      -9.223   3.157  68.946  1.00  0.00    -0.149 NA 
HETATM   44  C   UNL     1      -9.768   4.250  68.305  1.00  0.00    -0.096 A  
HETATM   45  C   UNL     1     -10.094   4.504  66.962  1.00  0.00    -0.138 A  
HETATM   46  N   UNL     1      -9.942   3.566  65.952  1.00  0.00    -0.409 NA 
HETATM   47  N   UNL     1     -10.580   5.725  66.636  1.00  0.00    -0.287 NA 
HETATM   48  H1  UNL     1     -10.179   3.750  64.977  1.00  0.00     0.000 HD 
HETATM   49  C   UNL     1     -10.772   6.626  67.623  1.00  0.00    -0.302 A  
HETATM   50  H2  UNL     1     -10.452   2.728  66.235  1.00  0.00     0.000 HD 
HETATM   51  N   UNL     1     -10.548   6.482  68.950  1.00  0.00    -0.217 NA 
HETATM   52  C   UNL     1     -10.030   5.267  69.208  1.00  0.00    -0.215 A  
ENDBRANCH  34  41
ENDBRANCH  31  32
ENDBRANCH  30  31
ENDBRANCH  27  30
ENDBRANCH  26  27
ENDBRANCH  23  26
ENDBRANCH  22  23
ENDBRANCH  21  22
ENDBRANCH  14  21
ENDBRANCH   8  12
ENDBRANCH   4   6
TORSDOF 11
ENDMDL
MODEL      193
REMARK 921   NORMALIZED FREE ENERGY PREDICTED BY IDOCK:   -4.99 KCAL/MOL
REMARK 922        TOTAL FREE ENERGY PREDICTED BY IDOCK:  -10.39 KCAL/MOL
REMARK 923 INTER-LIGAND FREE ENERGY PREDICTED BY IDOCK:   -8.85 KCAL/MOL
REMARK 924 INTRA-LIGAND FREE ENERGY PREDICTED BY IDOCK:   -1.54 KCAL/MOL
REMARK 927      BINDING AFFINITY PREDICTED BY RF-SCORE:    0.00 PKD
ROOT
HETATM    1  N   UNL     1     -10.900   3.065  73.757  1.00  0.00    -0.201 N  
HETATM    2  H1  UNL     1     -10.722   2.138  73.369  1.00  0.00     0.000 HD 
HETATM    3  H2  UNL     1     -11.347   3.152  74.670  1.00  0.00     0.000 HD 
HETATM    4  C   UNL     1     -10.549   4.178  73.076  1.00  0.00    -0.178 C  
HETATM    5  O   UNL     1     -10.764   5.296  73.545  1.00  0.00    -0.243 OA 
ENDROOT
BRANCH   4   6
HETATM    6  C   UNL     1      -9.917   3.977  71.753  1.00  0.00    -0.240 C  
HETATM    7  C   UNL     1      -9.335   5.057  71.198  1.00  0.00    -0.149 C  
HETATM    8  N   UNL     1      -8.643   5.025  69.989  1.00  0.00    -0.097 NA 
HETATM    9  C   UNL     1      -9.850   2.632  71.083  1.00  0.00    -0.092 C  
HETATM   10  C   UNL     1      -8.692   3.836  69.251  1.00  0.00    -0.085 C  
HETATM   11  C   UNL     1      -9.239   2.699  69.706  1.00  0.00    -0.199 C  
BRANCH   8  12
HETATM   12  C   UNL     1      -7.740   6.098  69.519  1.00  0.00    -0.099 C  
HETATM   13  O   UNL     1      -8.344   7.377  69.819  1.00  0.00    -0.131 OA 
HETATM   14  C   UNL     1      -9.156   7.754  68.684  1.00  0.00    -0.136 C  
HETATM   15  H   UNL     1      -6.017   7.002  66.851  1.00  0.00     0.000 HD 
HETATM   16  C   UNL     1      -8.603   7.017  67.467  1.00  0.00    -0.121 C  
HETATM   17  H   UNL     1      -7.828   7.490  65.710  1.00  0.00     0.000 HD 
HETATM   18  C   UNL     1      -7.435   6.204  68.017  1.00  0.00    -0.089 C  
HETATM   19  O   UNL     1      -8.172   7.949  66.468  1.00  0.00    -0.107 OA 
HETATM   20  O   UNL     1      -6.206   6.936  67.780  1.00  0.00    -0.037 OA 
BRANCH  14  21
HETATM   21  C   UNL     1     -10.632   7.415  68.947  1.00  0.00    -0.176 C  
BRANCH  21  22
HETATM   22  O   UNL     1     -11.045   7.876  70.228  1.00  0.00    -0.257 OA 
BRANCH  22  23
HETATM   23  P   UNL     1     -11.485   9.403  70.379  1.00  0.00    -0.134 P  
HETATM   24  O   UNL     1     -12.515   9.717  71.411  1.00  0.00    -0.325 OA 
HETATM   25  O   UNL     1     -10.098  10.098  70.805  1.00  0.00     0.001 OA 
BRANCH  23  26
HETATM   26  O   UNL     1     -11.717   9.978  68.925  1.00  0.00    -0.003 OA 
BRANCH  26  27
HETATM   27  P   UNL     1     -11.393  11.458  68.471  1.00  0.00    -0.328 P  
HETATM   28  O   UNL     1     -11.918  12.332  69.713  1.00  0.00    -0.314 OA 
HETATM   29  O   UNL     1     -12.015  11.956  67.212  1.00  0.00    -0.605 OA 
BRANCH  27  30
HETATM   30  O   UNL     1      -9.801  11.643  68.551  1.00  0.00    -0.197 OA 
BRANCH  30  31
HETATM   31  C   UNL     1      -9.003  11.612  67.372  1.00  0.00    -0.166 C  
BRANCH  31  32
HETATM   32  C   UNL     1      -8.113  12.840  67.208  1.00  0.00    -0.172 C  
HETATM   33  O   UNL     1      -8.889  14.012  66.889  1.00  0.00    -0.226 OA 
HETATM   34  C   UNL     1      -7.986  15.104  67.145  1.00  0.00    -0.215 C  
HETATM   35  H   UNL     1      -5.635  12.754  69.347  1.00  0.00     0.000 HD 
HETATM   36  C   UNL     1      -7.238  14.718  68.431  1.00  0.00    -0.114 C  
HETATM   37  C   UNL     1      -7.362  13.193  68.488  1.00  0.00    -0.111 C  
HETATM   38  H   UNL     1      -5.402  14.878  69.235  1.00  0.00     0.000 HD 
HETATM   39  O   UNL     1      -5.865  15.117  68.440  1.00  0.00    -0.094 OA 
HETATM   40  O   UNL     1      -6.103  12.534  68.550  1.00  0.00    -0.056 OA 
BRANCH  34  41
HETATM   41  N   UNL     1      -8.713  16.352  67.258  1.00  0.00    -0.177 NA 
HETATM   42  C   UNL     1      -9.908  16.578  67.882  1.00  0.00    -0.240 A  
HETATM   43  N   UNL     1     -10.257  17.848  67.830  1.00  0.00    -0.350 NA 
HETATM   44  C   UNL     1      -9.252  18.464  67.111  1.00  0.00    -0.264 A  
HETATM   45  C   UNL     1      -9.034  19.797  66.726  1.00  0.00    -0.359 A  
HETATM   46  N   UNL     1      -9.874  20.840  67.087  1.00  0.00    -0.591 NA 
HETATM   47  N   UNL     1      -7.951  20.079  65.964  1.00  0.00    -0.311 NA 
HETATM   48  H1  UNL     1      -9.715  21.808  66.807  1.00  0.00     0.000 HD 
HETATM   49  C   UNL     1      -7.107  19.073  65.648  1.00  0.00    -0.215 A  
HETATM   50  H2  UNL     1      -9.955  20.827  68.104  1.00  0.00     0.000 HD 
HETATM   51  N   UNL     1      -7.180  17.769  66.002  1.00  0.00    -0.398 NA 
HETATM   52  C   UNL     1      -8.294  17.542  66.722  1.00  0.00    -0.251 A  
ENDBRANCH  34  41
ENDBRANCH  31  32
ENDBRANCH  30  31
ENDBRANCH  27  30
ENDBRANCH  26  27
ENDBRANCH  23  26
ENDBRANCH  22  23
ENDBRANCH  21  22
ENDBRANCH  14  21
ENDBRANCH   8  12
ENDBRANCH   4   6
TORSDOF 11
ENDMDL
MODEL      194
REMARK 921   NORMALIZED FREE ENERGY PREDICTED BY IDOCK:   -4.97 KCAL/MOL
REMARK 922        TOTAL FREE ENERGY PREDICTED BY IDOCK:  -10.37 KCAL/MOL
REMARK 923 INTER-LIGAND FREE ENERGY PREDICTED BY IDOCK:   -8.50 KCAL/MOL
REMARK 924 INTRA-LIGAND FREE ENERGY PREDICTED BY IDOCK:   -1.87 KCAL/MOL
REMARK 927      BINDING AFFINITY PREDICTED BY RF-SCORE:    0.00 PKD
ROOT
HETATM    1  N   UNL     1      -9.398   9.101  63.779  1.00  0.00    -0.313 N  
HETATM    2  H1  UNL     1      -9.766   8.525  64.537  1.00  0.00     0.000 HD 
HETATM    3  H2  UNL     1      -9.964   9.861  63.402  1.00  0.00     0.000 HD 
HETATM    4  C   UNL     1      -8.168   8.869  63.270  1.00  0.00    -0.182 C  
HETATM    5  O   UNL     1      -7.723   9.563  62.356  1.00  0.00    -0.111 OA 
ENDROOT
BRANCH   4   6
HETATM    6  C   UNL     1      -7.407   7.742  63.856  1.00  0.00    -0.096 C  
HETATM    7  C   UNL     1      -8.130   6.690  64.285  1.00  0.00    -0.044 C  
HETATM    8  N   UNL     1      -7.568   5.526  64.802  1.00  0.00    -0.075 NA 
HETATM    9  C   UNL     1      -5.904   7.720  63.909  1.00  0.00    -0.053 C  
HETATM   10  C   UNL     1      -6.186   5.522  65.022  1.00  0.00    -0.030 C  
HETATM   11  C   UNL     1      -5.367   6.510  64.632  1.00  0.00    -0.025 C  
BRANCH   8  12
HETATM   12  C   UNL     1      -8.304   4.256  64.981  1.00  0.00    -0.115 C  
HETATM   13  O   UNL     1      -9.720   4.542  65.024  1.00  0.00    -0.165 OA 
HETATM   14  C   UNL     1     -10.077   4.782  66.404  1.00  0.00    -0.262 C  
HETATM   15  H   UNL     1      -8.310   1.552  66.878  1.00  0.00     0.000 HD 
HETATM   16  C   UNL     1      -9.034   4.080  67.270  1.00  0.00    -0.133 C  
HETATM   17  H   UNL     1      -9.005   2.656  68.642  1.00  0.00     0.000 HD 
HETATM   18  C   UNL     1      -8.077   3.443  66.266  1.00  0.00    -0.092 C  
HETATM   19  O   UNL     1      -9.655   3.093  68.103  1.00  0.00    -0.180 OA 
HETATM   20  O   UNL     1      -8.450   2.054  66.083  1.00  0.00    -0.091 OA 
BRANCH  14  21
HETATM   21  C   UNL     1     -10.143   6.291  66.684  1.00  0.00    -0.155 C  
BRANCH  21  22
HETATM   22  O   UNL     1     -10.830   6.559  67.901  1.00  0.00    -0.256 OA 
BRANCH  22  23
HETATM   23  P   UNL     1     -10.201   7.625  68.909  1.00  0.00    -0.205 P  
HETATM   24  O   UNL     1     -11.120   8.657  69.470  1.00  0.00    -0.124 OA 
HETATM   25  O   UNL     1      -9.694   6.678  70.106  1.00  0.00    -0.164 OA 
BRANCH  23  26
HETATM   26  O   UNL     1      -8.841   8.130  68.280  1.00  0.00    -0.133 OA 
BRANCH  26  27
HETATM   27  P   UNL     1      -8.632   9.530  67.575  1.00  0.00    -0.125 P  
HETATM   28  O   UNL     1      -9.940   9.660  66.649  1.00  0.00    -0.205 OA 
HETATM   29  O   UNL     1      -7.411   9.719  66.741  1.00  0.00    -0.090 OA 
BRANCH  27  30
HETATM   30  O   UNL     1      -8.867  10.663  68.685  1.00  0.00    -0.137 OA 
BRANCH  30  31
HETATM   31  C   UNL     1      -9.612  11.838  68.384  1.00  0.00    -0.191 C  
BRANCH  31  32
HETATM   32  C   UNL     1      -8.803  12.897  67.642  1.00  0.00    -0.187 C  
HETATM   33  O   UNL     1      -9.593  14.074  67.380  1.00  0.00    -0.217 OA 
HETATM   34  C   UNL     1      -8.616  15.078  67.044  1.00  0.00    -0.239 C  
HETATM   35  H   UNL     1      -5.701  12.913  68.692  1.00  0.00     0.000 HD 
HETATM   36  C   UNL     1      -7.450  14.851  68.020  1.00  0.00    -0.126 C  
HETATM   37  C   UNL     1      -7.606  13.390  68.449  1.00  0.00    -0.133 C  
HETATM   38  H   UNL     1      -5.442  14.936  68.042  1.00  0.00     0.000 HD 
HETATM   39  O   UNL     1      -6.163  15.076  67.439  1.00  0.00    -0.324 OA 
HETATM   40  O   UNL     1      -6.446  12.607  68.190  1.00  0.00    -0.065 OA 
BRANCH  34  41
HETATM   41  N   UNL     1      -9.193  16.403  67.139  1.00  0.00    -0.210 NA 
HETATM   42  C   UNL     1     -10.396  16.762  67.679  1.00  0.00    -0.309 A  
HETATM   43  N   UNL     1     -10.584  18.066  67.637  1.00  0.00    -0.413 NA 
HETATM   44  C   UNL     1      -9.459  18.567  67.015  1.00  0.00    -0.288 A  
HETATM   45  C   UNL     1      -9.051  19.871  66.687  1.00  0.00    -0.376 A  
HETATM   46  N   UNL     1      -9.784  21.002  67.014  1.00  0.00    -0.610 NA 
HETATM   47  N   UNL     1      -7.886  20.033  66.016  1.00  0.00    -0.318 NA 
HETATM   48  H1  UNL     1      -9.487  21.949  66.776  1.00  0.00     0.000 HD 
HETATM   49  C   UNL     1      -7.148  18.937  65.735  1.00  0.00    -0.239 A  
HETATM   50  H2  UNL     1      -9.945  20.979  68.022  1.00  0.00     0.000 HD 
HETATM   51  N   UNL     1      -7.406  17.645  66.043  1.00  0.00    -0.436 NA 
HETATM   52  C   UNL     1      -8.592  17.542  66.671  1.00  0.00    -0.258 A  
ENDBRANCH  34  41
ENDBRANCH  31  32
ENDBRANCH  30  31
ENDBRANCH  27  30
ENDBRANCH  26  27
ENDBRANCH  23  26
ENDBRANCH  22  23
ENDBRANCH  21  22
ENDBRANCH  14  21
ENDBRANCH   8  12
ENDBRANCH   4   6
TORSDOF 11
ENDMDL
MODEL      195
REMARK 921   NORMALIZED FREE ENERGY PREDICTED BY IDOCK:   -4.97 KCAL/MOL
REMARK 922        TOTAL FREE ENERGY PREDICTED BY IDOCK:  -10.36 KCAL/MOL
REMARK 923 INTER-LIGAND FREE ENERGY PREDICTED BY IDOCK:   -8.11 KCAL/MOL
REMARK 924 INTRA-LIGAND FREE ENERGY PREDICTED BY IDOCK:   -2.25 KCAL/MOL
REMARK 927      BINDING AFFINITY PREDICTED BY RF-SCORE:    0.00 PKD
ROOT
HETATM    1  N   UNL     1     -12.349   8.344  70.633  1.00  0.00    -0.479 N  
HETATM    2  H1  UNL     1     -11.762   9.053  70.194  1.00  0.00     0.000 HD 
HETATM    3  H2  UNL     1     -13.363   8.389  70.523  1.00  0.00     0.000 HD 
HETATM    4  C   UNL     1     -11.800   7.345  71.358  1.00  0.00    -0.300 C  
HETATM    5  O   UNL     1     -12.508   6.489  71.888  1.00  0.00    -0.347 OA 
ENDROOT
BRANCH   4   6
HETATM    6  C   UNL     1     -10.325   7.350  71.487  1.00  0.00    -0.216 C  
HETATM    7  C   UNL     1      -9.708   6.161  71.350  1.00  0.00    -0.167 C  
HETATM    8  N   UNL     1      -8.326   6.001  71.381  1.00  0.00    -0.126 NA 
HETATM    9  C   UNL     1      -9.534   8.613  71.684  1.00  0.00    -0.339 C  
HETATM   10  C   UNL     1      -7.556   7.119  71.722  1.00  0.00    -0.087 C  
HETATM   11  C   UNL     1      -8.061   8.352  71.877  1.00  0.00    -0.193 C  
BRANCH   8  12
HETATM   12  C   UNL     1      -7.619   4.783  70.925  1.00  0.00    -0.069 C  
HETATM   13  O   UNL     1      -6.580   5.169  69.997  1.00  0.00    -0.033 OA 
HETATM   14  C   UNL     1      -7.154   5.165  68.671  1.00  0.00    -0.058 C  
HETATM   15  H   UNL     1      -8.237   1.772  69.718  1.00  0.00     0.000 HD 
HETATM   16  C   UNL     1      -8.357   4.226  68.701  1.00  0.00    -0.083 C  
HETATM   17  H   UNL     1      -8.928   2.565  67.792  1.00  0.00     0.000 HD 
HETATM   18  C   UNL     1      -8.406   3.721  70.140  1.00  0.00    -0.059 C  
HETATM   19  O   UNL     1      -8.179   3.149  67.773  1.00  0.00    -0.078 OA 
HETATM   20  O   UNL     1      -7.751   2.429  70.203  1.00  0.00    -0.043 OA 
BRANCH  14  21
HETATM   21  C   UNL     1      -7.542   6.591  68.251  1.00  0.00    -0.104 C  
BRANCH  21  22
HETATM   22  O   UNL     1      -8.668   6.583  67.382  1.00  0.00    -0.117 OA 
BRANCH  22  23
HETATM   23  P   UNL     1      -9.655   7.837  67.408  1.00  0.00    -0.177 P  
HETATM   24  O   UNL     1     -11.031   7.611  67.940  1.00  0.00    -0.076 OA 
HETATM   25  O   UNL     1      -8.878   8.839  68.398  1.00  0.00    -0.137 OA 
BRANCH  23  26
HETATM   26  O   UNL     1      -9.529   8.573  66.015  1.00  0.00    -0.223 OA 
BRANCH  26  27
HETATM   27  P   UNL     1      -8.855   9.986  65.792  1.00  0.00    -0.170 P  
HETATM   28  O   UNL     1      -9.170  10.289  64.246  1.00  0.00    -0.211 OA 
HETATM   29  O   UNL     1      -7.390  10.109  66.036  1.00  0.00    -0.106 OA 
BRANCH  27  30
HETATM   30  O   UNL     1      -9.755  11.070  66.560  1.00  0.00    -0.190 OA 
BRANCH  30  31
HETATM   31  C   UNL     1      -9.701  12.447  66.204  1.00  0.00    -0.246 C  
BRANCH  31  32
HETATM   32  C   UNL     1      -8.589  13.215  66.912  1.00  0.00    -0.109 C  
HETATM   33  O   UNL     1      -8.680  14.629  66.653  1.00  0.00    -0.237 OA 
HETATM   34  C   UNL     1      -7.840  15.221  67.662  1.00  0.00    -0.159 C  
HETATM   35  H   UNL     1      -7.954  11.878  69.834  1.00  0.00     0.000 HD 
HETATM   36  C   UNL     1      -8.119  14.417  68.942  1.00  0.00    -0.095 C  
HETATM   37  C   UNL     1      -8.661  13.080  68.429  1.00  0.00    -0.116 C  
HETATM   38  H   UNL     1      -7.134  13.720  70.550  1.00  0.00     0.000 HD 
HETATM   39  O   UNL     1      -6.962  14.217  69.759  1.00  0.00    -0.107 OA 
HETATM   40  O   UNL     1      -7.910  11.962  68.889  1.00  0.00    -0.090 OA 
BRANCH  34  41
HETATM   41  N   UNL     1      -8.125  16.635  67.799  1.00  0.00    -0.174 NA 
HETATM   42  C   UNL     1      -9.026  17.235  68.633  1.00  0.00    -0.265 A  
HETATM   43  N   UNL     1      -8.991  18.549  68.528  1.00  0.00    -0.323 NA 
HETATM   44  C   UNL     1      -8.041  18.804  67.560  1.00  0.00    -0.256 A  
HETATM   45  C   UNL     1      -7.536  19.993  67.008  1.00  0.00    -0.266 A  
HETATM   46  N   UNL     1      -7.929  21.254  67.430  1.00  0.00    -0.558 NA 
HETATM   47  N   UNL     1      -6.621  19.905  66.014  1.00  0.00    -0.218 NA 
HETATM   48  H1  UNL     1      -7.562  22.118  67.030  1.00  0.00     0.000 HD 
HETATM   49  C   UNL     1      -6.203  18.679  65.631  1.00  0.00    -0.253 A  
HETATM   50  H2  UNL     1      -7.776  21.299  68.438  1.00  0.00     0.000 HD 
HETATM   51  N   UNL     1      -6.572  17.472  66.119  1.00  0.00    -0.253 NA 
HETATM   52  C   UNL     1      -7.509  17.620  67.073  1.00  0.00    -0.199 A  
ENDBRANCH  34  41
ENDBRANCH  31  32
ENDBRANCH  30  31
ENDBRANCH  27  30
ENDBRANCH  26  27
ENDBRANCH  23  26
ENDBRANCH  22  23
ENDBRANCH  21  22
ENDBRANCH  14  21
ENDBRANCH   8  12
ENDBRANCH   4   6
TORSDOF 11
ENDMDL
MODEL      196
REMARK 921   NORMALIZED FREE ENERGY PREDICTED BY IDOCK:   -4.95 KCAL/MOL
REMARK 922        TOTAL FREE ENERGY PREDICTED BY IDOCK:  -10.34 KCAL/MOL
REMARK 923 INTER-LIGAND FREE ENERGY PREDICTED BY IDOCK:   -8.71 KCAL/MOL
REMARK 924 INTRA-LIGAND FREE ENERGY PREDICTED BY IDOCK:   -1.63 KCAL/MOL
REMARK 927      BINDING AFFINITY PREDICTED BY RF-SCORE:    0.00 PKD
ROOT
HETATM    1  N   UNL     1      -5.160   7.037  73.021  1.00  0.00    -0.037 N  
HETATM    2  H1  UNL     1      -4.701   6.856  72.128  1.00  0.00     0.000 HD 
HETATM    3  H2  UNL     1      -4.607   7.353  73.818  1.00  0.00     0.000 HD 
HETATM    4  C   UNL     1      -6.493   6.862  73.160  1.00  0.00    -0.062 C  
HETATM    5  O   UNL     1      -7.047   7.080  74.238  1.00  0.00    -0.089 OA 
ENDROOT
BRANCH   4   6
HETATM    6  C   UNL     1      -7.230   6.388  71.967  1.00  0.00    -0.090 C  
HETATM    7  C   UNL     1      -8.498   5.986  72.168  1.00  0.00    -0.124 C  
HETATM    8  N   UNL     1      -9.348   5.572  71.145  1.00  0.00    -0.148 NA 
HETATM    9  C   UNL     1      -6.638   6.419  70.585  1.00  0.00    -0.052 C  
HETATM   10  C   UNL     1      -8.795   5.429  69.867  1.00  0.00    -0.125 C  
HETATM   11  C   UNL     1      -7.546   5.802  69.550  1.00  0.00    -0.087 C  
BRANCH   8  12
HETATM   12  C   UNL     1     -10.814   5.431  71.288  1.00  0.00    -0.131 C  
HETATM   13  O   UNL     1     -11.452   6.043  70.145  1.00  0.00    -0.356 OA 
HETATM   14  C   UNL     1     -11.694   7.431  70.471  1.00  0.00    -0.191 C  
HETATM   15  H   UNL     1     -13.224   5.912  73.493  1.00  0.00     0.000 HD 
HETATM   16  C   UNL     1     -11.747   7.536  71.993  1.00  0.00    -0.294 C  
HETATM   17  H   UNL     1     -13.055   8.097  73.366  1.00  0.00     0.000 HD 
HETATM   18  C   UNL     1     -11.511   6.109  72.478  1.00  0.00    -0.276 C  
HETATM   19  O   UNL     1     -13.022   8.031  72.419  1.00  0.00    -0.198 OA 
HETATM   20  O   UNL     1     -12.793   5.493  72.757  1.00  0.00     0.186 OA 
BRANCH  14  21
HETATM   21  C   UNL     1     -10.598   8.321  69.865  1.00  0.00    -0.232 C  
BRANCH  21  22
HETATM   22  O   UNL     1     -10.677   8.339  68.445  1.00  0.00    -0.143 OA 
BRANCH  22  23
HETATM   23  P   UNL     1     -10.467   9.732  67.693  1.00  0.00    -0.265 P  
HETATM   24  O   UNL     1     -10.158   9.679  66.234  1.00  0.00    -0.258 OA 
HETATM   25  O   UNL     1     -11.905  10.426  67.891  1.00  0.00    -0.293 OA 
BRANCH  23  26
HETATM   26  O   UNL     1      -9.532  10.628  68.599  1.00  0.00    -0.161 OA 
BRANCH  26  27
HETATM   27  P   UNL     1      -7.963  10.748  68.444  1.00  0.00    -0.139 P  
HETATM   28  O   UNL     1      -7.517   9.230  68.165  1.00  0.00    -0.082 OA 
HETATM   29  O   UNL     1      -7.186  11.293  69.593  1.00  0.00    -0.087 OA 
BRANCH  27  30
HETATM   30  O   UNL     1      -7.676  11.469  67.040  1.00  0.00    -0.144 OA 
BRANCH  30  31
HETATM   31  C   UNL     1      -7.499  12.879  66.966  1.00  0.00     0.110 C  
BRANCH  31  32
HETATM   32  C   UNL     1      -8.784  13.666  67.206  1.00  0.00    -0.218 C  
HETATM   33  O   UNL     1      -8.503  14.993  67.692  1.00  0.00    -0.145 OA 
HETATM   34  C   UNL     1      -9.743  15.701  67.499  1.00  0.00    -0.222 C  
HETATM   35  H   UNL     1     -11.019  12.934  64.927  1.00  0.00     0.000 HD 
HETATM   36  C   UNL     1     -10.273  15.224  66.137  1.00  0.00    -0.304 C  
HETATM   37  C   UNL     1      -9.592  13.870  65.929  1.00  0.00    -0.145 C  
HETATM   38  H   UNL     1     -12.025  14.795  65.248  1.00  0.00     0.000 HD 
HETATM   39  O   UNL     1     -11.697  15.090  66.090  1.00  0.00    -0.242 OA 
HETATM   40  O   UNL     1     -10.516  12.807  65.722  1.00  0.00    -0.266 OA 
BRANCH  34  41
HETATM   41  N   UNL     1      -9.529  17.133  67.562  1.00  0.00    -0.245 NA 
HETATM   42  C   UNL     1     -10.287  18.071  68.204  1.00  0.00    -0.388 A  
HETATM   43  N   UNL     1      -9.773  19.280  68.089  1.00  0.00    -0.340 NA 
HETATM   44  C   UNL     1      -8.644  19.114  67.312  1.00  0.00    -0.282 A  
HETATM   45  C   UNL     1      -7.666  20.008  66.847  1.00  0.00    -0.293 A  
HETATM   46  N   UNL     1      -7.654  21.357  67.171  1.00  0.00    -0.763 NA 
HETATM   47  N   UNL     1      -6.687  19.532  66.042  1.00  0.00    -0.222 NA 
HETATM   48  H1  UNL     1      -6.943  22.007  66.833  1.00  0.00     0.000 HD 
HETATM   49  C   UNL     1      -6.670  18.211  65.761  1.00  0.00    -0.273 A  
HETATM   50  H2  UNL     1      -7.668  21.426  68.189  1.00  0.00     0.000 HD 
HETATM   51  N   UNL     1      -7.519  17.248  66.189  1.00  0.00    -0.350 NA 
HETATM   52  C   UNL     1      -8.491  17.785  66.950  1.00  0.00    -0.243 A  
ENDBRANCH  34  41
ENDBRANCH  31  32
ENDBRANCH  30  31
ENDBRANCH  27  30
ENDBRANCH  26  27
ENDBRANCH  23  26
ENDBRANCH  22  23
ENDBRANCH  21  22
ENDBRANCH  14  21
ENDBRANCH   8  12
ENDBRANCH   4   6
TORSDOF 11
ENDMDL
MODEL      197
REMARK 921   NORMALIZED FREE ENERGY PREDICTED BY IDOCK:   -4.92 KCAL/MOL
REMARK 922        TOTAL FREE ENERGY PREDICTED BY IDOCK:  -10.28 KCAL/MOL
REMARK 923 INTER-LIGAND FREE ENERGY PREDICTED BY IDOCK:   -9.60 KCAL/MOL
REMARK 924 INTRA-LIGAND FREE ENERGY PREDICTED BY IDOCK:   -0.68 KCAL/MOL
REMARK 927      BINDING AFFINITY PREDICTED BY RF-SCORE:    0.00 PKD
ROOT
HETATM    1  N   UNL     1     -13.988  15.445  70.856  1.00  0.00    -0.857 N  
HETATM    2  H1  UNL     1     -14.573  15.038  70.126  1.00  0.00     0.000 HD 
HETATM    3  H2  UNL     1     -14.272  16.318  71.301  1.00  0.00     0.000 HD 
HETATM    4  C   UNL     1     -12.841  14.842  71.240  1.00  0.00    -0.338 C  
HETATM    5  O   UNL     1     -12.136  15.333  72.121  1.00  0.00    -0.336 OA 
ENDROOT
BRANCH   4   6
HETATM    6  C   UNL     1     -12.484  13.586  70.542  1.00  0.00    -0.373 C  
HETATM    7  C   UNL     1     -12.330  12.494  71.314  1.00  0.00    -0.047 C  
HETATM    8  N   UNL     1     -12.057  11.225  70.811  1.00  0.00    -0.364 NA 
HETATM    9  C   UNL     1     -12.371  13.496  69.044  1.00  0.00    -0.049 C  
HETATM   10  C   UNL     1     -11.783  11.120  69.443  1.00  0.00    -0.332 C  
HETATM   11  C   UNL     1     -11.909  12.138  68.578  1.00  0.00    -0.365 C  
BRANCH   8  12
HETATM   12  C   UNL     1     -12.195   9.975  71.590  1.00  0.00    -0.367 C  
HETATM   13  O   UNL     1     -10.875   9.458  71.876  1.00  0.00    -0.310 OA 
HETATM   14  C   UNL     1     -10.506   8.577  70.791  1.00  0.00    -0.200 C  
HETATM   15  H   UNL     1     -13.829   7.105  71.548  1.00  0.00     0.000 HD 
HETATM   16  C   UNL     1     -11.799   8.092  70.142  1.00  0.00     0.293 C  
HETATM   17  H   UNL     1     -12.702   6.362  69.817  1.00  0.00     0.000 HD 
HETATM   18  C   UNL     1     -12.904   8.774  70.944  1.00  0.00     0.122 C  
HETATM   19  O   UNL     1     -11.897   6.664  70.221  1.00  0.00    -0.395 OA 
HETATM   20  O   UNL     1     -13.390   7.848  71.947  1.00  0.00    -0.322 OA 
BRANCH  14  21
HETATM   21  C   UNL     1      -9.596   9.311  69.793  1.00  0.00    -0.190 C  
BRANCH  21  22
HETATM   22  O   UNL     1      -8.801   8.393  69.052  1.00  0.00    -0.144 OA 
BRANCH  22  23
HETATM   23  P   UNL     1      -9.003   8.322  67.469  1.00  0.00    -0.135 P  
HETATM   24  O   UNL     1      -8.651   7.039  66.795  1.00  0.00    -0.114 OA 
HETATM   25  O   UNL     1     -10.589   8.558  67.335  1.00  0.00    -0.277 OA 
BRANCH  23  26
HETATM   26  O   UNL     1      -8.411   9.651  66.853  1.00  0.00    -0.116 OA 
BRANCH  26  27
HETATM   27  P   UNL     1      -6.871   9.990  66.737  1.00  0.00    -0.086 P  
HETATM   28  O   UNL     1      -6.602   9.885  65.156  1.00  0.00    -0.091 OA 
HETATM   29  O   UNL     1      -5.905   9.119  67.466  1.00  0.00    -0.045 OA 
BRANCH  27  30
HETATM   30  O   UNL     1      -6.705  11.560  67.024  1.00  0.00    -0.119 OA 
BRANCH  30  31
HETATM   31  C   UNL     1      -5.461  12.094  67.465  1.00  0.00    -0.111 C  
BRANCH  31  32
HETATM   32  C   UNL     1      -5.572  13.505  68.031  1.00  0.00    -0.121 C  
HETATM   33  O   UNL     1      -6.286  14.377  67.133  1.00  0.00    -0.206 OA 
HETATM   34  C   UNL     1      -6.629  15.511  67.951  1.00  0.00    -0.158 C  
HETATM   35  H   UNL     1      -5.986  13.409  71.278  1.00  0.00     0.000 HD 
HETATM   36  C   UNL     1      -7.040  14.919  69.310  1.00  0.00    -0.160 C  
HETATM   37  C   UNL     1      -6.355  13.551  69.339  1.00  0.00    -0.110 C  
HETATM   38  H   UNL     1      -6.889  15.349  71.268  1.00  0.00     0.000 HD 
HETATM   39  O   UNL     1      -6.636  15.714  70.429  1.00  0.00     0.030 OA 
HETATM   40  O   UNL     1      -5.499  13.381  70.464  1.00  0.00    -0.122 OA 
BRANCH  34  41
HETATM   41  N   UNL     1      -7.678  16.293  67.327  1.00  0.00    -0.162 NA 
HETATM   42  C   UNL     1      -8.506  15.927  66.304  1.00  0.00    -0.267 A  
HETATM   43  N   UNL     1      -9.377  16.873  66.015  1.00  0.00    -0.485 NA 
HETATM   44  C   UNL     1      -9.075  17.909  66.876  1.00  0.00    -0.260 A  
HETATM   45  C   UNL     1      -9.640  19.180  67.074  1.00  0.00    -0.322 A  
HETATM   46  N   UNL     1     -10.753  19.634  66.382  1.00  0.00    -0.456 NA 
HETATM   47  N   UNL     1      -9.070  20.004  67.985  1.00  0.00    -0.298 NA 
HETATM   48  H1  UNL     1     -11.163  20.557  66.526  1.00  0.00     0.000 HD 
HETATM   49  C   UNL     1      -8.014  19.548  68.693  1.00  0.00    -0.346 A  
HETATM   50  H2  UNL     1     -11.496  18.947  66.516  1.00  0.00     0.000 HD 
HETATM   51  N   UNL     1      -7.419  18.335  68.631  1.00  0.00    -0.290 NA 
HETATM   52  C   UNL     1      -8.000  17.576  67.683  1.00  0.00    -0.202 A  
ENDBRANCH  34  41
ENDBRANCH  31  32
ENDBRANCH  30  31
ENDBRANCH  27  30
ENDBRANCH  26  27
ENDBRANCH  23  26
ENDBRANCH  22  23
ENDBRANCH  21  22
ENDBRANCH  14  21
ENDBRANCH   8  12
ENDBRANCH   4   6
TORSDOF 11
ENDMDL
MODEL      198
REMARK 921   NORMALIZED FREE ENERGY PREDICTED BY IDOCK:   -4.87 KCAL/MOL
REMARK 922        TOTAL FREE ENERGY PREDICTED BY IDOCK:  -10.20 KCAL/MOL
REMARK 923 INTER-LIGAND FREE ENERGY PREDICTED BY IDOCK:   -8.81 KCAL/MOL
REMARK 924 INTRA-LIGAND FREE ENERGY PREDICTED BY IDOCK:   -1.39 KCAL/MOL
REMARK 927      BINDING AFFINITY PREDICTED BY RF-SCORE:    0.00 PKD
ROOT
HETATM    1  N   UNL     1     -11.129   9.716  71.226  1.00  0.00    -0.365 N  
HETATM    2  H1  UNL     1     -10.267  10.010  70.766  1.00  0.00     0.000 HD 
HETATM    3  H2  UNL     1     -11.975  10.276  71.117  1.00  0.00     0.000 HD 
HETATM    4  C   UNL     1     -11.164   8.593  71.976  1.00  0.00    -0.364 C  
HETATM    5  O   UNL     1     -12.204   8.238  72.531  1.00  0.00    -0.370 OA 
ENDROOT
BRANCH   4   6
HETATM    6  C   UNL     1      -9.897   7.837  72.101  1.00  0.00    -0.242 C  
HETATM    7  C   UNL     1      -9.880   6.604  71.561  1.00  0.00    -0.171 C  
HETATM    8  N   UNL     1      -8.752   5.787  71.536  1.00  0.00    -0.132 NA 
HETATM    9  C   UNL     1      -8.661   8.425  72.724  1.00  0.00    -0.240 C  
HETATM   10  C   UNL     1      -7.627   6.223  72.244  1.00  0.00    -0.095 C  
HETATM   11  C   UNL     1      -7.529   7.432  72.816  1.00  0.00    -0.086 C  
BRANCH   8  12
HETATM   12  C   UNL     1      -8.617   4.583  70.688  1.00  0.00    -0.094 C  
HETATM   13  O   UNL     1      -7.457   4.741  69.839  1.00  0.00    -0.054 OA 
HETATM   14  C   UNL     1      -7.893   5.381  68.619  1.00  0.00    -0.087 C  
HETATM   15  H   UNL     1     -10.402   2.647  68.695  1.00  0.00     0.000 HD 
HETATM   16  C   UNL     1      -9.383   5.091  68.462  1.00  0.00    -0.127 C  
HETATM   17  H   UNL     1     -10.559   4.196  67.148  1.00  0.00     0.000 HD 
HETATM   18  C   UNL     1      -9.735   4.252  69.686  1.00  0.00    -0.214 C  
HETATM   19  O   UNL     1      -9.631   4.376  67.245  1.00  0.00    -0.165 OA 
HETATM   20  O   UNL     1      -9.710   2.851  69.314  1.00  0.00    -0.063 OA 
BRANCH  14  21
HETATM   21  C   UNL     1      -7.597   6.888  68.671  1.00  0.00    -0.105 C  
BRANCH  21  22
HETATM   22  O   UNL     1      -6.742   7.282  67.604  1.00  0.00    -0.060 OA 
BRANCH  22  23
HETATM   23  P   UNL     1      -7.321   8.278  66.498  1.00  0.00    -0.082 P  
HETATM   24  O   UNL     1      -6.346   8.864  65.532  1.00  0.00    -0.061 OA 
HETATM   25  O   UNL     1      -8.329   7.317  65.694  1.00  0.00    -0.132 OA 
BRANCH  23  26
HETATM   26  O   UNL     1      -8.309   9.274  67.224  1.00  0.00    -0.123 OA 
BRANCH  26  27
HETATM   27  P   UNL     1      -9.878   9.301  67.026  1.00  0.00    -0.237 P  
HETATM   28  O   UNL     1     -10.383  10.129  68.307  1.00  0.00    -0.168 OA 
HETATM   29  O   UNL     1     -10.599   7.998  66.958  1.00  0.00    -0.335 OA 
BRANCH  27  30
HETATM   30  O   UNL     1     -10.188  10.301  65.810  1.00  0.00    -0.257 OA 
BRANCH  30  31
HETATM   31  C   UNL     1      -9.437  11.498  65.639  1.00  0.00    -0.222 C  
BRANCH  31  32
HETATM   32  C   UNL     1     -10.241  12.765  65.914  1.00  0.00    -0.287 C  
HETATM   33  O   UNL     1      -9.663  13.531  66.989  1.00  0.00    -0.236 OA 
HETATM   34  C   UNL     1     -10.283  14.825  66.863  1.00  0.00    -0.257 C  
HETATM   35  H   UNL     1     -11.390  14.022  63.117  1.00  0.00     0.000 HD 
HETATM   36  C   UNL     1     -10.338  15.102  65.351  1.00  0.00    -0.388 C  
HETATM   37  C   UNL     1     -10.269  13.710  64.718  1.00  0.00    -0.337 C  
HETATM   38  H   UNL     1     -11.554  15.963  64.002  1.00  0.00     0.000 HD 
HETATM   39  O   UNL     1     -11.520  15.793  64.936  1.00  0.00    -0.287 OA 
HETATM   40  O   UNL     1     -11.372  13.433  63.862  1.00  0.00    -0.364 OA 
BRANCH  34  41
HETATM   41  N   UNL     1      -9.536  15.823  67.601  1.00  0.00    -0.220 NA 
HETATM   42  C   UNL     1      -9.990  17.005  68.115  1.00  0.00    -0.287 A  
HETATM   43  N   UNL     1      -9.045  17.650  68.771  1.00  0.00    -0.247 NA 
HETATM   44  C   UNL     1      -7.923  16.857  68.648  1.00  0.00    -0.256 A  
HETATM   45  C   UNL     1      -6.609  16.982  69.129  1.00  0.00    -0.230 A  
HETATM   46  N   UNL     1      -6.192  18.029  69.938  1.00  0.00    -0.169 NA 
HETATM   47  N   UNL     1      -5.703  16.036  68.786  1.00  0.00    -0.107 NA 
HETATM   48  H1  UNL     1      -5.237  18.120  70.288  1.00  0.00     0.000 HD 
HETATM   49  C   UNL     1      -6.116  14.992  68.035  1.00  0.00    -0.150 A  
HETATM   50  H2  UNL     1      -6.815  18.055  70.746  1.00  0.00     0.000 HD 
HETATM   51  N   UNL     1      -7.357  14.735  67.560  1.00  0.00    -0.191 NA 
HETATM   52  C   UNL     1      -8.202  15.727  67.898  1.00  0.00    -0.145 A  
ENDBRANCH  34  41
ENDBRANCH  31  32
ENDBRANCH  30  31
ENDBRANCH  27  30
ENDBRANCH  26  27
ENDBRANCH  23  26
ENDBRANCH  22  23
ENDBRANCH  21  22
ENDBRANCH  14  21
ENDBRANCH   8  12
ENDBRANCH   4   6
TORSDOF 11
ENDMDL
MODEL      199
REMARK 921   NORMALIZED FREE ENERGY PREDICTED BY IDOCK:   -4.87 KCAL/MOL
REMARK 922        TOTAL FREE ENERGY PREDICTED BY IDOCK:  -10.20 KCAL/MOL
REMARK 923 INTER-LIGAND FREE ENERGY PREDICTED BY IDOCK:   -9.90 KCAL/MOL
REMARK 924 INTRA-LIGAND FREE ENERGY PREDICTED BY IDOCK:   -0.29 KCAL/MOL
REMARK 927      BINDING AFFINITY PREDICTED BY RF-SCORE:    0.00 PKD
ROOT
HETATM    1  N   UNL     1      -6.778  18.566  69.245  1.00  0.00    -0.262 N  
HETATM    2  H1  UNL     1      -6.869  19.499  68.843  1.00  0.00     0.000 HD 
HETATM    3  H2  UNL     1      -6.063  18.388  69.951  1.00  0.00     0.000 HD 
HETATM    4  C   UNL     1      -7.594  17.563  68.854  1.00  0.00    -0.225 C  
HETATM    5  O   UNL     1      -7.485  16.436  69.338  1.00  0.00    -0.231 OA 
ENDROOT
BRANCH   4   6
HETATM    6  C   UNL     1      -8.599  17.889  67.816  1.00  0.00    -0.242 C  
HETATM    7  C   UNL     1      -9.323  16.860  67.339  1.00  0.00    -0.235 C  
HETATM    8  N   UNL     1     -10.349  17.003  66.409  1.00  0.00    -0.318 NA 
HETATM    9  C   UNL     1      -8.866  19.298  67.363  1.00  0.00    -0.335 C  
HETATM   10  C   UNL     1     -10.527  18.268  65.837  1.00  0.00    -0.307 C  
HETATM   11  C   UNL     1      -9.867  19.365  66.236  1.00  0.00    -0.477 C  
BRANCH   8  12
HETATM   12  C   UNL     1     -11.352  15.958  66.110  1.00  0.00     0.225 C  
HETATM   13  O   UNL     1     -11.140  14.841  67.002  1.00  0.00    -0.316 OA 
HETATM   14  C   UNL     1     -10.212  13.938  66.360  1.00  0.00    -0.292 C  
HETATM   15  H   UNL     1     -12.621  14.290  63.558  1.00  0.00     0.000 HD 
HETATM   16  C   UNL     1     -10.304  14.189  64.857  1.00  0.00    -0.408 C  
HETATM   17  H   UNL     1     -10.770  13.154  63.237  1.00  0.00     0.000 HD 
HETATM   18  C   UNL     1     -11.343  15.298  64.722  1.00  0.00    -0.391 C  
HETATM   19  O   UNL     1     -10.713  12.998  64.173  1.00  0.00    -0.389 OA 
HETATM   20  O   UNL     1     -12.627  14.698  64.416  1.00  0.00    -0.662 OA 
BRANCH  14  21
HETATM   21  C   UNL     1      -8.790  14.159  66.899  1.00  0.00    -0.203 C  
BRANCH  21  22
HETATM   22  O   UNL     1      -7.980  13.007  66.702  1.00  0.00     0.139 OA 
BRANCH  22  23
HETATM   23  P   UNL     1      -8.236  11.733  67.631  1.00  0.00    -0.166 P  
HETATM   24  O   UNL     1      -7.036  10.986  68.107  1.00  0.00    -0.066 OA 
HETATM   25  O   UNL     1      -8.966  12.400  68.900  1.00  0.00     0.090 OA 
BRANCH  23  26
HETATM   26  O   UNL     1      -9.401  10.891  66.976  1.00  0.00    -0.162 OA 
BRANCH  26  27
HETATM   27  P   UNL     1     -10.408   9.964  67.768  1.00  0.00    -0.253 P  
HETATM   28  O   UNL     1     -11.804  10.746  67.617  1.00  0.00    -0.505 OA 
HETATM   29  O   UNL     1     -10.135   9.706  69.211  1.00  0.00    -0.175 OA 
BRANCH  27  30
HETATM   30  O   UNL     1     -10.640   8.646  66.884  1.00  0.00    -0.287 OA 
BRANCH  30  31
HETATM   31  C   UNL     1      -9.591   8.109  66.086  1.00  0.00    -0.118 C  
BRANCH  31  32
HETATM   32  C   UNL     1      -9.092   6.751  66.572  1.00  0.00    -0.151 C  
HETATM   33  O   UNL     1      -9.065   6.685  68.011  1.00  0.00    -0.118 OA 
HETATM   34  C   UNL     1      -8.954   5.277  68.290  1.00  0.00    -0.109 C  
HETATM   35  H   UNL     1     -10.164   4.364  64.602  1.00  0.00     0.000 HD 
HETATM   36  C   UNL     1      -9.879   4.589  67.273  1.00  0.00    -0.175 C  
HETATM   37  C   UNL     1      -9.998   5.605  66.135  1.00  0.00    -0.058 C  
HETATM   38  H   UNL     1      -9.944   2.915  66.161  1.00  0.00     0.000 HD 
HETATM   39  O   UNL     1      -9.373   3.340  66.790  1.00  0.00    -0.178 OA 
HETATM   40  O   UNL     1      -9.600   5.078  64.874  1.00  0.00    -0.020 OA 
BRANCH  34  41
HETATM   41  N   UNL     1      -9.311   5.000  69.667  1.00  0.00    -0.118 NA 
HETATM   42  C   UNL     1      -8.733   4.106  70.524  1.00  0.00    -0.079 A  
HETATM   43  N   UNL     1      -9.283   4.147  71.721  1.00  0.00    -0.122 NA 
HETATM   44  C   UNL     1     -10.281   5.094  71.621  1.00  0.00    -0.212 A  
HETATM   45  C   UNL     1     -11.209   5.603  72.545  1.00  0.00    -0.293 A  
HETATM   46  N   UNL     1     -11.246   5.218  73.877  1.00  0.00    -0.425 NA 
HETATM   47  N   UNL     1     -12.115   6.513  72.115  1.00  0.00    -0.300 NA 
HETATM   48  H1  UNL     1     -11.920   5.588  74.548  1.00  0.00     0.000 HD 
HETATM   49  C   UNL     1     -12.054   6.924  70.830  1.00  0.00    -0.349 A  
HETATM   50  H2  UNL     1     -10.315   5.376  74.265  1.00  0.00     0.000 HD 
HETATM   51  N   UNL     1     -11.180   6.550  69.866  1.00  0.00    -0.364 NA 
HETATM   52  C   UNL     1     -10.333   5.618  70.340  1.00  0.00    -0.260 A  
ENDBRANCH  34  41
ENDBRANCH  31  32
ENDBRANCH  30  31
ENDBRANCH  27  30
ENDBRANCH  26  27
ENDBRANCH  23  26
ENDBRANCH  22  23
ENDBRANCH  21  22
ENDBRANCH  14  21
ENDBRANCH   8  12
ENDBRANCH   4   6
TORSDOF 11
ENDMDL
MODEL      200
REMARK 921   NORMALIZED FREE ENERGY PREDICTED BY IDOCK:   -4.80 KCAL/MOL
REMARK 922        TOTAL FREE ENERGY PREDICTED BY IDOCK:  -10.09 KCAL/MOL
REMARK 923 INTER-LIGAND FREE ENERGY PREDICTED BY IDOCK:   -7.99 KCAL/MOL
REMARK 924 INTRA-LIGAND FREE ENERGY PREDICTED BY IDOCK:   -2.10 KCAL/MOL
REMARK 927      BINDING AFFINITY PREDICTED BY RF-SCORE:    0.00 PKD
ROOT
HETATM    1  N   UNL     1      -9.504  10.729  62.330  1.00  0.00    -0.533 N  
HETATM    2  H1  UNL     1      -8.630  10.679  61.806  1.00  0.00     0.000 HD 
HETATM    3  H2  UNL     1     -10.385  10.849  61.831  1.00  0.00     0.000 HD 
HETATM    4  C   UNL     1      -9.507  10.637  63.678  1.00  0.00    -0.299 C  
HETATM    5  O   UNL     1     -10.561  10.697  64.311  1.00  0.00    -0.298 OA 
ENDROOT
BRANCH   4   6
HETATM    6  C   UNL     1      -8.191  10.478  64.337  1.00  0.00    -0.068 C  
HETATM    7  C   UNL     1      -8.183  10.544  65.682  1.00  0.00    -0.161 C  
HETATM    8  N   UNL     1      -7.042  10.352  66.457  1.00  0.00    -0.107 NA 
HETATM    9  C   UNL     1      -6.932  10.180  63.570  1.00  0.00    -0.116 C  
HETATM   10  C   UNL     1      -5.820  10.234  65.785  1.00  0.00    -0.092 C  
HETATM   11  C   UNL     1      -5.708  10.152  64.451  1.00  0.00    -0.122 C  
BRANCH   8  12
HETATM   12  C   UNL     1      -7.060  10.108  67.916  1.00  0.00    -0.085 C  
HETATM   13  O   UNL     1      -7.905  11.099  68.542  1.00  0.00    -0.120 OA 
HETATM   14  C   UNL     1      -7.073  12.231  68.883  1.00  0.00    -0.088 C  
HETATM   15  H   UNL     1      -5.000   9.576  70.443  1.00  0.00     0.000 HD 
HETATM   16  C   UNL     1      -5.641  11.720  69.006  1.00  0.00    -0.051 C  
HETATM   17  H   UNL     1      -4.243  11.635  70.403  1.00  0.00     0.000 HD 
HETATM   18  C   UNL     1      -5.745  10.228  68.703  1.00  0.00    -0.037 C  
HETATM   19  O   UNL     1      -5.135  11.954  70.326  1.00  0.00    -0.074 OA 
HETATM   20  O   UNL     1      -5.813   9.502  69.956  1.00  0.00    -0.034 OA 
BRANCH  14  21
HETATM   21  C   UNL     1      -7.207  13.332  67.818  1.00  0.00    -0.151 C  
BRANCH  21  22
HETATM   22  O   UNL     1      -8.351  14.143  68.059  1.00  0.00    -0.140 OA 
BRANCH  22  23
HETATM   23  P   UNL     1      -8.199  15.726  67.919  1.00  0.00    -0.153 P  
HETATM   24  O   UNL     1      -7.129  16.382  68.726  1.00  0.00    -0.157 OA 
HETATM   25  O   UNL     1      -7.838  15.880  66.359  1.00  0.00    -0.215 OA 
BRANCH  23  26
HETATM   26  O   UNL     1      -9.649  16.352  67.994  1.00  0.00    -0.221 OA 
BRANCH  26  27
HETATM   27  P   UNL     1     -10.980  15.533  68.234  1.00  0.00    -0.334 P  
HETATM   28  O   UNL     1     -11.065  14.603  66.926  1.00  0.00    -0.316 OA 
HETATM   29  O   UNL     1     -12.252  16.294  68.388  1.00  0.00     0.220 OA 
BRANCH  27  30
HETATM   30  O   UNL     1     -10.685  14.476  69.404  1.00  0.00    -0.242 OA 
BRANCH  30  31
HETATM   31  C   UNL     1     -11.568  13.385  69.642  1.00  0.00    -0.268 C  
BRANCH  31  32
HETATM   32  C   UNL     1     -10.941  12.023  69.362  1.00  0.00    -0.066 C  
HETATM   33  O   UNL     1     -10.948  11.190  70.537  1.00  0.00     0.139 OA 
HETATM   34  C   UNL     1     -10.694   9.868  70.025  1.00  0.00    -0.292 C  
HETATM   35  H   UNL     1     -11.695  11.013  66.339  1.00  0.00     0.000 HD 
HETATM   36  C   UNL     1     -11.510   9.774  68.726  1.00  0.00     0.183 C  
HETATM   37  C   UNL     1     -11.706  11.233  68.306  1.00  0.00    -0.274 C  
HETATM   38  H   UNL     1     -11.365   8.972  66.888  1.00  0.00     0.000 HD 
HETATM   39  O   UNL     1     -10.861   9.030  67.692  1.00  0.00    -0.219 OA 
HETATM   40  O   UNL     1     -11.219  11.505  66.997  1.00  0.00    -0.288 OA 
BRANCH  34  41
HETATM   41  N   UNL     1     -11.057   8.863  71.004  1.00  0.00    -0.258 NA 
HETATM   42  C   UNL     1     -12.252   8.215  71.142  1.00  0.00    -0.239 A  
HETATM   43  N   UNL     1     -12.218   7.326  72.116  1.00  0.00    -0.260 NA 
HETATM   44  C   UNL     1     -10.949   7.428  72.646  1.00  0.00    -0.317 A  
HETATM   45  C   UNL     1     -10.293   6.750  73.687  1.00  0.00    -0.344 A  
HETATM   46  N   UNL     1     -10.873   5.714  74.405  1.00  0.00    -0.384 NA 
HETATM   47  N   UNL     1      -9.032   7.125  74.007  1.00  0.00    -0.192 NA 
HETATM   48  H1  UNL     1     -10.396   5.222  75.161  1.00  0.00     0.000 HD 
HETATM   49  C   UNL     1      -8.447   8.103  73.281  1.00  0.00    -0.230 A  
HETATM   50  H2  UNL     1     -11.180   5.012  73.731  1.00  0.00     0.000 HD 
HETATM   51  N   UNL     1      -8.953   8.788  72.230  1.00  0.00    -0.392 NA 
HETATM   52  C   UNL     1     -10.219   8.402  71.984  1.00  0.00    -0.294 A  
ENDBRANCH  34  41
ENDBRANCH  31  32
ENDBRANCH  30  31
ENDBRANCH  27  30
ENDBRANCH  26  27
ENDBRANCH  23  26
ENDBRANCH  22  23
ENDBRANCH  21  22
ENDBRANCH  14  21
ENDBRANCH   8  12
ENDBRANCH   4   6
TORSDOF 11
ENDMDL
MODEL      201
REMARK 921   NORMALIZED FREE ENERGY PREDICTED BY IDOCK:   -4.80 KCAL/MOL
REMARK 922        TOTAL FREE ENERGY PREDICTED BY IDOCK:  -10.09 KCAL/MOL
REMARK 923 INTER-LIGAND FREE ENERGY PREDICTED BY IDOCK:   -8.94 KCAL/MOL
REMARK 924 INTRA-LIGAND FREE ENERGY PREDICTED BY IDOCK:   -1.15 KCAL/MOL
REMARK 927      BINDING AFFINITY PREDICTED BY RF-SCORE:    0.00 PKD
ROOT
HETATM    1  N   UNL     1      -9.974   5.268  69.656  1.00  0.00    -0.210 N  
HETATM    2  H1  UNL     1      -9.164   5.318  70.273  1.00  0.00     0.000 HD 
HETATM    3  H2  UNL     1     -10.708   4.583  69.840  1.00  0.00     0.000 HD 
HETATM    4  C   UNL     1     -10.087   6.098  68.595  1.00  0.00    -0.162 C  
HETATM    5  O   UNL     1     -11.064   6.038  67.850  1.00  0.00    -0.301 OA 
ENDROOT
BRANCH   4   6
HETATM    6  C   UNL     1      -8.978   7.056  68.380  1.00  0.00    -0.122 C  
HETATM    7  C   UNL     1      -8.218   6.855  67.288  1.00  0.00    -0.118 C  
HETATM    8  N   UNL     1      -7.177   7.699  66.907  1.00  0.00    -0.086 NA 
HETATM    9  C   UNL     1      -8.746   8.240  69.278  1.00  0.00    -0.139 C  
HETATM   10  C   UNL     1      -6.819   8.720  67.794  1.00  0.00    -0.070 C  
HETATM   11  C   UNL     1      -7.506   9.015  68.907  1.00  0.00    -0.075 C  
BRANCH   8  12
HETATM   12  C   UNL     1      -6.542   7.684  65.570  1.00  0.00    -0.045 C  
HETATM   13  O   UNL     1      -6.362   9.048  65.127  1.00  0.00    -0.060 OA 
HETATM   14  C   UNL     1      -7.553   9.434  64.404  1.00  0.00    -0.114 C  
HETATM   15  H   UNL     1      -6.858   6.261  62.607  1.00  0.00     0.000 HD 
HETATM   16  C   UNL     1      -8.210   8.153  63.897  1.00  0.00    -0.064 C  
HETATM   17  H   UNL     1      -8.700   7.364  62.151  1.00  0.00     0.000 HD 
HETATM   18  C   UNL     1      -7.298   7.037  64.399  1.00  0.00    -0.085 C  
HETATM   19  O   UNL     1      -8.291   8.162  62.466  1.00  0.00    -0.178 OA 
HETATM   20  O   UNL     1      -6.391   6.661  63.332  1.00  0.00    -0.039 OA 
BRANCH  14  21
HETATM   21  C   UNL     1      -8.490  10.246  65.312  1.00  0.00    -0.163 C  
BRANCH  21  22
HETATM   22  O   UNL     1      -9.792  10.346  64.748  1.00  0.00    -0.294 OA 
BRANCH  22  23
HETATM   23  P   UNL     1     -10.099  11.564  63.761  1.00  0.00    -0.440 P  
HETATM   24  O   UNL     1      -9.114  11.823  62.671  1.00  0.00    -0.273 OA 
HETATM   25  O   UNL     1     -11.490  11.101  63.100  1.00  0.00     0.065 OA 
BRANCH  23  26
HETATM   26  O   UNL     1     -10.539  12.796  64.648  1.00  0.00    -0.312 OA 
BRANCH  26  27
HETATM   27  P   UNL     1     -11.896  13.592  64.486  1.00  0.00    -0.447 P  
HETATM   28  O   UNL     1     -12.899  12.781  65.444  1.00  0.00    -0.586 OA 
HETATM   29  O   UNL     1     -12.488  13.699  63.122  1.00  0.00    -0.786 OA 
BRANCH  27  30
HETATM   30  O   UNL     1     -11.723  14.991  65.252  1.00  0.00    -0.302 OA 
BRANCH  30  31
HETATM   31  C   UNL     1     -10.435  15.567  65.438  1.00  0.00    -0.405 C  
BRANCH  31  32
HETATM   32  C   UNL     1     -10.122  15.899  66.893  1.00  0.00    -0.266 C  
HETATM   33  O   UNL     1     -11.273  15.702  67.737  1.00  0.00    -0.329 OA 
HETATM   34  C   UNL     1     -10.727  15.681  69.069  1.00  0.00    -0.236 C  
HETATM   35  H   UNL     1      -7.066  14.991  67.645  1.00  0.00     0.000 HD 
HETATM   36  C   UNL     1      -9.419  14.880  68.956  1.00  0.00    -0.196 C  
HETATM   37  C   UNL     1      -9.038  15.000  67.479  1.00  0.00    -0.185 C  
HETATM   38  H   UNL     1      -7.561  14.880  69.724  1.00  0.00     0.000 HD 
HETATM   39  O   UNL     1      -8.369  15.374  69.794  1.00  0.00    -0.208 OA 
HETATM   40  O   UNL     1      -7.741  15.551  67.281  1.00  0.00    -0.174 OA 
BRANCH  34  41
HETATM   41  N   UNL     1     -11.674  15.102  70.000  1.00  0.00    -0.284 NA 
HETATM   42  C   UNL     1     -12.646  15.740  70.718  1.00  0.00    -0.357 A  
HETATM   43  N   UNL     1     -13.360  14.895  71.437  1.00  0.00    -0.383 NA 
HETATM   44  C   UNL     1     -12.800  13.658  71.190  1.00  0.00    -0.323 A  
HETATM   45  C   UNL     1     -13.110  12.364  71.640  1.00  0.00    -0.307 A  
HETATM   46  N   UNL     1     -14.185  12.085  72.472  1.00  0.00     0.026 NA 
HETATM   47  N   UNL     1     -12.320  11.337  71.245  1.00  0.00    -0.313 NA 
HETATM   48  H1  UNL     1     -14.410  11.145  72.798  1.00  0.00     0.000 HD 
HETATM   49  C   UNL     1     -11.300  11.598  70.400  1.00  0.00     0.284 A  
HETATM   50  H2  UNL     1     -15.021  12.458  72.022  1.00  0.00     0.000 HD 
HETATM   51  N   UNL     1     -10.936  12.784  69.859  1.00  0.00     0.318 NA 
HETATM   52  C   UNL     1     -11.729  13.770  70.318  1.00  0.00    -0.201 A  
ENDBRANCH  34  41
ENDBRANCH  31  32
ENDBRANCH  30  31
ENDBRANCH  27  30
ENDBRANCH  26  27
ENDBRANCH  23  26
ENDBRANCH  22  23
ENDBRANCH  21  22
ENDBRANCH  14  21
ENDBRANCH   8  12
ENDBRANCH   4   6
TORSDOF 11
ENDMDL
MODEL      202
REMARK 921   NORMALIZED FREE ENERGY PREDICTED BY IDOCK:   -4.75 KCAL/MOL
REMARK 922        TOTAL FREE ENERGY PREDICTED BY IDOCK:  -10.01 KCAL/MOL
REMARK 923 INTER-LIGAND FREE ENERGY PREDICTED BY IDOCK:   -8.87 KCAL/MOL
REMARK 924 INTRA-LIGAND FREE ENERGY PREDICTED BY IDOCK:   -1.14 KCAL/MOL
REMARK 927      BINDING AFFINITY PREDICTED BY RF-SCORE:    0.00 PKD
ROOT
HETATM    1  N   UNL     1     -13.286   9.833  72.451  1.00  0.00    -0.598 N  
HETATM    2  H1  UNL     1     -12.425  10.094  72.932  1.00  0.00     0.000 HD 
HETATM    3  H2  UNL     1     -14.102  10.443  72.510  1.00  0.00     0.000 HD 
HETATM    4  C   UNL     1     -13.359   8.687  71.738  1.00  0.00    -0.374 C  
HETATM    5  O   UNL     1     -14.398   8.372  71.158  1.00  0.00    -0.285 OA 
ENDROOT
BRANCH   4   6
HETATM    6  C   UNL     1     -12.143   7.844  71.708  1.00  0.00    -0.340 C  
HETATM    7  C   UNL     1     -10.967   8.493  71.616  1.00  0.00    -0.292 C  
HETATM    8  N   UNL     1      -9.729   7.854  71.639  1.00  0.00    -0.158 NA 
HETATM    9  C   UNL     1     -12.191   6.347  71.849  1.00  0.00    -0.332 C  
HETATM   10  C   UNL     1      -9.726   6.455  71.606  1.00  0.00    -0.160 C  
HETATM   11  C   UNL     1     -10.835   5.706  71.697  1.00  0.00    -0.301 C  
BRANCH   8  12
HETATM   12  C   UNL     1      -8.440   8.548  71.856  1.00  0.00    -0.170 C  
HETATM   13  O   UNL     1      -8.347   9.654  70.931  1.00  0.00    -0.272 OA 
HETATM   14  C   UNL     1      -7.721   9.164  69.724  1.00  0.00    -0.082 C  
HETATM   15  H   UNL     1      -5.214   7.908  72.157  1.00  0.00     0.000 HD 
HETATM   16  C   UNL     1      -6.905   7.931  70.106  1.00  0.00    -0.045 C  
HETATM   17  H   UNL     1      -5.012   7.364  70.041  1.00  0.00     0.000 HD 
HETATM   18  C   UNL     1      -7.134   7.777  71.606  1.00  0.00    -0.064 C  
HETATM   19  O   UNL     1      -5.519   8.131  69.803  1.00  0.00    -0.023 OA 
HETATM   20  O   UNL     1      -6.022   8.384  72.312  1.00  0.00    -0.048 OA 
BRANCH  14  21
HETATM   21  C   UNL     1      -8.784   8.849  68.660  1.00  0.00    -0.134 C  
BRANCH  21  22
HETATM   22  O   UNL     1      -8.258   9.001  67.347  1.00  0.00    -0.107 OA 
BRANCH  22  23
HETATM   23  P   UNL     1      -8.203   7.717  66.399  1.00  0.00    -0.128 P  
HETATM   24  O   UNL     1      -7.842   6.417  67.035  1.00  0.00    -0.102 OA 
HETATM   25  O   UNL     1      -9.722   7.634  65.879  1.00  0.00     0.064 OA 
BRANCH  23  26
HETATM   26  O   UNL     1      -7.419   8.125  65.089  1.00  0.00    -0.075 OA 
BRANCH  26  27
HETATM   27  P   UNL     1      -7.943   9.141  63.997  1.00  0.00    -0.160 P  
HETATM   28  O   UNL     1      -8.384   8.172  62.793  1.00  0.00    -0.160 OA 
HETATM   29  O   UNL     1      -6.995  10.171  63.485  1.00  0.00    -0.132 OA 
BRANCH  27  30
HETATM   30  O   UNL     1      -9.344   9.722  64.519  1.00  0.00    -0.261 OA 
BRANCH  30  31
HETATM   31  C   UNL     1      -9.685  11.091  64.326  1.00  0.00    -0.284 C  
BRANCH  31  32
HETATM   32  C   UNL     1     -10.437  11.702  65.503  1.00  0.00    -0.273 C  
HETATM   33  O   UNL     1      -9.529  12.222  66.494  1.00  0.00    -0.226 OA 
HETATM   34  C   UNL     1     -10.357  13.073  67.309  1.00  0.00    -0.238 C  
HETATM   35  H   UNL     1     -13.153  13.213  64.468  1.00  0.00     0.000 HD 
HETATM   36  C   UNL     1     -11.285  13.800  66.321  1.00  0.00    -0.306 C  
HETATM   37  C   UNL     1     -11.302  12.889  65.092  1.00  0.00    -0.298 C  
HETATM   38  H   UNL     1     -13.183  14.454  66.211  1.00  0.00     0.000 HD 
HETATM   39  O   UNL     1     -12.609  14.005  66.822  1.00  0.00    -0.311 OA 
HETATM   40  O   UNL     1     -12.614  12.474  64.725  1.00  0.00    -0.508 OA 
BRANCH  34  41
HETATM   41  N   UNL     1      -9.542  13.975  68.098  1.00  0.00    -0.214 NA 
HETATM   42  C   UNL     1      -9.956  14.990  68.914  1.00  0.00    -0.236 A  
HETATM   43  N   UNL     1      -8.943  15.580  69.517  1.00  0.00    -0.273 NA 
HETATM   44  C   UNL     1      -7.821  14.930  69.043  1.00  0.00    -0.165 A  
HETATM   45  C   UNL     1      -6.449  15.080  69.308  1.00  0.00    -0.124 A  
HETATM   46  N   UNL     1      -5.947  15.985  70.231  1.00  0.00    -0.130 NA 
HETATM   47  N   UNL     1      -5.573  14.303  68.628  1.00  0.00    -0.084 NA 
HETATM   48  H1  UNL     1      -4.951  16.093  70.424  1.00  0.00     0.000 HD 
HETATM   49  C   UNL     1      -6.060  13.390  67.761  1.00  0.00    -0.149 A  
HETATM   50  H2  UNL     1      -6.410  15.798  71.122  1.00  0.00     0.000 HD 
HETATM   51  N   UNL     1      -7.352  13.117  67.462  1.00  0.00    -0.152 NA 
HETATM   52  C   UNL     1      -8.173  13.944  68.136  1.00  0.00    -0.158 A  
ENDBRANCH  34  41
ENDBRANCH  31  32
ENDBRANCH  30  31
ENDBRANCH  27  30
ENDBRANCH  26  27
ENDBRANCH  23  26
ENDBRANCH  22  23
ENDBRANCH  21  22
ENDBRANCH  14  21
ENDBRANCH   8  12
ENDBRANCH   4   6
TORSDOF 11
ENDMDL
MODEL      203
REMARK 921   NORMALIZED FREE ENERGY PREDICTED BY IDOCK:   -4.74 KCAL/MOL
REMARK 922        TOTAL FREE ENERGY PREDICTED BY IDOCK:  -10.00 KCAL/MOL
REMARK 923 INTER-LIGAND FREE ENERGY PREDICTED BY IDOCK:  -10.37 KCAL/MOL
REMARK 924 INTRA-LIGAND FREE ENERGY PREDICTED BY IDOCK:    0.37 KCAL/MOL
REMARK 927      BINDING AFFINITY PREDICTED BY RF-SCORE:    0.00 PKD
ROOT
HETATM    1  N   UNL     1      -6.584  20.932  71.818  1.00  0.00    -0.004 N  
HETATM    2  H1  UNL     1      -7.152  21.486  71.177  1.00  0.00     0.000 HD 
HETATM    3  H2  UNL     1      -6.460  21.245  72.781  1.00  0.00     0.000 HD 
HETATM    4  C   UNL     1      -5.994  19.788  71.407  1.00  0.00    -0.162 C  
HETATM    5  O   UNL     1      -5.309  19.120  72.180  1.00  0.00    -0.635 OA 
ENDROOT
BRANCH   4   6
HETATM    6  C   UNL     1      -6.206  19.402  69.993  1.00  0.00    -0.266 C  
HETATM    7  C   UNL     1      -7.366  19.794  69.433  1.00  0.00    -0.161 C  
HETATM    8  N   UNL     1      -7.694  19.568  68.099  1.00  0.00    -0.298 NA 
HETATM    9  C   UNL     1      -5.163  18.679  69.186  1.00  0.00    -0.192 C  
HETATM   10  C   UNL     1      -6.829  18.759  67.352  1.00  0.00    -0.204 C  
HETATM   11  C   UNL     1      -5.646  18.317  67.804  1.00  0.00    -0.155 C  
BRANCH   8  12
HETATM   12  C   UNL     1      -8.797  20.249  67.386  1.00  0.00    -0.344 C  
HETATM   13  O   UNL     1      -9.994  20.161  68.192  1.00  0.00    -0.392 OA 
HETATM   14  C   UNL     1     -10.686  18.949  67.815  1.00  0.00    -0.352 C  
HETATM   15  H   UNL     1     -10.232  20.366  64.415  1.00  0.00     0.000 HD 
HETATM   16  C   UNL     1     -10.242  18.596  66.398  1.00  0.00    -0.425 C  
HETATM   17  H   UNL     1     -11.090  18.357  64.627  1.00  0.00     0.000 HD 
HETATM   18  C   UNL     1      -9.253  19.697  66.027  1.00  0.00    -0.251 C  
HETATM   19  O   UNL     1     -11.366  18.577  65.509  1.00  0.00     0.291 OA 
HETATM   20  O   UNL     1      -9.950  20.708  65.255  1.00  0.00     0.204 OA 
BRANCH  14  21
HETATM   21  C   UNL     1     -10.377  17.824  68.817  1.00  0.00    -0.332 C  
BRANCH  21  22
HETATM   22  O   UNL     1     -11.179  16.677  68.564  1.00  0.00    -0.344 OA 
BRANCH  22  23
HETATM   23  P   UNL     1     -10.871  15.341  69.382  1.00  0.00    -0.300 P  
HETATM   24  O   UNL     1     -10.900  15.433  70.871  1.00  0.00    -0.323 OA 
HETATM   25  O   UNL     1     -12.068  14.382  68.900  1.00  0.00    -0.311 OA 
BRANCH  23  26
HETATM   26  O   UNL     1      -9.606  14.660  68.723  1.00  0.00    -0.211 OA 
BRANCH  26  27
HETATM   27  P   UNL     1      -8.735  15.291  67.564  1.00  0.00    -0.199 P  
HETATM   28  O   UNL     1      -7.943  14.020  66.983  1.00  0.00    -0.114 OA 
HETATM   29  O   UNL     1      -7.763  16.363  67.923  1.00  0.00    -0.147 OA 
BRANCH  27  30
HETATM   30  O   UNL     1      -9.734  15.668  66.367  1.00  0.00    -0.243 OA 
BRANCH  30  31
HETATM   31  C   UNL     1      -9.554  15.119  65.066  1.00  0.00     0.356 C  
BRANCH  31  32
HETATM   32  C   UNL     1     -10.393  13.871  64.811  1.00  0.00    -0.394 C  
HETATM   33  O   UNL     1     -10.014  12.795  65.692  1.00  0.00    -0.269 OA 
HETATM   34  C   UNL     1     -11.112  11.867  65.596  1.00  0.00    -0.310 C  
HETATM   35  H   UNL     1     -13.474  14.692  64.066  1.00  0.00     0.000 HD 
HETATM   36  C   UNL     1     -12.377  12.740  65.567  1.00  0.00    -0.434 C  
HETATM   37  C   UNL     1     -11.877  14.100  65.074  1.00  0.00    -0.389 C  
HETATM   38  H   UNL     1     -14.186  12.773  64.691  1.00  0.00     0.000 HD 
HETATM   39  O   UNL     1     -13.404  12.234  64.709  1.00  0.00    -0.631 OA 
HETATM   40  O   UNL     1     -12.550  14.549  63.903  1.00  0.00    -0.827 OA 
BRANCH  34  41
HETATM   41  N   UNL     1     -11.087  10.931  66.702  1.00  0.00    -0.173 NA 
HETATM   42  C   UNL     1     -11.680  11.057  67.926  1.00  0.00    -0.135 A  
HETATM   43  N   UNL     1     -11.489   9.990  68.676  1.00  0.00    -0.053 NA 
HETATM   44  C   UNL     1     -10.711   9.148  67.906  1.00  0.00    -0.162 A  
HETATM   45  C   UNL     1     -10.185   7.866  68.130  1.00  0.00    -0.205 A  
HETATM   46  N   UNL     1     -10.428   7.134  69.283  1.00  0.00    -0.207 NA 
HETATM   47  N   UNL     1      -9.400   7.315  67.174  1.00  0.00    -0.136 NA 
HETATM   48  H1  UNL     1     -10.046   6.202  69.445  1.00  0.00     0.000 HD 
HETATM   49  C   UNL     1      -9.198   8.006  66.031  1.00  0.00    -0.120 A  
HETATM   50  H2  UNL     1     -11.441   7.070  69.394  1.00  0.00     0.000 HD 
HETATM   51  N   UNL     1      -9.690   9.216  65.680  1.00  0.00    -0.243 NA 
HETATM   52  C   UNL     1     -10.427   9.730  66.682  1.00  0.00    -0.163 A  
ENDBRANCH  34  41
ENDBRANCH  31  32
ENDBRANCH  30  31
ENDBRANCH  27  30
ENDBRANCH  26  27
ENDBRANCH  23  26
ENDBRANCH  22  23
ENDBRANCH  21  22
ENDBRANCH  14  21
ENDBRANCH   8  12
ENDBRANCH   4   6
TORSDOF 11
ENDMDL
MODEL      204
REMARK 921   NORMALIZED FREE ENERGY PREDICTED BY IDOCK:   -4.74 KCAL/MOL
REMARK 922        TOTAL FREE ENERGY PREDICTED BY IDOCK:   -9.98 KCAL/MOL
REMARK 923 INTER-LIGAND FREE ENERGY PREDICTED BY IDOCK:   -8.64 KCAL/MOL
REMARK 924 INTRA-LIGAND FREE ENERGY PREDICTED BY IDOCK:   -1.34 KCAL/MOL
REMARK 927      BINDING AFFINITY PREDICTED BY RF-SCORE:    0.00 PKD
ROOT
HETATM    1  N   UNL     1      -7.907  14.680  70.043  1.00  0.00    -0.304 N  
HETATM    2  H1  UNL     1      -8.749  14.136  69.853  1.00  0.00     0.000 HD 
HETATM    3  H2  UNL     1      -7.297  14.411  70.815  1.00  0.00     0.000 HD 
HETATM    4  C   UNL     1      -7.591  15.752  69.284  1.00  0.00    -0.224 C  
HETATM    5  O   UNL     1      -6.574  16.408  69.513  1.00  0.00    -0.205 OA 
ENDROOT
BRANCH   4   6
HETATM    6  C   UNL     1      -8.528  16.092  68.189  1.00  0.00    -0.175 C  
HETATM    7  C   UNL     1      -9.452  15.163  67.882  1.00  0.00    -0.194 C  
HETATM    8  N   UNL     1     -10.445  15.349  66.924  1.00  0.00    -0.289 NA 
HETATM    9  C   UNL     1      -8.516  17.429  67.499  1.00  0.00    -0.218 C  
HETATM   10  C   UNL     1     -10.376  16.509  66.142  1.00  0.00    -0.334 C  
HETATM   11  C   UNL     1      -9.503  17.503  66.361  1.00  0.00    -0.276 C  
BRANCH   8  12
HETATM   12  C   UNL     1     -11.642  14.491  66.790  1.00  0.00    -0.376 C  
HETATM   13  O   UNL     1     -11.265  13.122  67.059  1.00  0.00    -0.275 OA 
HETATM   14  C   UNL     1     -10.867  12.523  65.805  1.00  0.00    -0.276 C  
HETATM   15  H   UNL     1     -14.138  13.894  64.711  1.00  0.00     0.000 HD 
HETATM   16  C   UNL     1     -11.543  13.315  64.690  1.00  0.00    -0.350 C  
HETATM   17  H   UNL     1     -12.822  12.959  63.224  1.00  0.00     0.000 HD 
HETATM   18  C   UNL     1     -12.336  14.395  65.421  1.00  0.00    -0.355 C  
HETATM   19  O   UNL     1     -12.401  12.466  63.918  1.00  0.00    -0.455 OA 
HETATM   20  O   UNL     1     -13.710  13.953  65.557  1.00  0.00    -0.389 OA 
BRANCH  14  21
HETATM   21  C   UNL     1      -9.336  12.527  65.673  1.00  0.00     0.090 C  
BRANCH  21  22
HETATM   22  O   UNL     1      -8.717  12.035  66.856  1.00  0.00    -0.184 OA 
BRANCH  22  23
HETATM   23  P   UNL     1      -7.714  10.799  66.729  1.00  0.00    -0.147 P  
HETATM   24  O   UNL     1      -7.864   9.921  65.532  1.00  0.00    -0.116 OA 
HETATM   25  O   UNL     1      -6.291  11.544  66.648  1.00  0.00    -0.141 OA 
BRANCH  23  26
HETATM   26  O   UNL     1      -7.646  10.093  68.141  1.00  0.00    -0.086 OA 
BRANCH  26  27
HETATM   27  P   UNL     1      -6.785  10.598  69.368  1.00  0.00    -0.112 P  
HETATM   28  O   UNL     1      -7.729  10.264  70.625  1.00  0.00    -0.098 OA 
HETATM   29  O   UNL     1      -6.396  12.037  69.406  1.00  0.00    -0.097 OA 
BRANCH  27  30
HETATM   30  O   UNL     1      -5.568   9.570  69.552  1.00  0.00    -0.034 OA 
BRANCH  30  31
HETATM   31  C   UNL     1      -5.322   8.550  68.590  1.00  0.00    -0.036 C  
BRANCH  31  32
HETATM   32  C   UNL     1      -6.068   7.251  68.878  1.00  0.00    -0.026 C  
HETATM   33  O   UNL     1      -7.351   7.505  69.483  1.00  0.00    -0.079 OA 
HETATM   34  C   UNL     1      -8.056   6.259  69.334  1.00  0.00    -0.113 C  
HETATM   35  H   UNL     1      -5.510   5.059  66.509  1.00  0.00     0.000 HD 
HETATM   36  C   UNL     1      -7.695   5.755  67.928  1.00  0.00    -0.097 C  
HETATM   37  C   UNL     1      -6.373   6.459  67.611  1.00  0.00    -0.040 C  
HETATM   38  H   UNL     1      -7.323   4.023  66.977  1.00  0.00     0.000 HD 
HETATM   39  O   UNL     1      -7.547   4.334  67.846  1.00  0.00    -0.068 OA 
HETATM   40  O   UNL     1      -5.321   5.553  67.298  1.00  0.00    -0.007 OA 
BRANCH  34  41
HETATM   41  N   UNL     1      -9.480   6.451  69.525  1.00  0.00    -0.145 NA 
HETATM   42  C   UNL     1     -10.488   6.228  68.631  1.00  0.00    -0.231 A  
HETATM   43  N   UNL     1     -11.673   6.467  69.156  1.00  0.00    -0.050 NA 
HETATM   44  C   UNL     1     -11.412   6.892  70.443  1.00  0.00    -0.338 A  
HETATM   45  C   UNL     1     -12.243   7.283  71.506  1.00  0.00    -0.352 A  
HETATM   46  N   UNL     1     -13.628   7.260  71.437  1.00  0.00    -0.496 NA 
HETATM   47  N   UNL     1     -11.665   7.704  72.656  1.00  0.00    -0.305 NA 
HETATM   48  H1  UNL     1     -14.232   7.543  72.209  1.00  0.00     0.000 HD 
HETATM   49  C   UNL     1     -10.317   7.686  72.743  1.00  0.00    -0.295 A  
HETATM   50  H2  UNL     1     -13.903   6.314  71.168  1.00  0.00     0.000 HD 
HETATM   51  N   UNL     1      -9.419   7.284  71.814  1.00  0.00    -0.150 NA 
HETATM   52  C   UNL     1     -10.048   6.916  70.683  1.00  0.00    -0.194 A  
ENDBRANCH  34  41
ENDBRANCH  31  32
ENDBRANCH  30  31
ENDBRANCH  27  30
ENDBRANCH  26  27
ENDBRANCH  23  26
ENDBRANCH  22  23
ENDBRANCH  21  22
ENDBRANCH  14  21
ENDBRANCH   8  12
ENDBRANCH   4   6
TORSDOF 11
ENDMDL
MODEL      205
REMARK 921   NORMALIZED FREE ENERGY PREDICTED BY IDOCK:   -4.73 KCAL/MOL
REMARK 922        TOTAL FREE ENERGY PREDICTED BY IDOCK:   -9.97 KCAL/MOL
REMARK 923 INTER-LIGAND FREE ENERGY PREDICTED BY IDOCK:   -8.64 KCAL/MOL
REMARK 924 INTRA-LIGAND FREE ENERGY PREDICTED BY IDOCK:   -1.34 KCAL/MOL
REMARK 927      BINDING AFFINITY PREDICTED BY RF-SCORE:    0.00 PKD
ROOT
HETATM    1  N   UNL     1     -11.900  16.738  72.475  1.00  0.00    -0.464 N  
HETATM    2  H1  UNL     1     -11.882  17.418  71.714  1.00  0.00     0.000 HD 
HETATM    3  H2  UNL     1     -11.995  17.061  73.438  1.00  0.00     0.000 HD 
HETATM    4  C   UNL     1     -11.799  15.415  72.221  1.00  0.00    -0.458 C  
HETATM    5  O   UNL     1     -11.821  14.594  73.138  1.00  0.00    -0.090 OA 
ENDROOT
BRANCH   4   6
HETATM    6  C   UNL     1     -11.650  15.019  70.802  1.00  0.00    -0.364 C  
HETATM    7  C   UNL     1     -10.862  15.803  70.042  1.00  0.00    -0.342 C  
HETATM    8  N   UNL     1     -10.567  15.537  68.707  1.00  0.00    -0.234 NA 
HETATM    9  C   UNL     1     -12.273  13.771  70.239  1.00  0.00    -0.429 C  
HETATM   10  C   UNL     1     -11.251  14.480  68.095  1.00  0.00    -0.284 C  
HETATM   11  C   UNL     1     -12.055  13.633  68.753  1.00  0.00    -0.332 C  
BRANCH   8  12
HETATM   12  C   UNL     1      -9.474  16.189  67.951  1.00  0.00    -0.214 C  
HETATM   13  O   UNL     1      -8.881  15.216  67.062  1.00  0.00    -0.203 OA 
HETATM   14  C   UNL     1      -7.808  14.565  67.780  1.00  0.00    -0.161 C  
HETATM   15  H   UNL     1      -6.810  18.081  68.432  1.00  0.00     0.000 HD 
HETATM   16  C   UNL     1      -7.358  15.518  68.883  1.00  0.00    -0.150 C  
HETATM   17  H   UNL     1      -5.697  16.458  69.404  1.00  0.00     0.000 HD 
HETATM   18  C   UNL     1      -8.264  16.736  68.724  1.00  0.00    -0.250 C  
HETATM   19  O   UNL     1      -5.977  15.865  68.717  1.00  0.00    -0.099 OA 
HETATM   20  O   UNL     1      -7.560  17.742  67.955  1.00  0.00    -0.204 OA 
BRANCH  14  21
HETATM   21  C   UNL     1      -8.282  13.214  68.338  1.00  0.00    -0.130 C  
BRANCH  21  22
HETATM   22  O   UNL     1      -9.026  12.489  67.366  1.00  0.00    -0.172 OA 
BRANCH  22  23
HETATM   23  P   UNL     1      -8.346  11.212  66.689  1.00  0.00    -0.161 P  
HETATM   24  O   UNL     1      -8.087  11.275  65.222  1.00  0.00     0.163 OA 
HETATM   25  O   UNL     1      -6.937  11.149  67.461  1.00  0.00    -0.080 OA 
BRANCH  23  26
HETATM   26  O   UNL     1      -9.089   9.930  67.239  1.00  0.00    -0.134 OA 
BRANCH  26  27
HETATM   27  P   UNL     1     -10.481   9.938  67.989  1.00  0.00    -0.247 P  
HETATM   28  O   UNL     1     -10.849   8.376  68.073  1.00  0.00    -0.101 OA 
HETATM   29  O   UNL     1     -11.610  10.683  67.361  1.00  0.00    -0.445 OA 
BRANCH  27  30
HETATM   30  O   UNL     1     -10.196  10.321  69.520  1.00  0.00    -0.216 OA 
BRANCH  30  31
HETATM   31  C   UNL     1     -10.707   9.520  70.580  1.00  0.00    -0.309 C  
BRANCH  31  32
HETATM   32  C   UNL     1      -9.664   8.596  71.201  1.00  0.00    -0.224 C  
HETATM   33  O   UNL     1      -9.993   7.211  70.983  1.00  0.00    -0.188 OA 
HETATM   34  C   UNL     1      -8.767   6.514  71.273  1.00  0.00    -0.130 C  
HETATM   35  H   UNL     1      -6.668   9.885  70.901  1.00  0.00     0.000 HD 
HETATM   36  C   UNL     1      -7.654   7.386  70.669  1.00  0.00    -0.086 C  
HETATM   37  C   UNL     1      -8.280   8.781  70.587  1.00  0.00    -0.144 C  
HETATM   38  H   UNL     1      -5.768   7.951  71.077  1.00  0.00     0.000 HD 
HETATM   39  O   UNL     1      -6.456   7.412  71.450  1.00  0.00    -0.036 OA 
HETATM   40  O   UNL     1      -7.530   9.769  71.283  1.00  0.00    -0.260 OA 
BRANCH  34  41
HETATM   41  N   UNL     1      -8.801   5.171  70.729  1.00  0.00    -0.131 NA 
HETATM   42  C   UNL     1      -8.532   3.995  71.371  1.00  0.00    -0.085 A  
HETATM   43  N   UNL     1      -8.705   2.954  70.581  1.00  0.00    -0.067 NA 
HETATM   44  C   UNL     1      -9.076   3.489  69.364  1.00  0.00    -0.134 A  
HETATM   45  C   UNL     1      -9.411   2.909  68.129  1.00  0.00    -0.161 A  
HETATM   46  N   UNL     1      -9.471   1.539  67.924  1.00  0.00    -0.323 NA 
HETATM   47  N   UNL     1      -9.688   3.727  67.086  1.00  0.00    -0.174 NA 
HETATM   48  H1  UNL     1      -9.715   1.118  67.027  1.00  0.00     0.000 HD 
HETATM   49  C   UNL     1      -9.675   5.062  67.294  1.00  0.00    -0.162 A  
HETATM   50  H2  UNL     1     -10.108   1.154  68.623  1.00  0.00     0.000 HD 
HETATM   51  N   UNL     1      -9.421   5.733  68.441  1.00  0.00    -0.120 NA 
HETATM   52  C   UNL     1      -9.114   4.873  69.429  1.00  0.00    -0.105 A  
ENDBRANCH  34  41
ENDBRANCH  31  32
ENDBRANCH  30  31
ENDBRANCH  27  30
ENDBRANCH  26  27
ENDBRANCH  23  26
ENDBRANCH  22  23
ENDBRANCH  21  22
ENDBRANCH  14  21
ENDBRANCH   8  12
ENDBRANCH   4   6
TORSDOF 11
ENDMDL
MODEL      206
REMARK 921   NORMALIZED FREE ENERGY PREDICTED BY IDOCK:   -4.68 KCAL/MOL
REMARK 922        TOTAL FREE ENERGY PREDICTED BY IDOCK:   -9.89 KCAL/MOL
REMARK 923 INTER-LIGAND FREE ENERGY PREDICTED BY IDOCK:   -8.29 KCAL/MOL
REMARK 924 INTRA-LIGAND FREE ENERGY PREDICTED BY IDOCK:   -1.60 KCAL/MOL
REMARK 927      BINDING AFFINITY PREDICTED BY RF-SCORE:    0.00 PKD
ROOT
HETATM    1  N   UNL     1     -11.292   6.673  73.175  1.00  0.00    -0.483 N  
HETATM    2  H1  UNL     1     -10.675   7.438  72.902  1.00  0.00     0.000 HD 
HETATM    3  H2  UNL     1     -12.236   6.879  73.503  1.00  0.00     0.000 HD 
HETATM    4  C   UNL     1     -10.872   5.390  73.109  1.00  0.00    -0.285 C  
HETATM    5  O   UNL     1     -11.617   4.467  73.440  1.00  0.00    -0.300 OA 
ENDROOT
BRANCH   4   6
HETATM    6  C   UNL     1      -9.487   5.167  72.638  1.00  0.00    -0.159 C  
HETATM    7  C   UNL     1      -9.325   4.248  71.668  1.00  0.00    -0.139 C  
HETATM    8  N   UNL     1      -8.100   3.963  71.071  1.00  0.00    -0.066 NA 
HETATM    9  C   UNL     1      -8.319   5.966  73.148  1.00  0.00    -0.116 C  
HETATM   10  C   UNL     1      -6.961   4.562  71.622  1.00  0.00    -0.039 C  
HETATM   11  C   UNL     1      -7.002   5.493  72.585  1.00  0.00    -0.083 C  
BRANCH   8  12
HETATM   12  C   UNL     1      -7.946   3.204  69.810  1.00  0.00    -0.045 C  
HETATM   13  O   UNL     1      -7.171   3.998  68.883  1.00  0.00    -0.053 OA 
HETATM   14  C   UNL     1      -8.095   4.807  68.121  1.00  0.00    -0.085 C  
HETATM   15  H   UNL     1      -9.738   1.518  67.607  1.00  0.00     0.000 HD 
HETATM   16  C   UNL     1      -9.449   4.103  68.157  1.00  0.00    -0.158 C  
HETATM   17  H   UNL     1     -10.720   3.330  66.854  1.00  0.00     0.000 HD 
HETATM   18  C   UNL     1      -9.203   2.854  68.998  1.00  0.00    -0.156 C  
HETATM   19  O   UNL     1      -9.877   3.768  66.831  1.00  0.00    -0.182 OA 
HETATM   20  O   UNL     1      -8.961   1.735  68.110  1.00  0.00    -0.101 OA 
BRANCH  14  21
HETATM   21  C   UNL     1      -8.164   6.229  68.700  1.00  0.00    -0.112 C  
BRANCH  21  22
HETATM   22  O   UNL     1      -9.458   6.509  69.220  1.00  0.00    -0.141 OA 
BRANCH  22  23
HETATM   23  P   UNL     1      -9.850   8.032  69.494  1.00  0.00    -0.188 P  
HETATM   24  O   UNL     1     -10.814   8.299  70.602  1.00  0.00    -0.227 OA 
HETATM   25  O   UNL     1      -8.426   8.668  69.885  1.00  0.00    -0.122 OA 
BRANCH  23  26
HETATM   26  O   UNL     1     -10.149   8.707  68.096  1.00  0.00    -0.181 OA 
BRANCH  26  27
HETATM   27  P   UNL     1      -9.373   9.951  67.505  1.00  0.00    -0.142 P  
HETATM   28  O   UNL     1     -10.317  10.413  66.290  1.00  0.00    -0.236 OA 
HETATM   29  O   UNL     1      -7.985   9.737  67.004  1.00  0.00    -0.105 OA 
BRANCH  27  30
HETATM   30  O   UNL     1      -9.528  11.154  68.555  1.00  0.00    -0.181 OA 
BRANCH  30  31
HETATM   31  C   UNL     1      -9.792  12.480  68.112  1.00  0.00    -0.221 C  
BRANCH  31  32
HETATM   32  C   UNL     1      -8.538  13.243  67.697  1.00  0.00    -0.196 C  
HETATM   33  O   UNL     1      -8.832  14.627  67.422  1.00  0.00    -0.176 OA 
HETATM   34  C   UNL     1      -7.540  15.263  67.428  1.00  0.00    -0.200 C  
HETATM   35  H   UNL     1      -5.937  12.174  69.375  1.00  0.00     0.000 HD 
HETATM   36  C   UNL     1      -6.775  14.614  68.593  1.00  0.00    -0.086 C  
HETATM   37  C   UNL     1      -7.479  13.269  68.794  1.00  0.00    -0.053 C  
HETATM   38  H   UNL     1      -4.909  14.023  69.051  1.00  0.00     0.000 HD 
HETATM   39  O   UNL     1      -5.382  14.424  68.332  1.00  0.00    -0.094 OA 
HETATM   40  O   UNL     1      -6.596  12.158  68.692  1.00  0.00    -0.066 OA 
BRANCH  34  41
HETATM   41  N   UNL     1      -7.678  16.699  67.563  1.00  0.00    -0.160 NA 
HETATM   42  C   UNL     1      -6.877  17.561  68.257  1.00  0.00    -0.200 A  
HETATM   43  N   UNL     1      -7.273  18.812  68.127  1.00  0.00    -0.246 NA 
HETATM   44  C   UNL     1      -8.399  18.747  67.333  1.00  0.00    -0.264 A  
HETATM   45  C   UNL     1      -9.267  19.729  66.826  1.00  0.00    -0.367 A  
HETATM   46  N   UNL     1      -9.081  21.088  67.033  1.00  0.00    -0.594 NA 
HETATM   47  N   UNL     1     -10.339  19.331  66.101  1.00  0.00    -0.465 NA 
HETATM   48  H1  UNL     1      -9.711  21.801  66.665  1.00  0.00     0.000 HD 
HETATM   49  C   UNL     1     -10.498  18.012  65.859  1.00  0.00    -0.264 A  
HETATM   50  H2  UNL     1      -8.141  21.319  66.711  1.00  0.00     0.000 HD 
HETATM   51  N   UNL     1      -9.708  16.983  66.245  1.00  0.00    -0.318 NA 
HETATM   52  C   UNL     1      -8.684  17.435  66.994  1.00  0.00    -0.234 A  
ENDBRANCH  34  41
ENDBRANCH  31  32
ENDBRANCH  30  31
ENDBRANCH  27  30
ENDBRANCH  26  27
ENDBRANCH  23  26
ENDBRANCH  22  23
ENDBRANCH  21  22
ENDBRANCH  14  21
ENDBRANCH   8  12
ENDBRANCH   4   6
TORSDOF 11
ENDMDL
MODEL      207
REMARK 921   NORMALIZED FREE ENERGY PREDICTED BY IDOCK:   -4.67 KCAL/MOL
REMARK 922        TOTAL FREE ENERGY PREDICTED BY IDOCK:   -9.87 KCAL/MOL
REMARK 923 INTER-LIGAND FREE ENERGY PREDICTED BY IDOCK:   -9.31 KCAL/MOL
REMARK 924 INTRA-LIGAND FREE ENERGY PREDICTED BY IDOCK:   -0.56 KCAL/MOL
REMARK 927      BINDING AFFINITY PREDICTED BY RF-SCORE:    0.00 PKD
ROOT
HETATM    1  N   UNL     1      -9.803   4.989  64.750  1.00  0.00    -0.341 N  
HETATM    2  H1  UNL     1      -9.012   4.456  64.388  1.00  0.00     0.000 HD 
HETATM    3  H2  UNL     1     -10.308   5.624  64.132  1.00  0.00     0.000 HD 
HETATM    4  C   UNL     1     -10.189   4.864  66.039  1.00  0.00    -0.257 C  
HETATM    5  O   UNL     1     -11.143   5.508  66.475  1.00  0.00    -0.179 OA 
ENDROOT
BRANCH   4   6
HETATM    6  C   UNL     1      -9.402   3.935  66.881  1.00  0.00    -0.208 C  
HETATM    7  C   UNL     1      -9.554   4.060  68.213  1.00  0.00    -0.125 C  
HETATM    8  N   UNL     1      -8.937   3.227  69.142  1.00  0.00    -0.107 NA 
HETATM    9  C   UNL     1      -8.534   2.852  66.300  1.00  0.00    -0.105 C  
HETATM   10  C   UNL     1      -7.995   2.311  68.659  1.00  0.00    -0.052 C  
HETATM   11  C   UNL     1      -7.765   2.097  67.355  1.00  0.00    -0.061 C  
BRANCH   8  12
HETATM   12  C   UNL     1      -9.325   3.139  70.567  1.00  0.00    -0.157 C  
HETATM   13  O   UNL     1     -10.114   4.301  70.906  1.00  0.00    -0.185 OA 
HETATM   14  C   UNL     1      -9.205   5.329  71.361  1.00  0.00    -0.146 C  
HETATM   15  H   UNL     1      -8.010   2.574  73.543  1.00  0.00     0.000 HD 
HETATM   16  C   UNL     1      -7.943   4.630  71.858  1.00  0.00    -0.100 C  
HETATM   17  H   UNL     1      -6.932   4.486  73.552  1.00  0.00     0.000 HD 
HETATM   18  C   UNL     1      -8.222   3.146  71.637  1.00  0.00    -0.061 C  
HETATM   19  O   UNL     1      -7.718   4.922  73.243  1.00  0.00    -0.090 OA 
HETATM   20  O   UNL     1      -8.692   2.570  72.881  1.00  0.00    -0.070 OA 
BRANCH  14  21
HETATM   21  C   UNL     1      -8.910   6.322  70.226  1.00  0.00    -0.153 C  
BRANCH  21  22
HETATM   22  O   UNL     1      -7.509   6.493  70.045  1.00  0.00    -0.089 OA 
BRANCH  22  23
HETATM   23  P   UNL     1      -6.924   7.979  70.024  1.00  0.00    -0.049 P  
HETATM   24  O   UNL     1      -7.152   8.818  71.237  1.00  0.00    -0.077 OA 
HETATM   25  O   UNL     1      -5.347   7.703  69.876  1.00  0.00    -0.023 OA 
BRANCH  23  26
HETATM   26  O   UNL     1      -7.288   8.615  68.624  1.00  0.00    -0.078 OA 
BRANCH  26  27
HETATM   27  P   UNL     1      -8.685   9.259  68.255  1.00  0.00    -0.128 P  
HETATM   28  O   UNL     1      -9.076  10.051  69.598  1.00  0.00    -0.206 OA 
HETATM   29  O   UNL     1      -9.799   8.345  67.874  1.00  0.00    -0.157 OA 
BRANCH  27  30
HETATM   30  O   UNL     1      -8.403  10.444  67.211  1.00  0.00    -0.121 OA 
BRANCH  30  31
HETATM   31  C   UNL     1      -8.391  11.803  67.635  1.00  0.00    -0.145 C  
BRANCH  31  32
HETATM   32  C   UNL     1      -9.746  12.491  67.509  1.00  0.00    -0.196 C  
HETATM   33  O   UNL     1      -9.599  13.914  67.337  1.00  0.00    -0.224 OA 
HETATM   34  C   UNL     1     -10.890  14.340  66.862  1.00  0.00    -0.298 C  
HETATM   35  H   UNL     1     -11.840  10.604  65.841  1.00  0.00     0.000 HD 
HETATM   36  C   UNL     1     -11.336  13.252  65.871  1.00  0.00    -0.311 C  
HETATM   37  C   UNL     1     -10.531  12.019  66.290  1.00  0.00    -0.238 C  
HETATM   38  H   UNL     1     -13.015  12.308  65.298  1.00  0.00     0.000 HD 
HETATM   39  O   UNL     1     -12.740  12.980  65.909  1.00  0.00    -0.439 OA 
HETATM   40  O   UNL     1     -11.351  10.898  66.601  1.00  0.00    -0.238 OA 
BRANCH  34  41
HETATM   41  N   UNL     1     -10.805  15.658  66.265  1.00  0.00    -0.297 NA 
HETATM   42  C   UNL     1     -11.152  16.033  64.997  1.00  0.00    -0.336 A  
HETATM   43  N   UNL     1     -10.985  17.326  64.805  1.00  0.00    -0.911 NA 
HETATM   44  C   UNL     1     -10.480  17.801  65.999  1.00  0.00    -0.286 A  
HETATM   45  C   UNL     1     -10.109  19.083  66.435  1.00  0.00    -0.415 A  
HETATM   46  N   UNL     1     -10.248  20.222  65.654  1.00  0.00    -0.477 NA 
HETATM   47  N   UNL     1      -9.587  19.217  67.677  1.00  0.00    -0.304 NA 
HETATM   48  H1  UNL     1      -9.978  21.153  65.971  1.00  0.00     0.000 HD 
HETATM   49  C   UNL     1      -9.492  18.117  68.456  1.00  0.00    -0.329 A  
HETATM   50  H2  UNL     1     -11.224  20.272  65.361  1.00  0.00     0.000 HD 
HETATM   51  N   UNL     1      -9.862  16.848  68.170  1.00  0.00    -0.255 NA 
HETATM   52  C   UNL     1     -10.334  16.770  66.912  1.00  0.00    -0.294 A  
ENDBRANCH  34  41
ENDBRANCH  31  32
ENDBRANCH  30  31
ENDBRANCH  27  30
ENDBRANCH  26  27
ENDBRANCH  23  26
ENDBRANCH  22  23
ENDBRANCH  21  22
ENDBRANCH  14  21
ENDBRANCH   8  12
ENDBRANCH   4   6
TORSDOF 11
ENDMDL
MODEL      208
REMARK 921   NORMALIZED FREE ENERGY PREDICTED BY IDOCK:   -4.66 KCAL/MOL
REMARK 922        TOTAL FREE ENERGY PREDICTED BY IDOCK:   -9.85 KCAL/MOL
REMARK 923 INTER-LIGAND FREE ENERGY PREDICTED BY IDOCK:   -6.37 KCAL/MOL
REMARK 924 INTRA-LIGAND FREE ENERGY PREDICTED BY IDOCK:   -3.48 KCAL/MOL
REMARK 927      BINDING AFFINITY PREDICTED BY RF-SCORE:    0.00 PKD
ROOT
HETATM    1  N   UNL     1     -12.196   7.187  72.305  1.00  0.00    -0.490 N  
HETATM    2  H1  UNL     1     -11.427   6.517  72.339  1.00  0.00     0.000 HD 
HETATM    3  H2  UNL     1     -13.125   6.904  72.619  1.00  0.00     0.000 HD 
HETATM    4  C   UNL     1     -11.998   8.444  71.850  1.00  0.00    -0.338 C  
HETATM    5  O   UNL     1     -12.926   9.251  71.809  1.00  0.00    -0.342 OA 
ENDROOT
BRANCH   4   6
HETATM    6  C   UNL     1     -10.629   8.780  71.398  1.00  0.00    -0.349 C  
HETATM    7  C   UNL     1     -10.534   9.608  70.341  1.00  0.00    -0.293 C  
HETATM    8  N   UNL     1      -9.324  10.072  69.831  1.00  0.00    -0.207 NA 
HETATM    9  C   UNL     1      -9.398   8.296  72.115  1.00  0.00    -0.303 C  
HETATM   10  C   UNL     1      -8.150   9.523  70.360  1.00  0.00    -0.183 C  
HETATM   11  C   UNL     1      -8.124   8.695  71.414  1.00  0.00    -0.192 C  
BRANCH   8  12
HETATM   12  C   UNL     1      -9.199  11.209  68.893  1.00  0.00    -0.096 C  
HETATM   13  O   UNL     1      -9.693  10.798  67.598  1.00  0.00    -0.163 OA 
HETATM   14  C   UNL     1      -8.580  10.246  66.859  1.00  0.00    -0.126 C  
HETATM   15  H   UNL     1      -6.997  13.449  67.871  1.00  0.00     0.000 HD 
HETATM   16  C   UNL     1      -7.305  10.841  67.451  1.00  0.00    -0.094 C  
HETATM   17  H   UNL     1      -5.789  11.945  66.824  1.00  0.00     0.000 HD 
HETATM   18  C   UNL     1      -7.798  11.753  68.571  1.00  0.00    -0.144 C  
HETATM   19  O   UNL     1      -6.582  11.575  66.455  1.00  0.00    -0.112 OA 
HETATM   20  O   UNL     1      -7.864  13.112  68.070  1.00  0.00    -0.122 OA 
BRANCH  14  21
HETATM   21  C   UNL     1      -8.595   8.712  66.937  1.00  0.00    -0.120 C  
BRANCH  21  22
HETATM   22  O   UNL     1      -7.779   8.138  65.923  1.00  0.00    -0.086 OA 
BRANCH  22  23
HETATM   23  P   UNL     1      -6.474   7.332  66.366  1.00  0.00    -0.050 P  
HETATM   24  O   UNL     1      -5.152   7.944  66.042  1.00  0.00    -0.024 OA 
HETATM   25  O   UNL     1      -6.646   7.291  67.964  1.00  0.00    -0.046 OA 
BRANCH  23  26
HETATM   26  O   UNL     1      -6.689   5.819  65.965  1.00  0.00    -0.053 OA 
BRANCH  26  27
HETATM   27  P   UNL     1      -7.337   5.322  64.610  1.00  0.00    -0.072 P  
HETATM   28  O   UNL     1      -6.715   3.850  64.439  1.00  0.00    -0.042 OA 
HETATM   29  O   UNL     1      -7.079   6.118  63.377  1.00  0.00    -0.047 OA 
BRANCH  27  30
HETATM   30  O   UNL     1      -8.886   5.024  64.903  1.00  0.00    -0.153 OA 
BRANCH  30  31
HETATM   31  C   UNL     1      -9.280   3.878  65.650  1.00  0.00    -0.152 C  
BRANCH  31  32
HETATM   32  C   UNL     1      -9.929   4.219  66.988  1.00  0.00    -0.123 C  
HETATM   33  O   UNL     1      -9.047   3.928  68.089  1.00  0.00    -0.119 OA 
HETATM   34  C   UNL     1      -9.631   4.640  69.197  1.00  0.00    -0.175 C  
HETATM   35  H   UNL     1     -11.770   6.914  66.715  1.00  0.00     0.000 HD 
HETATM   36  C   UNL     1     -10.096   5.984  68.613  1.00  0.00    -0.168 C  
HETATM   37  C   UNL     1     -10.257   5.702  67.117  1.00  0.00    -0.212 C  
HETATM   38  H   UNL     1     -11.609   7.292  68.815  1.00  0.00     0.000 HD 
HETATM   39  O   UNL     1     -11.321   6.462  69.176  1.00  0.00    -0.364 OA 
HETATM   40  O   UNL     1     -11.565   5.990  66.634  1.00  0.00     0.253 OA 
BRANCH  34  41
HETATM   41  N   UNL     1      -8.672   4.785  70.273  1.00  0.00    -0.092 NA 
HETATM   42  C   UNL     1      -7.314   4.904  70.182  1.00  0.00    -0.054 A  
HETATM   43  N   UNL     1      -6.754   5.064  71.365  1.00  0.00    -0.038 NA 
HETATM   44  C   UNL     1      -7.802   5.017  72.263  1.00  0.00    -0.100 A  
HETATM   45  C   UNL     1      -7.866   5.135  73.661  1.00  0.00    -0.103 A  
HETATM   46  N   UNL     1      -6.757   5.393  74.454  1.00  0.00    -0.075 NA 
HETATM   47  N   UNL     1      -9.068   4.989  74.267  1.00  0.00    -0.114 NA 
HETATM   48  H1  UNL     1      -6.804   5.480  75.470  1.00  0.00     0.000 HD 
HETATM   49  C   UNL     1     -10.156   4.783  73.494  1.00  0.00    -0.162 A  
HETATM   50  H2  UNL     1      -6.319   6.243  74.097  1.00  0.00     0.000 HD 
HETATM   51  N   UNL     1     -10.229   4.703  72.145  1.00  0.00    -0.192 NA 
HETATM   52  C   UNL     1      -9.003   4.815  71.603  1.00  0.00    -0.134 A  
ENDBRANCH  34  41
ENDBRANCH  31  32
ENDBRANCH  30  31
ENDBRANCH  27  30
ENDBRANCH  26  27
ENDBRANCH  23  26
ENDBRANCH  22  23
ENDBRANCH  21  22
ENDBRANCH  14  21
ENDBRANCH   8  12
ENDBRANCH   4   6
TORSDOF 11
ENDMDL
MODEL      209
REMARK 921   NORMALIZED FREE ENERGY PREDICTED BY IDOCK:   -4.64 KCAL/MOL
REMARK 922        TOTAL FREE ENERGY PREDICTED BY IDOCK:   -9.82 KCAL/MOL
REMARK 923 INTER-LIGAND FREE ENERGY PREDICTED BY IDOCK:   -8.80 KCAL/MOL
REMARK 924 INTRA-LIGAND FREE ENERGY PREDICTED BY IDOCK:   -1.02 KCAL/MOL
REMARK 927      BINDING AFFINITY PREDICTED BY RF-SCORE:    0.00 PKD
ROOT
HETATM    1  N   UNL     1      -8.635  18.062  68.474  1.00  0.00    -0.303 N  
HETATM    2  H1  UNL     1      -7.654  17.877  68.263  1.00  0.00     0.000 HD 
HETATM    3  H2  UNL     1      -8.954  19.024  68.586  1.00  0.00     0.000 HD 
HETATM    4  C   UNL     1      -9.516  17.046  68.605  1.00  0.00    -0.274 C  
HETATM    5  O   UNL     1     -10.700  17.268  68.860  1.00  0.00    -0.301 OA 
ENDROOT
BRANCH   4   6
HETATM    6  C   UNL     1      -8.980  15.675  68.443  1.00  0.00    -0.185 C  
HETATM    7  C   UNL     1      -9.777  14.791  67.814  1.00  0.00    -0.213 C  
HETATM    8  N   UNL     1      -9.401  13.482  67.525  1.00  0.00    -0.212 NA 
HETATM    9  C   UNL     1      -7.593  15.291  68.881  1.00  0.00    -0.152 C  
HETATM   10  C   UNL     1      -8.187  13.030  68.054  1.00  0.00    -0.161 C  
HETATM   11  C   UNL     1      -7.312  13.821  68.692  1.00  0.00    -0.117 C  
BRANCH   8  12
HETATM   12  C   UNL     1     -10.117  12.602  66.575  1.00  0.00    -0.248 C  
HETATM   13  O   UNL     1     -11.417  12.287  67.122  1.00  0.00    -0.311 OA 
HETATM   14  C   UNL     1     -11.279  11.086  67.914  1.00  0.00    -0.310 C  
HETATM   15  H   UNL     1      -9.666   9.848  64.808  1.00  0.00     0.000 HD 
HETATM   16  C   UNL     1     -10.056  10.338  67.393  1.00  0.00    -0.202 C  
HETATM   17  H   UNL     1      -9.664   8.571  66.593  1.00  0.00     0.000 HD 
HETATM   18  C   UNL     1      -9.528  11.217  66.262  1.00  0.00    -0.196 C  
HETATM   19  O   UNL     1     -10.426   9.037  66.918  1.00  0.00    -0.260 OA 
HETATM   20  O   UNL     1     -10.029  10.705  65.002  1.00  0.00    -0.261 OA 
BRANCH  14  21
HETATM   21  C   UNL     1     -11.151  11.441  69.404  1.00  0.00    -0.241 C  
BRANCH  21  22
HETATM   22  O   UNL     1     -10.524  10.390  70.130  1.00  0.00    -0.252 OA 
BRANCH  22  23
HETATM   23  P   UNL     1     -11.451   9.338  70.894  1.00  0.00    -0.338 P  
HETATM   24  O   UNL     1     -12.903   9.663  71.002  1.00  0.00    -0.317 OA 
HETATM   25  O   UNL     1     -11.282   8.030  69.973  1.00  0.00    -0.208 OA 
BRANCH  23  26
HETATM   26  O   UNL     1     -10.702   8.917  72.220  1.00  0.00    -0.320 OA 
BRANCH  26  27
HETATM   27  P   UNL     1      -9.255   8.284  72.283  1.00  0.00    -0.260 P  
HETATM   28  O   UNL     1      -9.023   8.085  73.861  1.00  0.00    -0.269 OA 
HETATM   29  O   UNL     1      -8.123   9.064  71.707  1.00  0.00    -0.348 OA 
BRANCH  27  30
HETATM   30  O   UNL     1      -9.370   6.776  71.747  1.00  0.00    -0.148 OA 
BRANCH  30  31
HETATM   31  C   UNL     1      -9.822   5.730  72.600  1.00  0.00    -0.164 C  
BRANCH  31  32
HETATM   32  C   UNL     1      -9.661   4.339  71.995  1.00  0.00    -0.164 C  
HETATM   33  O   UNL     1      -9.949   4.345  70.583  1.00  0.00    -0.212 OA 
HETATM   34  C   UNL     1      -9.394   3.102  70.112  1.00  0.00    -0.168 C  
HETATM   35  H   UNL     1      -7.157   2.761  73.396  1.00  0.00     0.000 HD 
HETATM   36  C   UNL     1      -8.062   2.944  70.863  1.00  0.00    -0.053 C  
HETATM   37  C   UNL     1      -8.235   3.812  72.111  1.00  0.00    -0.077 C  
HETATM   38  H   UNL     1      -6.938   1.494  71.686  1.00  0.00     0.000 HD 
HETATM   39  O   UNL     1      -7.761   1.592  71.221  1.00  0.00    -0.036 OA 
HETATM   40  O   UNL     1      -8.045   3.090  73.323  1.00  0.00    -0.069 OA 
BRANCH  34  41
HETATM   41  N   UNL     1      -9.241   3.123  68.672  1.00  0.00    -0.154 NA 
HETATM   42  C   UNL     1      -8.608   2.209  67.878  1.00  0.00    -0.083 A  
HETATM   43  N   UNL     1      -8.700   2.521  66.600  1.00  0.00    -0.117 NA 
HETATM   44  C   UNL     1      -9.401   3.709  66.574  1.00  0.00    -0.187 A  
HETATM   45  C   UNL     1      -9.832   4.540  65.526  1.00  0.00    -0.208 A  
HETATM   46  N   UNL     1      -9.633   4.240  64.187  1.00  0.00    -0.251 NA 
HETATM   47  N   UNL     1     -10.471   5.692  65.838  1.00  0.00     0.105 NA 
HETATM   48  H1  UNL     1      -9.946   4.843  63.426  1.00  0.00     0.000 HD 
HETATM   49  C   UNL     1     -10.706   5.966  67.139  1.00  0.00    -0.306 A  
HETATM   50  H2  UNL     1     -10.028   3.313  64.021  1.00  0.00     0.000 HD 
HETATM   51  N   UNL     1     -10.391   5.225  68.226  1.00  0.00    -0.145 NA 
HETATM   52  C   UNL     1      -9.723   4.115  67.859  1.00  0.00    -0.102 A  
ENDBRANCH  34  41
ENDBRANCH  31  32
ENDBRANCH  30  31
ENDBRANCH  27  30
ENDBRANCH  26  27
ENDBRANCH  23  26
ENDBRANCH  22  23
ENDBRANCH  21  22
ENDBRANCH  14  21
ENDBRANCH   8  12
ENDBRANCH   4   6
TORSDOF 11
ENDMDL
MODEL      210
REMARK 921   NORMALIZED FREE ENERGY PREDICTED BY IDOCK:   -4.62 KCAL/MOL
REMARK 922        TOTAL FREE ENERGY PREDICTED BY IDOCK:   -9.79 KCAL/MOL
REMARK 923 INTER-LIGAND FREE ENERGY PREDICTED BY IDOCK:   -7.92 KCAL/MOL
REMARK 924 INTRA-LIGAND FREE ENERGY PREDICTED BY IDOCK:   -1.87 KCAL/MOL
REMARK 927      BINDING AFFINITY PREDICTED BY RF-SCORE:    0.00 PKD
ROOT
HETATM    1  N   UNL     1      -7.988  18.571  68.149  1.00  0.00    -0.280 N  
HETATM    2  H1  UNL     1      -8.711  18.942  67.531  1.00  0.00     0.000 HD 
HETATM    3  H2  UNL     1      -7.352  19.212  68.623  1.00  0.00     0.000 HD 
HETATM    4  C   UNL     1      -7.864  17.240  68.346  1.00  0.00    -0.254 C  
HETATM    5  O   UNL     1      -6.992  16.793  69.091  1.00  0.00    -0.215 OA 
ENDROOT
BRANCH   4   6
HETATM    6  C   UNL     1      -8.812  16.368  67.616  1.00  0.00    -0.191 C  
HETATM    7  C   UNL     1      -9.030  15.149  68.142  1.00  0.00    -0.174 C  
HETATM    8  N   UNL     1      -9.937  14.232  67.615  1.00  0.00    -0.224 NA 
HETATM    9  C   UNL     1      -9.559  16.828  66.394  1.00  0.00    -0.303 C  
HETATM   10  C   UNL     1     -10.535  14.549  66.390  1.00  0.00    -0.295 C  
HETATM   11  C   UNL     1     -10.394  15.734  65.778  1.00  0.00    -0.390 C  
BRANCH   8  12
HETATM   12  C   UNL     1     -10.423  13.035  68.337  1.00  0.00    -0.252 C  
HETATM   13  O   UNL     1      -9.304  12.153  68.579  1.00  0.00    -0.183 OA 
HETATM   14  C   UNL     1      -9.200  11.258  67.449  1.00  0.00    -0.162 C  
HETATM   15  H   UNL     1     -12.803  10.751  68.184  1.00  0.00     0.000 HD 
HETATM   16  C   UNL     1     -10.578  11.191  66.796  1.00  0.00    -0.263 C  
HETATM   17  H   UNL     1     -11.935   9.806  66.404  1.00  0.00     0.000 HD 
HETATM   18  C   UNL     1     -11.444  12.117  67.645  1.00  0.00    -0.331 C  
HETATM   19  O   UNL     1     -11.077   9.847  66.810  1.00  0.00    -0.009 OA 
HETATM   20  O   UNL     1     -12.172  11.319  68.611  1.00  0.00    -0.562 OA 
BRANCH  14  21
HETATM   21  C   UNL     1      -8.120  11.751  66.473  1.00  0.00    -0.035 C  
BRANCH  21  22
HETATM   22  O   UNL     1      -8.010  10.888  65.348  1.00  0.00    -0.087 OA 
BRANCH  22  23
HETATM   23  P   UNL     1      -6.704   9.979  65.215  1.00  0.00    -0.123 P  
HETATM   24  O   UNL     1      -5.819  10.227  64.040  1.00  0.00    -0.131 OA 
HETATM   25  O   UNL     1      -5.903  10.366  66.555  1.00  0.00    -0.058 OA 
BRANCH  23  26
HETATM   26  O   UNL     1      -7.132   8.485  65.498  1.00  0.00    -0.079 OA 
BRANCH  26  27
HETATM   27  P   UNL     1      -7.246   7.350  64.402  1.00  0.00    -0.091 P  
HETATM   28  O   UNL     1      -5.732   6.827  64.274  1.00  0.00    -0.030 OA 
HETATM   29  O   UNL     1      -7.758   7.728  63.054  1.00  0.00    -0.118 OA 
BRANCH  27  30
HETATM   30  O   UNL     1      -7.998   6.106  65.079  1.00  0.00    -0.110 OA 
BRANCH  30  31
HETATM   31  C   UNL     1      -7.263   5.069  65.720  1.00  0.00    -0.072 C  
BRANCH  31  32
HETATM   32  C   UNL     1      -7.695   4.820  67.162  1.00  0.00    -0.091 C  
HETATM   33  O   UNL     1      -7.980   6.055  67.846  1.00  0.00    -0.104 OA 
HETATM   34  C   UNL     1      -8.717   5.642  69.013  1.00  0.00    -0.104 C  
HETATM   35  H   UNL     1      -9.510   2.101  67.360  1.00  0.00     0.000 HD 
HETATM   36  C   UNL     1      -9.656   4.528  68.524  1.00  0.00    -0.149 C  
HETATM   37  C   UNL     1      -8.981   4.005  67.254  1.00  0.00    -0.133 C  
HETATM   38  H   UNL     1     -10.421   2.785  69.171  1.00  0.00     0.000 HD 
HETATM   39  O   UNL     1      -9.841   3.474  69.473  1.00  0.00    -0.088 OA 
HETATM   40  O   UNL     1      -8.710   2.609  67.302  1.00  0.00    -0.099 OA 
BRANCH  34  41
HETATM   41  N   UNL     1      -9.418   6.767  69.599  1.00  0.00    -0.147 NA 
HETATM   42  C   UNL     1      -9.383   8.076  69.210  1.00  0.00    -0.151 A  
HETATM   43  N   UNL     1     -10.182   8.827  69.943  1.00  0.00    -0.194 NA 
HETATM   44  C   UNL     1     -10.736   7.962  70.865  1.00  0.00    -0.221 A  
HETATM   45  C   UNL     1     -11.665   8.142  71.903  1.00  0.00    -0.310 A  
HETATM   46  N   UNL     1     -12.280   9.356  72.172  1.00  0.00    -0.314 NA 
HETATM   47  N   UNL     1     -11.975   7.079  72.682  1.00  0.00    -0.050 NA 
HETATM   48  H1  UNL     1     -12.955   9.486  72.926  1.00  0.00     0.000 HD 
HETATM   49  C   UNL     1     -11.412   5.885  72.395  1.00  0.00    -0.306 A  
HETATM   50  H2  UNL     1     -12.726   9.668  71.308  1.00  0.00     0.000 HD 
HETATM   51  N   UNL     1     -10.552   5.577  71.397  1.00  0.00    -0.250 NA 
HETATM   52  C   UNL     1     -10.250   6.678  70.684  1.00  0.00    -0.189 A  
ENDBRANCH  34  41
ENDBRANCH  31  32
ENDBRANCH  30  31
ENDBRANCH  27  30
ENDBRANCH  26  27
ENDBRANCH  23  26
ENDBRANCH  22  23
ENDBRANCH  21  22
ENDBRANCH  14  21
ENDBRANCH   8  12
ENDBRANCH   4   6
TORSDOF 11
ENDMDL
MODEL      211
REMARK 921   NORMALIZED FREE ENERGY PREDICTED BY IDOCK:   -4.61 KCAL/MOL
REMARK 922        TOTAL FREE ENERGY PREDICTED BY IDOCK:   -9.77 KCAL/MOL
REMARK 923 INTER-LIGAND FREE ENERGY PREDICTED BY IDOCK:   -9.17 KCAL/MOL
REMARK 924 INTRA-LIGAND FREE ENERGY PREDICTED BY IDOCK:   -0.60 KCAL/MOL
REMARK 927      BINDING AFFINITY PREDICTED BY RF-SCORE:    0.00 PKD
ROOT
HETATM    1  N   UNL     1      -9.212  10.876  69.432  1.00  0.00    -0.406 N  
HETATM    2  H1  UNL     1      -9.235  11.182  70.405  1.00  0.00     0.000 HD 
HETATM    3  H2  UNL     1      -9.766  11.373  68.735  1.00  0.00     0.000 HD 
HETATM    4  C   UNL     1      -8.457   9.820  69.057  1.00  0.00    -0.137 C  
HETATM    5  O   UNL     1      -8.430   9.451  67.883  1.00  0.00    -0.116 OA 
ENDROOT
BRANCH   4   6
HETATM    6  C   UNL     1      -7.690   9.138  70.124  1.00  0.00    -0.105 C  
HETATM    7  C   UNL     1      -8.055   7.875  70.410  1.00  0.00    -0.114 C  
HETATM    8  N   UNL     1      -7.398   7.073  71.340  1.00  0.00    -0.079 NA 
HETATM    9  C   UNL     1      -6.514   9.778  70.811  1.00  0.00    -0.097 C  
HETATM   10  C   UNL     1      -6.403   7.674  72.119  1.00  0.00    -0.043 C  
HETATM   11  C   UNL     1      -5.955   8.923  71.921  1.00  0.00    -0.069 C  
BRANCH   8  12
HETATM   12  C   UNL     1      -7.572   5.607  71.444  1.00  0.00    -0.104 C  
HETATM   13  O   UNL     1      -8.983   5.313  71.547  1.00  0.00    -0.132 OA 
HETATM   14  C   UNL     1      -9.329   5.314  72.951  1.00  0.00    -0.137 C  
HETATM   15  H   UNL     1      -6.422   3.012  73.132  1.00  0.00     0.000 HD 
HETATM   16  C   UNL     1      -8.049   5.027  73.732  1.00  0.00    -0.106 C  
HETATM   17  H   UNL     1      -7.393   3.651  74.993  1.00  0.00     0.000 HD 
HETATM   18  C   UNL     1      -6.976   4.875  72.658  1.00  0.00    -0.076 C  
HETATM   19  O   UNL     1      -8.190   3.829  74.506  1.00  0.00    -0.084 OA 
HETATM   20  O   UNL     1      -6.790   3.465  72.381  1.00  0.00    -0.028 OA 
BRANCH  14  21
HETATM   21  C   UNL     1      -9.960   6.658  73.345  1.00  0.00    -0.210 C  
BRANCH  21  22
HETATM   22  O   UNL     1     -10.278   7.434  72.196  1.00  0.00    -0.186 OA 
BRANCH  22  23
HETATM   23  P   UNL     1     -11.806   7.529  71.745  1.00  0.00    -0.324 P  
HETATM   24  O   UNL     1     -12.528   6.245  71.505  1.00  0.00    -0.142 OA 
HETATM   25  O   UNL     1     -12.471   8.267  73.010  1.00  0.00    -0.172 OA 
BRANCH  23  26
HETATM   26  O   UNL     1     -11.903   8.635  70.620  1.00  0.00    -0.229 OA 
BRANCH  26  27
HETATM   27  P   UNL     1     -12.953   9.817  70.597  1.00  0.00     0.162 P  
HETATM   28  O   UNL     1     -14.278   9.127  71.190  1.00  0.00    -0.186 OA 
HETATM   29  O   UNL     1     -13.266  10.451  69.285  1.00  0.00     0.526 OA 
BRANCH  27  30
HETATM   30  O   UNL     1     -12.538  10.847  71.755  1.00  0.00    -0.353 OA 
BRANCH  30  31
HETATM   31  C   UNL     1     -13.078  12.164  71.789  1.00  0.00    -0.352 C  
BRANCH  31  32
HETATM   32  C   UNL     1     -12.126  13.225  71.247  1.00  0.00     0.173 C  
HETATM   33  O   UNL     1     -11.938  13.084  69.825  1.00  0.00    -0.316 OA 
HETATM   34  C   UNL     1     -11.355  14.340  69.428  1.00  0.00    -0.282 C  
HETATM   35  H   UNL     1     -12.568  16.069  72.810  1.00  0.00     0.000 HD 
HETATM   36  C   UNL     1     -12.107  15.409  70.238  1.00  0.00    -0.369 C  
HETATM   37  C   UNL     1     -12.656  14.641  71.442  1.00  0.00    -0.335 C  
HETATM   38  H   UNL     1     -11.743  17.157  71.162  1.00  0.00     0.000 HD 
HETATM   39  O   UNL     1     -11.279  16.496  70.661  1.00  0.00    -0.320 OA 
HETATM   40  O   UNL     1     -12.237  15.187  72.688  1.00  0.00    -0.349 OA 
BRANCH  34  41
HETATM   41  N   UNL     1     -11.466  14.524  67.995  1.00  0.00    -0.305 NA 
HETATM   42  C   UNL     1     -12.140  13.746  67.095  1.00  0.00    -0.378 A  
HETATM   43  N   UNL     1     -12.067  14.234  65.873  1.00  0.00    -0.409 NA 
HETATM   44  C   UNL     1     -11.285  15.365  65.988  1.00  0.00    -0.168 A  
HETATM   45  C   UNL     1     -10.851  16.324  65.057  1.00  0.00    -0.320 A  
HETATM   46  N   UNL     1     -11.221  16.308  63.720  1.00  0.00    -1.092 NA 
HETATM   47  N   UNL     1     -10.030  17.312  65.484  1.00  0.00    -0.540 NA 
HETATM   48  H1  UNL     1     -10.906  17.004  63.044  1.00  0.00     0.000 HD 
HETATM   49  C   UNL     1      -9.704  17.357  66.794  1.00  0.00    -0.290 A  
HETATM   50  H2  UNL     1     -12.241  16.292  63.687  1.00  0.00     0.000 HD 
HETATM   51  N   UNL     1     -10.098  16.529  67.789  1.00  0.00    -0.257 NA 
HETATM   52  C   UNL     1     -10.877  15.547  67.299  1.00  0.00    -0.313 A  
ENDBRANCH  34  41
ENDBRANCH  31  32
ENDBRANCH  30  31
ENDBRANCH  27  30
ENDBRANCH  26  27
ENDBRANCH  23  26
ENDBRANCH  22  23
ENDBRANCH  21  22
ENDBRANCH  14  21
ENDBRANCH   8  12
ENDBRANCH   4   6
TORSDOF 11
ENDMDL
MODEL      212
REMARK 921   NORMALIZED FREE ENERGY PREDICTED BY IDOCK:   -4.60 KCAL/MOL
REMARK 922        TOTAL FREE ENERGY PREDICTED BY IDOCK:   -9.76 KCAL/MOL
REMARK 923 INTER-LIGAND FREE ENERGY PREDICTED BY IDOCK:  -10.72 KCAL/MOL
REMARK 924 INTRA-LIGAND FREE ENERGY PREDICTED BY IDOCK:    0.95 KCAL/MOL
REMARK 927      BINDING AFFINITY PREDICTED BY RF-SCORE:    0.00 PKD
ROOT
HETATM    1  N   UNL     1      -6.542  17.822  69.084  1.00  0.00    -0.243 N  
HETATM    2  H1  UNL     1      -7.355  18.024  69.667  1.00  0.00     0.000 HD 
HETATM    3  H2  UNL     1      -5.701  17.432  69.509  1.00  0.00     0.000 HD 
HETATM    4  C   UNL     1      -6.568  18.063  67.754  1.00  0.00    -0.187 C  
HETATM    5  O   UNL     1      -5.588  17.819  67.051  1.00  0.00    -0.129 OA 
ENDROOT
BRANCH   4   6
HETATM    6  C   UNL     1      -7.817  18.641  67.208  1.00  0.00    -0.240 C  
HETATM    7  C   UNL     1      -8.688  17.773  66.660  1.00  0.00    -0.261 C  
HETATM    8  N   UNL     1      -9.934  18.143  66.158  1.00  0.00    -0.510 NA 
HETATM    9  C   UNL     1      -8.148  20.104  67.318  1.00  0.00    -0.369 C  
HETATM   10  C   UNL     1     -10.219  19.512  66.090  1.00  0.00    -0.496 C  
HETATM   11  C   UNL     1      -9.429  20.464  66.608  1.00  0.00    -0.442 C  
BRANCH   8  12
HETATM   12  C   UNL     1     -11.021  17.190  65.847  1.00  0.00     0.143 C  
HETATM   13  O   UNL     1     -11.126  16.237  66.928  1.00  0.00    -0.131 OA 
HETATM   14  C   UNL     1     -10.254  15.127  66.620  1.00  0.00    -0.266 C  
HETATM   15  H   UNL     1     -12.096  15.250  63.400  1.00  0.00     0.000 HD 
HETATM   16  C   UNL     1     -10.062  15.109  65.106  1.00  0.00    -0.296 C  
HETATM   17  H   UNL     1     -10.410  13.861  63.611  1.00  0.00     0.000 HD 
HETATM   18  C   UNL     1     -10.886  16.292  64.607  1.00  0.00    -0.100 C  
HETATM   19  O   UNL     1     -10.530  13.872  64.554  1.00  0.00    -0.431 OA 
HETATM   20  O   UNL     1     -12.179  15.805  64.166  1.00  0.00    -0.588 OA 
BRANCH  14  21
HETATM   21  C   UNL     1      -8.921  15.269  67.372  1.00  0.00    -0.183 C  
BRANCH  21  22
HETATM   22  O   UNL     1      -8.055  14.175  67.095  1.00  0.00    -0.182 OA 
BRANCH  22  23
HETATM   23  P   UNL     1      -8.372  12.767  67.778  1.00  0.00    -0.205 P  
HETATM   24  O   UNL     1      -7.347  12.217  68.713  1.00  0.00    -0.109 OA 
HETATM   25  O   UNL     1      -9.704  13.105  68.613  1.00  0.00    -0.171 OA 
BRANCH  23  26
HETATM   26  O   UNL     1      -8.915  11.802  66.651  1.00  0.00    -0.186 OA 
BRANCH  26  27
HETATM   27  P   UNL     1     -10.121  10.793  66.823  1.00  0.00    -0.238 P  
HETATM   28  O   UNL     1     -10.260  10.153  65.355  1.00  0.00    -0.298 OA 
HETATM   29  O   UNL     1     -11.438  11.342  67.255  1.00  0.00    -0.464 OA 
BRANCH  27  30
HETATM   30  O   UNL     1      -9.589   9.560  67.701  1.00  0.00    -0.133 OA 
BRANCH  30  31
HETATM   31  C   UNL     1      -9.506   9.656  69.119  1.00  0.00    -0.171 C  
BRANCH  31  32
HETATM   32  C   UNL     1     -10.677   8.997  69.841  1.00  0.00    -0.229 C  
HETATM   33  O   UNL     1     -10.350   7.657  70.259  1.00  0.00    -0.207 OA 
HETATM   34  C   UNL     1     -11.371   7.337  71.223  1.00  0.00    -0.264 C  
HETATM   35  H   UNL     1     -12.283  11.194  71.664  1.00  0.00     0.000 HD 
HETATM   36  C   UNL     1     -11.571   8.622  72.043  1.00  0.00    -0.370 C  
HETATM   37  C   UNL     1     -11.064   9.732  71.120  1.00  0.00    -0.344 C  
HETATM   38  H   UNL     1     -13.054   9.650  72.930  1.00  0.00     0.000 HD 
HETATM   39  O   UNL     1     -12.930   8.856  72.423  1.00  0.00    -0.405 OA 
HETATM   40  O   UNL     1     -12.042  10.736  70.868  1.00  0.00    -0.331 OA 
BRANCH  34  41
HETATM   41  N   UNL     1     -10.974   6.199  72.028  1.00  0.00    -0.246 NA 
HETATM   42  C   UNL     1     -11.007   6.077  73.388  1.00  0.00    -0.173 A  
HETATM   43  N   UNL     1     -10.614   4.882  73.784  1.00  0.00    -0.250 NA 
HETATM   44  C   UNL     1     -10.286   4.214  72.622  1.00  0.00    -0.169 A  
HETATM   45  C   UNL     1      -9.818   2.913  72.369  1.00  0.00    -0.158 A  
HETATM   46  N   UNL     1      -9.630   1.966  73.365  1.00  0.00    -0.072 NA 
HETATM   47  N   UNL     1      -9.536   2.566  71.092  1.00  0.00    -0.143 NA 
HETATM   48  H1  UNL     1      -9.291   1.022  73.181  1.00  0.00     0.000 HD 
HETATM   49  C   UNL     1      -9.760   3.471  70.114  1.00  0.00    -0.085 A  
HETATM   50  H2  UNL     1     -10.511   1.878  73.872  1.00  0.00     0.000 HD 
HETATM   51  N   UNL     1     -10.254   4.726  70.226  1.00  0.00    -0.232 NA 
HETATM   52  C   UNL     1     -10.478   5.028  71.518  1.00  0.00    -0.155 A  
ENDBRANCH  34  41
ENDBRANCH  31  32
ENDBRANCH  30  31
ENDBRANCH  27  30
ENDBRANCH  26  27
ENDBRANCH  23  26
ENDBRANCH  22  23
ENDBRANCH  21  22
ENDBRANCH  14  21
ENDBRANCH   8  12
ENDBRANCH   4   6
TORSDOF 11
ENDMDL
MODEL      213
REMARK 921   NORMALIZED FREE ENERGY PREDICTED BY IDOCK:   -4.59 KCAL/MOL
REMARK 922        TOTAL FREE ENERGY PREDICTED BY IDOCK:   -9.75 KCAL/MOL
REMARK 923 INTER-LIGAND FREE ENERGY PREDICTED BY IDOCK:   -8.46 KCAL/MOL
REMARK 924 INTRA-LIGAND FREE ENERGY PREDICTED BY IDOCK:   -1.29 KCAL/MOL
REMARK 927      BINDING AFFINITY PREDICTED BY RF-SCORE:    0.00 PKD
ROOT
HETATM    1  N   UNL     1      -6.621   3.714  69.797  1.00  0.00    -0.033 N  
HETATM    2  H1  UNL     1      -6.710   4.708  70.008  1.00  0.00     0.000 HD 
HETATM    3  H2  UNL     1      -5.874   3.171  70.232  1.00  0.00     0.000 HD 
HETATM    4  C   UNL     1      -7.480   3.107  68.949  1.00  0.00    -0.048 C  
HETATM    5  O   UNL     1      -7.372   1.907  68.695  1.00  0.00    -0.043 OA 
ENDROOT
BRANCH   4   6
HETATM    6  C   UNL     1      -8.530   3.958  68.345  1.00  0.00    -0.107 C  
HETATM    7  C   UNL     1      -9.445   4.470  69.189  1.00  0.00    -0.164 C  
HETATM    8  N   UNL     1     -10.459   5.339  68.793  1.00  0.00    -0.142 NA 
HETATM    9  C   UNL     1      -8.548   4.305  66.881  1.00  0.00    -0.108 C  
HETATM   10  C   UNL     1     -10.615   5.563  67.421  1.00  0.00    -0.199 C  
HETATM   11  C   UNL     1      -9.764   5.108  66.490  1.00  0.00    -0.184 C  
BRANCH   8  12
HETATM   12  C   UNL     1     -11.267   6.153  69.728  1.00  0.00    -0.423 C  
HETATM   13  O   UNL     1     -10.928   7.546  69.542  1.00  0.00    -0.209 OA 
HETATM   14  C   UNL     1      -9.837   7.854  70.438  1.00  0.00    -0.183 C  
HETATM   15  H   UNL     1     -12.119   6.294  72.915  1.00  0.00     0.000 HD 
HETATM   16  C   UNL     1      -9.887   6.840  71.578  1.00  0.00    -0.170 C  
HETATM   17  H   UNL     1     -10.098   6.873  73.544  1.00  0.00     0.000 HD 
HETATM   18  C   UNL     1     -11.080   5.950  71.240  1.00  0.00    -0.241 C  
HETATM   19  O   UNL     1     -10.066   7.504  72.834  1.00  0.00    -0.211 OA 
HETATM   20  O   UNL     1     -12.235   6.419  71.980  1.00  0.00    -0.341 OA 
BRANCH  14  21
HETATM   21  C   UNL     1      -8.498   7.813  69.684  1.00  0.00    -0.133 C  
BRANCH  21  22
HETATM   22  O   UNL     1      -8.584   8.509  68.446  1.00  0.00    -0.136 OA 
BRANCH  22  23
HETATM   23  P   UNL     1      -7.355   8.407  67.433  1.00  0.00    -0.090 P  
HETATM   24  O   UNL     1      -6.252   7.468  67.791  1.00  0.00    -0.045 OA 
HETATM   25  O   UNL     1      -8.078   7.870  66.100  1.00  0.00    -0.099 OA 
BRANCH  23  26
HETATM   26  O   UNL     1      -6.948   9.879  67.027  1.00  0.00    -0.086 OA 
BRANCH  26  27
HETATM   27  P   UNL     1      -7.485  11.194  67.723  1.00  0.00    -0.103 P  
HETATM   28  O   UNL     1      -6.805  12.360  66.851  1.00  0.00    -0.056 OA 
HETATM   29  O   UNL     1      -7.170  11.402  69.165  1.00  0.00    -0.114 OA 
BRANCH  27  30
HETATM   30  O   UNL     1      -9.040  11.330  67.351  1.00  0.00    -0.149 OA 
BRANCH  30  31
HETATM   31  C   UNL     1      -9.498  11.080  66.027  1.00  0.00    -0.207 C  
BRANCH  31  32
HETATM   32  C   UNL     1     -10.611  12.023  65.581  1.00  0.00    -0.265 C  
HETATM   33  O   UNL     1     -10.396  13.360  66.075  1.00  0.00    -0.285 OA 
HETATM   34  C   UNL     1     -11.280  14.170  65.276  1.00  0.00    -0.326 C  
HETATM   35  H   UNL     1     -11.599  11.278  62.549  1.00  0.00     0.000 HD 
HETATM   36  C   UNL     1     -11.174  13.599  63.852  1.00  0.00    -0.039 C  
HETATM   37  C   UNL     1     -10.686  12.164  64.064  1.00  0.00    -0.384 C  
HETATM   38  H   UNL     1     -12.347  13.261  62.254  1.00  0.00     0.000 HD 
HETATM   39  O   UNL     1     -12.412  13.614  63.134  1.00  0.00    -0.786 OA 
HETATM   40  O   UNL     1     -11.553  11.190  63.493  1.00  0.00    -0.051 OA 
BRANCH  34  41
HETATM   41  N   UNL     1     -10.908  15.567  65.361  1.00  0.00    -0.374 NA 
HETATM   42  C   UNL     1     -11.599  16.653  64.900  1.00  0.00     0.431 A  
HETATM   43  N   UNL     1     -10.986  17.784  65.190  1.00  0.00    -0.609 NA 
HETATM   44  C   UNL     1      -9.832  17.405  65.845  1.00  0.00    -0.103 A  
HETATM   45  C   UNL     1      -8.775  18.135  66.413  1.00  0.00    -0.231 A  
HETATM   46  N   UNL     1      -8.740  19.521  66.449  1.00  0.00    -0.350 NA 
HETATM   47  N   UNL     1      -7.737  17.453  66.953  1.00  0.00    -0.201 NA 
HETATM   48  H1  UNL     1      -7.972  20.051  66.861  1.00  0.00     0.000 HD 
HETATM   49  C   UNL     1      -7.788  16.103  66.960  1.00  0.00    -0.223 A  
HETATM   50  H2  UNL     1      -9.601  19.836  66.897  1.00  0.00     0.000 HD 
HETATM   51  N   UNL     1      -8.769  15.295  66.495  1.00  0.00    -0.295 NA 
HETATM   52  C   UNL     1      -9.752  16.025  65.937  1.00  0.00    -0.343 A  
ENDBRANCH  34  41
ENDBRANCH  31  32
ENDBRANCH  30  31
ENDBRANCH  27  30
ENDBRANCH  26  27
ENDBRANCH  23  26
ENDBRANCH  22  23
ENDBRANCH  21  22
ENDBRANCH  14  21
ENDBRANCH   8  12
ENDBRANCH   4   6
TORSDOF 11
ENDMDL
MODEL      214
REMARK 921   NORMALIZED FREE ENERGY PREDICTED BY IDOCK:   -4.58 KCAL/MOL
REMARK 922        TOTAL FREE ENERGY PREDICTED BY IDOCK:   -9.72 KCAL/MOL
REMARK 923 INTER-LIGAND FREE ENERGY PREDICTED BY IDOCK:   -7.88 KCAL/MOL
REMARK 924 INTRA-LIGAND FREE ENERGY PREDICTED BY IDOCK:   -1.84 KCAL/MOL
REMARK 927      BINDING AFFINITY PREDICTED BY RF-SCORE:    0.00 PKD
ROOT
HETATM    1  N   UNL     1     -12.728   7.117  70.782  1.00  0.00    -0.602 N  
HETATM    2  H1  UNL     1     -12.339   6.184  70.644  1.00  0.00     0.000 HD 
HETATM    3  H2  UNL     1     -13.464   7.454  70.161  1.00  0.00     0.000 HD 
HETATM    4  C   UNL     1     -12.280   7.912  71.779  1.00  0.00    -0.310 C  
HETATM    5  O   UNL     1     -12.750   9.038  71.945  1.00  0.00    -0.331 OA 
ENDROOT
BRANCH   4   6
HETATM    6  C   UNL     1     -11.202   7.365  72.633  1.00  0.00    -0.379 C  
HETATM    7  C   UNL     1     -11.193   6.030  72.803  1.00  0.00    -0.261 C  
HETATM    8  N   UNL     1     -10.214   5.350  73.523  1.00  0.00    -0.189 NA 
HETATM    9  C   UNL     1     -10.121   8.227  73.224  1.00  0.00     0.079 C  
HETATM   10  C   UNL     1      -9.281   6.121  74.226  1.00  0.00    -0.150 C  
HETATM   11  C   UNL     1      -9.192   7.455  74.128  1.00  0.00    -0.250 C  
BRANCH   8  12
HETATM   12  C   UNL     1     -10.004   3.887  73.464  1.00  0.00    -0.123 C  
HETATM   13  O   UNL     1      -8.584   3.620  73.517  1.00  0.00    -0.083 OA 
HETATM   14  C   UNL     1      -8.090   3.606  72.159  1.00  0.00    -0.072 C  
HETATM   15  H   UNL     1     -10.918   1.244  71.707  1.00  0.00     0.000 HD 
HETATM   16  C   UNL     1      -9.273   3.282  71.250  1.00  0.00    -0.122 C  
HETATM   17  H   UNL     1      -9.764   1.874  69.950  1.00  0.00     0.000 HD 
HETATM   18  C   UNL     1     -10.452   3.125  72.206  1.00  0.00     0.043 C  
HETATM   19  O   UNL     1      -9.028   2.076  70.516  1.00  0.00    -0.064 OA 
HETATM   20  O   UNL     1     -10.641   1.715  72.485  1.00  0.00    -0.155 OA 
BRANCH  14  21
HETATM   21  C   UNL     1      -7.445   4.957  71.811  1.00  0.00    -0.087 C  
BRANCH  21  22
HETATM   22  O   UNL     1      -7.829   5.391  70.512  1.00  0.00    -0.088 OA 
BRANCH  22  23
HETATM   23  P   UNL     1      -6.742   5.339  69.344  1.00  0.00    -0.055 P  
HETATM   24  O   UNL     1      -5.951   4.081  69.204  1.00  0.00    -0.021 OA 
HETATM   25  O   UNL     1      -7.663   5.518  68.037  1.00  0.00    -0.090 OA 
BRANCH  23  26
HETATM   26  O   UNL     1      -5.938   6.699  69.379  1.00  0.00    -0.020 OA 
BRANCH  26  27
HETATM   27  P   UNL     1      -6.547   8.103  69.777  1.00  0.00    -0.037 P  
HETATM   28  O   UNL     1      -5.495   9.139  69.142  1.00  0.00    -0.036 OA 
HETATM   29  O   UNL     1      -6.730   8.403  71.226  1.00  0.00    -0.048 OA 
BRANCH  27  30
HETATM   30  O   UNL     1      -7.857   8.327  68.877  1.00  0.00    -0.107 OA 
BRANCH  30  31
HETATM   31  C   UNL     1      -7.942   9.424  67.974  1.00  0.00    -0.092 C  
BRANCH  31  32
HETATM   32  C   UNL     1      -8.604  10.659  68.578  1.00  0.00    -0.137 C  
HETATM   33  O   UNL     1      -8.471  11.802  67.711  1.00  0.00    -0.134 OA 
HETATM   34  C   UNL     1      -9.442  12.736  68.221  1.00  0.00    -0.203 C  
HETATM   35  H   UNL     1     -11.332   9.827  70.187  1.00  0.00     0.000 HD 
HETATM   36  C   UNL     1     -10.673  11.886  68.578  1.00  0.00    -0.224 C  
HETATM   37  C   UNL     1     -10.104  10.479  68.778  1.00  0.00    -0.191 C  
HETATM   38  H   UNL     1     -12.117  11.806  69.973  1.00  0.00     0.000 HD 
HETATM   39  O   UNL     1     -11.357  12.331  69.752  1.00  0.00    -0.194 OA 
HETATM   40  O   UNL     1     -10.397   9.939  70.062  1.00  0.00    -0.240 OA 
BRANCH  34  41
HETATM   41  N   UNL     1      -9.722  13.767  67.242  1.00  0.00    -0.236 NA 
HETATM   42  C   UNL     1     -10.091  13.610  65.935  1.00  0.00    -0.310 A  
HETATM   43  N   UNL     1     -10.310  14.769  65.344  1.00  0.00    -0.357 NA 
HETATM   44  C   UNL     1     -10.041  15.717  66.311  1.00  0.00    -0.299 A  
HETATM   45  C   UNL     1     -10.099  17.120  66.312  1.00  0.00    -0.320 A  
HETATM   46  N   UNL     1     -10.528  17.865  65.223  1.00  0.00    -0.440 NA 
HETATM   47  N   UNL     1      -9.715  17.780  67.430  1.00  0.00    -0.277 NA 
HETATM   48  H1  UNL     1     -10.569  18.884  65.225  1.00  0.00     0.000 HD 
HETATM   49  C   UNL     1      -9.340  17.058  68.508  1.00  0.00    -0.265 A  
HETATM   50  H2  UNL     1     -11.455  17.524  64.968  1.00  0.00     0.000 HD 
HETATM   51  N   UNL     1      -9.294  15.712  68.645  1.00  0.00    -0.192 NA 
HETATM   52  C   UNL     1      -9.646  15.112  67.493  1.00  0.00    -0.207 A  
ENDBRANCH  34  41
ENDBRANCH  31  32
ENDBRANCH  30  31
ENDBRANCH  27  30
ENDBRANCH  26  27
ENDBRANCH  23  26
ENDBRANCH  22  23
ENDBRANCH  21  22
ENDBRANCH  14  21
ENDBRANCH   8  12
ENDBRANCH   4   6
TORSDOF 11
ENDMDL
MODEL      215
REMARK 921   NORMALIZED FREE ENERGY PREDICTED BY IDOCK:   -4.57 KCAL/MOL
REMARK 922        TOTAL FREE ENERGY PREDICTED BY IDOCK:   -9.71 KCAL/MOL
REMARK 923 INTER-LIGAND FREE ENERGY PREDICTED BY IDOCK:   -9.16 KCAL/MOL
REMARK 924 INTRA-LIGAND FREE ENERGY PREDICTED BY IDOCK:   -0.55 KCAL/MOL
REMARK 927      BINDING AFFINITY PREDICTED BY RF-SCORE:    0.00 PKD
ROOT
HETATM    1  N   UNL     1      -6.490  14.321  70.631  1.00  0.00    -0.397 N  
HETATM    2  H1  UNL     1      -5.865  15.046  70.984  1.00  0.00     0.000 HD 
HETATM    3  H2  UNL     1      -6.730  13.528  71.226  1.00  0.00     0.000 HD 
HETATM    4  C   UNL     1      -7.003  14.398  69.383  1.00  0.00    -0.129 C  
HETATM    5  O   UNL     1      -7.757  13.524  68.957  1.00  0.00    -0.027 OA 
ENDROOT
BRANCH   4   6
HETATM    6  C   UNL     1      -6.601  15.569  68.570  1.00  0.00    -0.109 C  
HETATM    7  C   UNL     1      -7.456  16.608  68.552  1.00  0.00    -0.205 C  
HETATM    8  N   UNL     1      -7.201  17.806  67.890  1.00  0.00    -0.205 NA 
HETATM    9  C   UNL     1      -5.278  15.643  67.858  1.00  0.00    -0.139 C  
HETATM   10  C   UNL     1      -6.060  17.864  67.081  1.00  0.00    -0.145 C  
HETATM   11  C   UNL     1      -5.137  16.893  67.024  1.00  0.00    -0.172 C  
BRANCH   8  12
HETATM   12  C   UNL     1      -7.962  19.056  68.110  1.00  0.00    -0.300 C  
HETATM   13  O   UNL     1      -9.101  18.764  68.950  1.00  0.00    -0.301 OA 
HETATM   14  C   UNL     1     -10.203  18.410  68.083  1.00  0.00    -0.384 C  
HETATM   15  H   UNL     1      -9.245  21.595  66.434  1.00  0.00     0.000 HD 
HETATM   16  C   UNL     1      -9.929  19.042  66.721  1.00  0.00    -0.360 C  
HETATM   17  H   UNL     1     -10.804  20.348  65.522  1.00  0.00     0.000 HD 
HETATM   18  C   UNL     1      -8.595  19.761  66.900  1.00  0.00    -0.329 C  
HETATM   19  O   UNL     1     -10.975  19.955  66.370  1.00  0.00    -0.345 OA 
HETATM   20  O   UNL     1      -8.853  21.159  67.182  1.00  0.00    -0.060 OA 
BRANCH  14  21
HETATM   21  C   UNL     1     -10.347  16.883  67.996  1.00  0.00    -0.334 C  
BRANCH  21  22
HETATM   22  O   UNL     1     -10.678  16.472  66.675  1.00  0.00    -0.265 OA 
BRANCH  22  23
HETATM   23  P   UNL     1     -10.478  14.936  66.287  1.00  0.00    -0.330 P  
HETATM   24  O   UNL     1      -9.077  14.452  66.122  1.00  0.00    -0.171 OA 
HETATM   25  O   UNL     1     -11.135  14.194  67.554  1.00  0.00    -0.277 OA 
BRANCH  23  26
HETATM   26  O   UNL     1     -11.502  14.600  65.131  1.00  0.00    -0.349 OA 
BRANCH  26  27
HETATM   27  P   UNL     1     -11.796  13.150  64.572  1.00  0.00    -0.433 P  
HETATM   28  O   UNL     1     -11.811  13.379  62.982  1.00  0.00    -0.210 OA 
HETATM   29  O   UNL     1     -13.060  12.481  64.991  1.00  0.00    -0.765 OA 
BRANCH  27  30
HETATM   30  O   UNL     1     -10.470  12.275  64.794  1.00  0.00    -0.276 OA 
BRANCH  30  31
HETATM   31  C   UNL     1     -10.499  10.858  64.657  1.00  0.00    -0.314 C  
BRANCH  31  32
HETATM   32  C   UNL     1     -10.031  10.117  65.904  1.00  0.00    -0.267 C  
HETATM   33  O   UNL     1     -10.252   8.698  65.786  1.00  0.00     0.167 OA 
HETATM   34  C   UNL     1      -9.434   8.132  66.828  1.00  0.00    -0.198 C  
HETATM   35  H   UNL     1      -7.318  11.501  67.111  1.00  0.00     0.000 HD 
HETATM   36  C   UNL     1      -8.132   8.948  66.808  1.00  0.00    -0.111 C  
HETATM   37  C   UNL     1      -8.533  10.270  66.148  1.00  0.00    -0.141 C  
HETATM   38  H   UNL     1      -6.771   9.681  68.094  1.00  0.00     0.000 HD 
HETATM   39  O   UNL     1      -7.576   9.176  68.106  1.00  0.00    -0.083 OA 
HETATM   40  O   UNL     1      -8.251  11.405  66.959  1.00  0.00    -0.146 OA 
BRANCH  34  41
HETATM   41  N   UNL     1      -9.227   6.716  66.603  1.00  0.00    -0.153 NA 
HETATM   42  C   UNL     1      -9.882   5.666  67.183  1.00  0.00    -0.149 A  
HETATM   43  N   UNL     1      -9.467   4.507  66.709  1.00  0.00    -0.160 NA 
HETATM   44  C   UNL     1      -8.478   4.828  65.802  1.00  0.00    -0.119 A  
HETATM   45  C   UNL     1      -7.664   4.048  64.963  1.00  0.00    -0.082 A  
HETATM   46  N   UNL     1      -7.768   2.668  64.871  1.00  0.00    -0.076 NA 
HETATM   47  N   UNL     1      -6.731   4.674  64.207  1.00  0.00    -0.043 NA 
HETATM   48  H1  UNL     1      -7.177   2.102  64.261  1.00  0.00     0.000 HD 
HETATM   49  C   UNL     1      -6.657   6.021  64.261  1.00  0.00    -0.034 A  
HETATM   50  H2  UNL     1      -8.738   2.451  64.640  1.00  0.00     0.000 HD 
HETATM   51  N   UNL     1      -7.414   6.878  64.983  1.00  0.00    -0.089 NA 
HETATM   52  C   UNL     1      -8.294   6.200  65.743  1.00  0.00    -0.143 A  
ENDBRANCH  34  41
ENDBRANCH  31  32
ENDBRANCH  30  31
ENDBRANCH  27  30
ENDBRANCH  26  27
ENDBRANCH  23  26
ENDBRANCH  22  23
ENDBRANCH  21  22
ENDBRANCH  14  21
ENDBRANCH   8  12
ENDBRANCH   4   6
TORSDOF 11
ENDMDL
MODEL      216
REMARK 921   NORMALIZED FREE ENERGY PREDICTED BY IDOCK:   -4.50 KCAL/MOL
REMARK 922        TOTAL FREE ENERGY PREDICTED BY IDOCK:   -9.59 KCAL/MOL
REMARK 923 INTER-LIGAND FREE ENERGY PREDICTED BY IDOCK:   -8.52 KCAL/MOL
REMARK 924 INTRA-LIGAND FREE ENERGY PREDICTED BY IDOCK:   -1.07 KCAL/MOL
REMARK 927      BINDING AFFINITY PREDICTED BY RF-SCORE:    0.00 PKD
ROOT
HETATM    1  N   UNL     1      -8.998  18.468  67.588  1.00  0.00    -0.269 N  
HETATM    2  H1  UNL     1      -9.371  18.534  68.536  1.00  0.00     0.000 HD 
HETATM    3  H2  UNL     1      -8.563  19.286  67.160  1.00  0.00     0.000 HD 
HETATM    4  C   UNL     1      -9.074  17.311  66.894  1.00  0.00    -0.236 C  
HETATM    5  O   UNL     1      -8.625  17.233  65.751  1.00  0.00    -0.532 OA 
ENDROOT
BRANCH   4   6
HETATM    6  C   UNL     1      -9.731  16.171  67.573  1.00  0.00    -0.233 C  
HETATM    7  C   UNL     1     -10.776  15.615  66.932  1.00  0.00    -0.307 C  
HETATM    8  N   UNL     1     -11.463  14.498  67.401  1.00  0.00    -0.352 NA 
HETATM    9  C   UNL     1      -9.226  15.600  68.869  1.00  0.00    -0.226 C  
HETATM   10  C   UNL     1     -11.136  14.031  68.679  1.00  0.00    -0.264 C  
HETATM   11  C   UNL     1     -10.113  14.504  69.406  1.00  0.00    -0.011 C  
BRANCH   8  12
HETATM   12  C   UNL     1     -12.391  13.688  66.581  1.00  0.00    -0.331 C  
HETATM   13  O   UNL     1     -12.046  12.293  66.732  1.00  0.00    -0.593 OA 
HETATM   14  C   UNL     1     -11.079  11.968  65.707  1.00  0.00    -0.324 C  
HETATM   15  H   UNL     1     -13.639  13.541  63.527  1.00  0.00     0.000 HD 
HETATM   16  C   UNL     1     -11.262  12.977  64.577  1.00  0.00    -0.339 C  
HETATM   17  H   UNL     1     -11.719  12.937  62.653  1.00  0.00     0.000 HD 
HETATM   18  C   UNL     1     -12.394  13.881  65.057  1.00  0.00    -0.430 C  
HETATM   19  O   UNL     1     -11.605  12.309  63.356  1.00  0.00    -0.450 OA 
HETATM   20  O   UNL     1     -13.637  13.422  64.470  1.00  0.00     0.471 OA 
BRANCH  14  21
HETATM   21  C   UNL     1      -9.656  11.998  66.287  1.00  0.00    -0.231 C  
BRANCH  21  22
HETATM   22  O   UNL     1      -8.736  11.338  65.425  1.00  0.00    -0.120 OA 
BRANCH  22  23
HETATM   23  P   UNL     1      -9.041   9.828  65.005  1.00  0.00    -0.255 P  
HETATM   24  O   UNL     1      -9.958   9.048  65.887  1.00  0.00    -0.276 OA 
HETATM   25  O   UNL     1      -9.747  10.027  63.574  1.00  0.00    -0.210 OA 
BRANCH  23  26
HETATM   26  O   UNL     1      -7.666   9.155  64.614  1.00  0.00    -0.106 OA 
BRANCH  26  27
HETATM   27  P   UNL     1      -6.593   8.617  65.643  1.00  0.00    -0.060 P  
HETATM   28  O   UNL     1      -7.250   8.980  67.063  1.00  0.00    -0.084 OA 
HETATM   29  O   UNL     1      -5.214   9.178  65.574  1.00  0.00    -0.036 OA 
BRANCH  27  30
HETATM   30  O   UNL     1      -6.667   7.015  65.615  1.00  0.00    -0.050 OA 
BRANCH  30  31
HETATM   31  C   UNL     1      -7.921   6.342  65.579  1.00  0.00    -0.116 C  
BRANCH  31  32
HETATM   32  C   UNL     1      -8.048   5.238  66.624  1.00  0.00    -0.105 C  
HETATM   33  O   UNL     1      -8.248   5.784  67.943  1.00  0.00    -0.101 OA 
HETATM   34  C   UNL     1      -8.721   4.662  68.712  1.00  0.00    -0.093 C  
HETATM   35  H   UNL     1      -9.662   2.670  65.388  1.00  0.00     0.000 HD 
HETATM   36  C   UNL     1      -9.687   3.911  67.781  1.00  0.00    -0.086 C  
HETATM   37  C   UNL     1      -9.251   4.335  66.377  1.00  0.00    -0.147 C  
HETATM   38  H   UNL     1     -10.228   2.023  67.348  1.00  0.00     0.000 HD 
HETATM   39  O   UNL     1      -9.632   2.488  67.923  1.00  0.00    -0.186 OA 
HETATM   40  O   UNL     1      -8.912   3.233  65.542  1.00  0.00    -0.131 OA 
BRANCH  34  41
HETATM   41  N   UNL     1      -9.344   5.112  69.941  1.00  0.00    -0.135 NA 
HETATM   42  C   UNL     1     -10.144   6.203  70.130  1.00  0.00    -0.184 A  
HETATM   43  N   UNL     1     -10.575   6.287  71.373  1.00  0.00    -0.229 NA 
HETATM   44  C   UNL     1     -10.001   5.212  72.021  1.00  0.00    -0.187 A  
HETATM   45  C   UNL     1     -10.078   4.744  73.343  1.00  0.00    -0.161 A  
HETATM   46  N   UNL     1     -10.873   5.334  74.315  1.00  0.00    -0.417 NA 
HETATM   47  N   UNL     1      -9.338   3.664  73.689  1.00  0.00    -0.100 NA 
HETATM   48  H1  UNL     1     -10.929   4.994  75.275  1.00  0.00     0.000 HD 
HETATM   49  C   UNL     1      -8.597   3.059  72.735  1.00  0.00    -0.079 A  
HETATM   50  H2  UNL     1     -11.825   5.367  73.949  1.00  0.00     0.000 HD 
HETATM   51  N   UNL     1      -8.483   3.382  71.426  1.00  0.00    -0.067 NA 
HETATM   52  C   UNL     1      -9.207   4.483  71.151  1.00  0.00    -0.140 A  
ENDBRANCH  34  41
ENDBRANCH  31  32
ENDBRANCH  30  31
ENDBRANCH  27  30
ENDBRANCH  26  27
ENDBRANCH  23  26
ENDBRANCH  22  23
ENDBRANCH  21  22
ENDBRANCH  14  21
ENDBRANCH   8  12
ENDBRANCH   4   6
TORSDOF 11
ENDMDL
MODEL      217
REMARK 921   NORMALIZED FREE ENERGY PREDICTED BY IDOCK:   -4.48 KCAL/MOL
REMARK 922        TOTAL FREE ENERGY PREDICTED BY IDOCK:   -9.56 KCAL/MOL
REMARK 923 INTER-LIGAND FREE ENERGY PREDICTED BY IDOCK:   -8.28 KCAL/MOL
REMARK 924 INTRA-LIGAND FREE ENERGY PREDICTED BY IDOCK:   -1.27 KCAL/MOL
REMARK 927      BINDING AFFINITY PREDICTED BY RF-SCORE:    0.00 PKD
ROOT
HETATM    1  N   UNL     1      -8.057  14.726  70.195  1.00  0.00    -0.119 N  
HETATM    2  H1  UNL     1      -9.021  14.406  70.096  1.00  0.00     0.000 HD 
HETATM    3  H2  UNL     1      -7.557  14.556  71.068  1.00  0.00     0.000 HD 
HETATM    4  C   UNL     1      -7.436  15.371  69.183  1.00  0.00    -0.189 C  
HETATM    5  O   UNL     1      -6.273  15.757  69.303  1.00  0.00    -0.123 OA 
ENDROOT
BRANCH   4   6
HETATM    6  C   UNL     1      -8.227  15.595  67.952  1.00  0.00    -0.155 C  
HETATM    7  C   UNL     1      -9.364  14.885  67.834  1.00  0.00    -0.191 C  
HETATM    8  N   UNL     1     -10.253  15.022  66.771  1.00  0.00    -0.256 NA 
HETATM    9  C   UNL     1      -7.838  16.611  66.913  1.00  0.00    -0.261 C  
HETATM   10  C   UNL     1      -9.857  15.835  65.702  1.00  0.00    -0.322 C  
HETATM   11  C   UNL     1      -8.749  16.590  65.711  1.00  0.00     0.087 C  
BRANCH   8  12
HETATM   12  C   UNL     1     -11.637  14.501  66.771  1.00  0.00    -0.376 C  
HETATM   13  O   UNL     1     -11.642  13.198  67.397  1.00  0.00    -0.314 OA 
HETATM   14  C   UNL     1     -11.420  12.214  66.362  1.00  0.00    -0.370 C  
HETATM   15  H   UNL     1     -14.203  14.059  64.738  1.00  0.00     0.000 HD 
HETATM   16  C   UNL     1     -11.859  12.841  65.041  1.00  0.00    -0.382 C  
HETATM   17  H   UNL     1     -13.187  12.464  63.624  1.00  0.00     0.000 HD 
HETATM   18  C   UNL     1     -12.331  14.240  65.425  1.00  0.00    -0.415 C  
HETATM   19  O   UNL     1     -12.914  12.074  64.446  1.00  0.00    -0.600 OA 
HETATM   20  O   UNL     1     -13.773  14.221  65.571  1.00  0.00    -0.342 OA 
BRANCH  14  21
HETATM   21  C   UNL     1      -9.944  11.786  66.339  1.00  0.00    -0.211 C  
BRANCH  21  22
HETATM   22  O   UNL     1      -9.407  11.723  67.654  1.00  0.00    -0.173 OA 
BRANCH  22  23
HETATM   23  P   UNL     1      -9.038  10.290  68.254  1.00  0.00    -0.148 P  
HETATM   24  O   UNL     1     -10.172   9.414  68.672  1.00  0.00    -0.187 OA 
HETATM   25  O   UNL     1      -8.286   9.602  67.010  1.00  0.00    -0.116 OA 
BRANCH  23  26
HETATM   26  O   UNL     1      -7.862  10.495  69.289  1.00  0.00    -0.126 OA 
BRANCH  26  27
HETATM   27  P   UNL     1      -6.540  11.317  69.010  1.00  0.00    -0.098 P  
HETATM   28  O   UNL     1      -6.298  12.084  70.401  1.00  0.00    -0.169 OA 
HETATM   29  O   UNL     1      -6.551  12.303  67.892  1.00  0.00    -0.069 OA 
BRANCH  27  30
HETATM   30  O   UNL     1      -5.327  10.268  68.965  1.00  0.00    -0.039 OA 
BRANCH  30  31
HETATM   31  C   UNL     1      -5.380   9.057  69.713  1.00  0.00    -0.029 C  
BRANCH  31  32
HETATM   32  C   UNL     1      -6.299   9.134  70.928  1.00  0.00    -0.070 C  
HETATM   33  O   UNL     1      -7.197   8.008  70.979  1.00  0.00    -0.051 OA 
HETATM   34  C   UNL     1      -7.700   8.027  72.328  1.00  0.00    -0.112 C  
HETATM   35  H   UNL     1      -4.698  10.378  73.500  1.00  0.00     0.000 HD 
HETATM   36  C   UNL     1      -6.488   8.383  73.205  1.00  0.00    -0.106 C  
HETATM   37  C   UNL     1      -5.532   9.094  72.245  1.00  0.00    -0.076 C  
HETATM   38  H   UNL     1      -6.062   9.444  74.859  1.00  0.00     0.000 HD 
HETATM   39  O   UNL     1      -6.811   9.224  74.317  1.00  0.00    -0.358 OA 
HETATM   40  O   UNL     1      -5.176  10.402  72.680  1.00  0.00    -0.308 OA 
BRANCH  34  41
HETATM   41  N   UNL     1      -8.299   6.753  72.669  1.00  0.00    -0.111 NA 
HETATM   42  C   UNL     1      -7.688   5.648  73.192  1.00  0.00    -0.100 A  
HETATM   43  N   UNL     1      -8.548   4.674  73.421  1.00  0.00    -0.102 NA 
HETATM   44  C   UNL     1      -9.765   5.168  72.998  1.00  0.00    -0.146 A  
HETATM   45  C   UNL     1     -11.061   4.628  72.986  1.00  0.00    -0.245 A  
HETATM   46  N   UNL     1     -11.369   3.377  73.501  1.00  0.00    -0.196 NA 
HETATM   47  N   UNL     1     -12.062   5.363  72.445  1.00  0.00     0.059 NA 
HETATM   48  H1  UNL     1     -12.311   2.985  73.492  1.00  0.00     0.000 HD 
HETATM   49  C   UNL     1     -11.775   6.600  71.984  1.00  0.00    -0.313 A  
HETATM   50  H2  UNL     1     -11.040   3.356  74.467  1.00  0.00     0.000 HD 
HETATM   51  N   UNL     1     -10.586   7.245  71.988  1.00  0.00    -0.205 NA 
HETATM   52  C   UNL     1      -9.625   6.453  72.499  1.00  0.00    -0.152 A  
ENDBRANCH  34  41
ENDBRANCH  31  32
ENDBRANCH  30  31
ENDBRANCH  27  30
ENDBRANCH  26  27
ENDBRANCH  23  26
ENDBRANCH  22  23
ENDBRANCH  21  22
ENDBRANCH  14  21
ENDBRANCH   8  12
ENDBRANCH   4   6
TORSDOF 11
ENDMDL
MODEL      218
REMARK 921   NORMALIZED FREE ENERGY PREDICTED BY IDOCK:   -4.47 KCAL/MOL
REMARK 922        TOTAL FREE ENERGY PREDICTED BY IDOCK:   -9.55 KCAL/MOL
REMARK 923 INTER-LIGAND FREE ENERGY PREDICTED BY IDOCK:   -6.66 KCAL/MOL
REMARK 924 INTRA-LIGAND FREE ENERGY PREDICTED BY IDOCK:   -2.89 KCAL/MOL
REMARK 927      BINDING AFFINITY PREDICTED BY RF-SCORE:    0.00 PKD
ROOT
HETATM    1  N   UNL     1     -12.978   6.155  72.514  1.00  0.00    -0.325 N  
HETATM    2  H1  UNL     1     -12.068   5.914  72.908  1.00  0.00     0.000 HD 
HETATM    3  H2  UNL     1     -13.791   5.580  72.734  1.00  0.00     0.000 HD 
HETATM    4  C   UNL     1     -13.117   7.227  71.703  1.00  0.00    -0.369 C  
HETATM    5  O   UNL     1     -14.215   7.518  71.227  1.00  0.00    -0.397 OA 
ENDROOT
BRANCH   4   6
HETATM    6  C   UNL     1     -11.892   8.008  71.416  1.00  0.00    -0.326 C  
HETATM    7  C   UNL     1     -11.834   8.608  70.213  1.00  0.00     0.175 C  
HETATM    8  N   UNL     1     -10.783   9.428  69.810  1.00  0.00    -0.228 NA 
HETATM    9  C   UNL     1     -10.797   8.197  72.429  1.00  0.00    -0.409 C  
HETATM   10  C   UNL     1      -9.667   9.504  70.651  1.00  0.00    -0.245 C  
HETATM   11  C   UNL     1      -9.616   8.952  71.872  1.00  0.00    -0.326 C  
BRANCH   8  12
HETATM   12  C   UNL     1     -10.839  10.338  68.644  1.00  0.00    -0.234 C  
HETATM   13  O   UNL     1     -10.658   9.560  67.439  1.00  0.00    -0.268 OA 
HETATM   14  C   UNL     1      -9.241   9.511  67.158  1.00  0.00    -0.134 C  
HETATM   15  H   UNL     1      -9.565  13.187  67.564  1.00  0.00     0.000 HD 
HETATM   16  C   UNL     1      -8.604  10.723  67.833  1.00  0.00    -0.125 C  
HETATM   17  H   UNL     1      -7.570  12.317  67.283  1.00  0.00     0.000 HD 
HETATM   18  C   UNL     1      -9.771  11.436  68.510  1.00  0.00    -0.197 C  
HETATM   19  O   UNL     1      -7.967  11.563  66.863  1.00  0.00    -0.154 OA 
HETATM   20  O   UNL     1     -10.225  12.508  67.647  1.00  0.00    -0.213 OA 
BRANCH  14  21
HETATM   21  C   UNL     1      -8.642   8.187  67.657  1.00  0.00    -0.130 C  
BRANCH  21  22
HETATM   22  O   UNL     1      -7.891   7.545  66.634  1.00  0.00    -0.101 OA 
BRANCH  22  23
HETATM   23  P   UNL     1      -6.297   7.620  66.705  1.00  0.00    -0.047 P  
HETATM   24  O   UNL     1      -5.700   8.816  67.367  1.00  0.00    -0.038 OA 
HETATM   25  O   UNL     1      -5.951   6.317  67.582  1.00  0.00    -0.015 OA 
BRANCH  23  26
HETATM   26  O   UNL     1      -5.738   7.226  65.280  1.00  0.00    -0.035 OA 
BRANCH  26  27
HETATM   27  P   UNL     1      -6.414   7.606  63.902  1.00  0.00    -0.054 P  
HETATM   28  O   UNL     1      -5.168   8.108  63.022  1.00  0.00    -0.053 OA 
HETATM   29  O   UNL     1      -7.475   8.653  63.908  1.00  0.00    -0.106 OA 
BRANCH  27  30
HETATM   30  O   UNL     1      -6.832   6.235  63.181  1.00  0.00    -0.039 OA 
BRANCH  30  31
HETATM   31  C   UNL     1      -6.524   4.977  63.772  1.00  0.00    -0.026 C  
BRANCH  31  32
HETATM   32  C   UNL     1      -7.749   4.238  64.301  1.00  0.00    -0.083 C  
HETATM   33  O   UNL     1      -7.868   4.374  65.731  1.00  0.00    -0.093 OA 
HETATM   34  C   UNL     1      -9.224   3.972  66.005  1.00  0.00    -0.153 C  
HETATM   35  H   UNL     1     -10.233   4.470  62.179  1.00  0.00     0.000 HD 
HETATM   36  C   UNL     1     -10.063   4.577  64.867  1.00  0.00    -0.041 C  
HETATM   37  C   UNL     1      -9.054   4.789  63.736  1.00  0.00    -0.024 C  
HETATM   38  H   UNL     1     -11.658   4.111  63.735  1.00  0.00     0.000 HD 
HETATM   39  O   UNL     1     -11.139   3.737  64.438  1.00  0.00    -0.291 OA 
HETATM   40  O   UNL     1      -9.421   4.127  62.531  1.00  0.00    -0.114 OA 
BRANCH  34  41
HETATM   41  N   UNL     1      -9.634   4.421  67.320  1.00  0.00    -0.178 NA 
HETATM   42  C   UNL     1     -10.521   5.411  67.634  1.00  0.00    -0.150 A  
HETATM   43  N   UNL     1     -10.692   5.523  68.936  1.00  0.00    -0.192 NA 
HETATM   44  C   UNL     1      -9.851   4.577  69.487  1.00  0.00    -0.207 A  
HETATM   45  C   UNL     1      -9.585   4.193  70.812  1.00  0.00    -0.190 A  
HETATM   46  N   UNL     1     -10.236   4.741  71.908  1.00  0.00    -0.197 NA 
HETATM   47  N   UNL     1      -8.647   3.243  71.032  1.00  0.00    -0.069 NA 
HETATM   48  H1  UNL     1     -10.043   4.462  72.870  1.00  0.00     0.000 HD 
HETATM   49  C   UNL     1      -8.043   2.675  69.966  1.00  0.00    -0.041 A  
HETATM   50  H2  UNL     1     -11.239   4.627  71.754  1.00  0.00     0.000 HD 
HETATM   51  N   UNL     1      -8.251   2.920  68.651  1.00  0.00    -0.063 NA 
HETATM   52  C   UNL     1      -9.162   3.898  68.496  1.00  0.00    -0.155 A  
ENDBRANCH  34  41
ENDBRANCH  31  32
ENDBRANCH  30  31
ENDBRANCH  27  30
ENDBRANCH  26  27
ENDBRANCH  23  26
ENDBRANCH  22  23
ENDBRANCH  21  22
ENDBRANCH  14  21
ENDBRANCH   8  12
ENDBRANCH   4   6
TORSDOF 11
ENDMDL
MODEL      219
REMARK 921   NORMALIZED FREE ENERGY PREDICTED BY IDOCK:   -4.41 KCAL/MOL
REMARK 922        TOTAL FREE ENERGY PREDICTED BY IDOCK:   -9.44 KCAL/MOL
REMARK 923 INTER-LIGAND FREE ENERGY PREDICTED BY IDOCK:   -8.55 KCAL/MOL
REMARK 924 INTRA-LIGAND FREE ENERGY PREDICTED BY IDOCK:   -0.89 KCAL/MOL
REMARK 927      BINDING AFFINITY PREDICTED BY RF-SCORE:    0.00 PKD
ROOT
HETATM    1  N   UNL     1     -10.896   3.059  73.185  1.00  0.00    -0.161 N  
HETATM    2  H1  UNL     1     -10.584   2.430  72.445  1.00  0.00     0.000 HD 
HETATM    3  H2  UNL     1     -11.457   2.694  73.955  1.00  0.00     0.000 HD 
HETATM    4  C   UNL     1     -10.574   4.372  73.158  1.00  0.00    -0.200 C  
HETATM    5  O   UNL     1     -10.950   5.131  74.051  1.00  0.00    -0.270 OA 
ENDROOT
BRANCH   4   6
HETATM    6  C   UNL     1      -9.770   4.836  72.004  1.00  0.00    -0.217 C  
HETATM    7  C   UNL     1      -9.234   6.066  72.105  1.00  0.00    -0.145 C  
HETATM    8  N   UNL     1      -8.402   6.627  71.139  1.00  0.00    -0.124 NA 
HETATM    9  C   UNL     1      -9.491   3.966  70.809  1.00  0.00    -0.233 C  
HETATM   10  C   UNL     1      -8.244   5.924  69.939  1.00  0.00    -0.117 C  
HETATM   11  C   UNL     1      -8.728   4.691  69.729  1.00  0.00    -0.112 C  
BRANCH   8  12
HETATM   12  C   UNL     1      -7.559   7.822  71.361  1.00  0.00    -0.081 C  
HETATM   13  O   UNL     1      -8.417   8.977  71.499  1.00  0.00    -0.308 OA 
HETATM   14  C   UNL     1      -8.617   9.534  70.180  1.00  0.00    -0.224 C  
HETATM   15  H   UNL     1      -4.910   9.347  70.111  1.00  0.00     0.000 HD 
HETATM   16  C   UNL     1      -7.435   9.094  69.319  1.00  0.00    -0.075 C  
HETATM   17  H   UNL     1      -5.981   9.959  68.295  1.00  0.00     0.000 HD 
HETATM   18  C   UNL     1      -6.577   8.251  70.258  1.00  0.00    -0.036 C  
HETATM   19  O   UNL     1      -6.716  10.233  68.831  1.00  0.00    -0.055 OA 
HETATM   20  O   UNL     1      -5.517   9.082  70.792  1.00  0.00    -0.027 OA 
BRANCH  14  21
HETATM   21  C   UNL     1      -9.962   9.068  69.601  1.00  0.00    -0.192 C  
BRANCH  21  22
HETATM   22  O   UNL     1     -11.023   9.293  70.521  1.00  0.00    -0.233 OA 
BRANCH  22  23
HETATM   23  P   UNL     1     -12.110  10.408  70.165  1.00  0.00    -0.186 P  
HETATM   24  O   UNL     1     -13.506  10.172  70.635  1.00  0.00    -0.257 OA 
HETATM   25  O   UNL     1     -11.518  11.693  70.929  1.00  0.00     0.333 OA 
BRANCH  23  26
HETATM   26  O   UNL     1     -11.913  10.798  68.646  1.00  0.00    -0.449 OA 
BRANCH  26  27
HETATM   27  P   UNL     1     -11.585  12.251  68.117  1.00  0.00    -0.334 P  
HETATM   28  O   UNL     1     -12.370  13.193  69.156  1.00  0.00    -0.164 OA 
HETATM   29  O   UNL     1     -11.990  12.598  66.725  1.00  0.00    -0.466 OA 
BRANCH  27  30
HETATM   30  O   UNL     1     -10.046  12.547  68.460  1.00  0.00    -0.221 OA 
BRANCH  30  31
HETATM   31  C   UNL     1      -9.023  12.287  67.505  1.00  0.00    -0.180 C  
BRANCH  31  32
HETATM   32  C   UNL     1      -7.890  13.308  67.535  1.00  0.00    -0.171 C  
HETATM   33  O   UNL     1      -8.184  14.444  66.700  1.00  0.00     0.003 OA 
HETATM   34  C   UNL     1      -7.239  15.443  67.129  1.00  0.00    -0.144 C  
HETATM   35  H   UNL     1      -6.572  13.468  70.529  1.00  0.00     0.000 HD 
HETATM   36  C   UNL     1      -7.181  15.313  68.660  1.00  0.00    -0.121 C  
HETATM   37  C   UNL     1      -7.659  13.884  68.928  1.00  0.00    -0.060 C  
HETATM   38  H   UNL     1      -5.840  15.444  70.152  1.00  0.00     0.000 HD 
HETATM   39  O   UNL     1      -5.876  15.524  69.206  1.00  0.00    -0.101 OA 
HETATM   40  O   UNL     1      -6.716  13.110  69.661  1.00  0.00    -0.045 OA 
BRANCH  34  41
HETATM   41  N   UNL     1      -7.647  16.759  66.681  1.00  0.00    -0.246 NA 
HETATM   42  C   UNL     1      -6.968  17.619  65.865  1.00  0.00    -0.224 A  
HETATM   43  N   UNL     1      -7.658  18.717  65.626  1.00  0.00    -0.484 NA 
HETATM   44  C   UNL     1      -8.826  18.567  66.347  1.00  0.00    -0.256 A  
HETATM   45  C   UNL     1      -9.964  19.376  66.498  1.00  0.00    -0.396 A  
HETATM   46  N   UNL     1     -10.135  20.581  65.832  1.00  0.00    -0.507 NA 
HETATM   47  N   UNL     1     -10.943  18.961  67.336  1.00  0.00    -0.368 NA 
HETATM   48  H1  UNL     1     -10.962  21.168  65.942  1.00  0.00     0.000 HD 
HETATM   49  C   UNL     1     -10.801  17.767  67.952  1.00  0.00    -0.218 A  
HETATM   50  H2  UNL     1     -10.025  20.395  64.835  1.00  0.00     0.000 HD 
HETATM   51  N   UNL     1      -9.784  16.881  67.846  1.00  0.00    -0.249 NA 
HETATM   52  C   UNL     1      -8.825  17.364  67.034  1.00  0.00    -0.234 A  
ENDBRANCH  34  41
ENDBRANCH  31  32
ENDBRANCH  30  31
ENDBRANCH  27  30
ENDBRANCH  26  27
ENDBRANCH  23  26
ENDBRANCH  22  23
ENDBRANCH  21  22
ENDBRANCH  14  21
ENDBRANCH   8  12
ENDBRANCH   4   6
TORSDOF 11
ENDMDL
MODEL      220
REMARK 921   NORMALIZED FREE ENERGY PREDICTED BY IDOCK:   -4.39 KCAL/MOL
REMARK 922        TOTAL FREE ENERGY PREDICTED BY IDOCK:   -9.41 KCAL/MOL
REMARK 923 INTER-LIGAND FREE ENERGY PREDICTED BY IDOCK:   -8.31 KCAL/MOL
REMARK 924 INTRA-LIGAND FREE ENERGY PREDICTED BY IDOCK:   -1.10 KCAL/MOL
REMARK 927      BINDING AFFINITY PREDICTED BY RF-SCORE:    0.00 PKD
ROOT
HETATM    1  N   UNL     1     -10.322   7.550  71.796  1.00  0.00    -0.192 N  
HETATM    2  H1  UNL     1      -9.548   8.040  72.244  1.00  0.00     0.000 HD 
HETATM    3  H2  UNL     1     -11.250   7.579  72.219  1.00  0.00     0.000 HD 
HETATM    4  C   UNL     1     -10.133   6.862  70.649  1.00  0.00    -0.194 C  
HETATM    5  O   UNL     1     -11.067   6.270  70.108  1.00  0.00    -0.311 OA 
ENDROOT
BRANCH   4   6
HETATM    6  C   UNL     1      -8.758   6.850  70.099  1.00  0.00    -0.141 C  
HETATM    7  C   UNL     1      -8.560   6.103  68.998  1.00  0.00    -0.121 C  
HETATM    8  N   UNL     1      -7.345   6.033  68.320  1.00  0.00    -0.083 NA 
HETATM    9  C   UNL     1      -7.647   7.682  70.679  1.00  0.00    -0.080 C  
HETATM   10  C   UNL     1      -6.242   6.659  68.912  1.00  0.00    -0.027 C  
HETATM   11  C   UNL     1      -6.322   7.432  70.004  1.00  0.00    -0.027 C  
BRANCH   8  12
HETATM   12  C   UNL     1      -7.185   5.484  66.956  1.00  0.00    -0.078 C  
HETATM   13  O   UNL     1      -6.219   6.289  66.243  1.00  0.00    -0.035 OA 
HETATM   14  C   UNL     1      -6.940   7.353  65.580  1.00  0.00    -0.060 C  
HETATM   15  H   UNL     1      -8.987   4.503  64.368  1.00  0.00     0.000 HD 
HETATM   16  C   UNL     1      -8.379   6.878  65.397  1.00  0.00    -0.119 C  
HETATM   17  H   UNL     1      -9.620   6.550  63.892  1.00  0.00     0.000 HD 
HETATM   18  C   UNL     1      -8.397   5.482  66.011  1.00  0.00    -0.122 C  
HETATM   19  O   UNL     1      -8.724   6.846  64.006  1.00  0.00     0.367 OA 
HETATM   20  O   UNL     1      -8.237   4.505  64.952  1.00  0.00    -0.101 OA 
BRANCH  14  21
HETATM   21  C   UNL     1      -6.856   8.648  66.403  1.00  0.00    -0.071 C  
BRANCH  21  22
HETATM   22  O   UNL     1      -8.145   9.063  66.840  1.00  0.00    -0.110 OA 
BRANCH  22  23
HETATM   23  P   UNL     1      -8.932  10.140  65.961  1.00  0.00    -0.166 P  
HETATM   24  O   UNL     1      -8.595  10.212  64.510  1.00  0.00    -0.166 OA 
HETATM   25  O   UNL     1     -10.451   9.633  66.114  1.00  0.00    -0.179 OA 
BRANCH  23  26
HETATM   26  O   UNL     1      -8.945  11.497  66.771  1.00  0.00    -0.169 OA 
BRANCH  26  27
HETATM   27  P   UNL     1      -9.709  11.733  68.135  1.00  0.00    -0.195 P  
HETATM   28  O   UNL     1      -8.715  12.712  68.933  1.00  0.00     0.116 OA 
HETATM   29  O   UNL     1     -10.019  10.543  68.979  1.00  0.00    -0.193 OA 
BRANCH  27  30
HETATM   30  O   UNL     1     -10.966  12.678  67.822  1.00  0.00    -0.220 OA 
BRANCH  30  31
HETATM   31  C   UNL     1     -11.541  12.720  66.520  1.00  0.00    -0.376 C  
BRANCH  31  32
HETATM   32  C   UNL     1     -11.899  14.129  66.059  1.00  0.00    -0.398 C  
HETATM   33  O   UNL     1     -11.301  15.128  66.909  1.00  0.00    -0.333 OA 
HETATM   34  C   UNL     1     -11.407  16.342  66.142  1.00  0.00     0.525 C  
HETATM   35  H   UNL     1     -12.015  14.271  62.789  1.00  0.00     0.000 HD 
HETATM   36  C   UNL     1     -11.085  15.936  64.695  1.00  0.00    -0.354 C  
HETATM   37  C   UNL     1     -11.383  14.435  64.657  1.00  0.00    -0.371 C  
HETATM   38  H   UNL     1     -11.664  16.382  62.822  1.00  0.00     0.000 HD 
HETATM   39  O   UNL     1     -11.862  16.633  63.716  1.00  0.00    -0.933 OA 
HETATM   40  O   UNL     1     -12.337  14.081  63.662  1.00  0.00    -0.728 OA 
BRANCH  34  41
HETATM   41  N   UNL     1     -10.512  17.355  66.665  1.00  0.00    -0.290 NA 
HETATM   42  C   UNL     1     -10.623  18.713  66.558  1.00  0.00    -0.358 A  
HETATM   43  N   UNL     1      -9.650  19.336  67.194  1.00  0.00    -0.316 NA 
HETATM   44  C   UNL     1      -8.861  18.329  67.710  1.00  0.00    -0.263 A  
HETATM   45  C   UNL     1      -7.692  18.338  68.489  1.00  0.00    -0.305 A  
HETATM   46  N   UNL     1      -7.098  19.501  68.957  1.00  0.00    -0.355 NA 
HETATM   47  N   UNL     1      -7.114  17.153  68.800  1.00  0.00    -0.218 NA 
HETATM   48  H1  UNL     1      -6.249  19.508  69.523  1.00  0.00     0.000 HD 
HETATM   49  C   UNL     1      -7.714  16.017  68.384  1.00  0.00    -0.147 A  
HETATM   50  H2  UNL     1      -7.810  20.020  69.472  1.00  0.00     0.000 HD 
HETATM   51  N   UNL     1      -8.861  15.879  67.679  1.00  0.00    -0.173 NA 
HETATM   52  C   UNL     1      -9.367  17.086  67.367  1.00  0.00    -0.239 A  
ENDBRANCH  34  41
ENDBRANCH  31  32
ENDBRANCH  30  31
ENDBRANCH  27  30
ENDBRANCH  26  27
ENDBRANCH  23  26
ENDBRANCH  22  23
ENDBRANCH  21  22
ENDBRANCH  14  21
ENDBRANCH   8  12
ENDBRANCH   4   6
TORSDOF 11
ENDMDL
MODEL      221
REMARK 921   NORMALIZED FREE ENERGY PREDICTED BY IDOCK:   -4.37 KCAL/MOL
REMARK 922        TOTAL FREE ENERGY PREDICTED BY IDOCK:   -9.38 KCAL/MOL
REMARK 923 INTER-LIGAND FREE ENERGY PREDICTED BY IDOCK:   -7.67 KCAL/MOL
REMARK 924 INTRA-LIGAND FREE ENERGY PREDICTED BY IDOCK:   -1.71 KCAL/MOL
REMARK 927      BINDING AFFINITY PREDICTED BY RF-SCORE:    0.00 PKD
ROOT
HETATM    1  N   UNL     1     -11.718   6.987  69.651  1.00  0.00    -0.576 N  
HETATM    2  H1  UNL     1     -10.986   6.854  68.952  1.00  0.00     0.000 HD 
HETATM    3  H2  UNL     1     -12.555   7.517  69.409  1.00  0.00     0.000 HD 
HETATM    4  C   UNL     1     -11.590   6.470  70.893  1.00  0.00    -0.359 C  
HETATM    5  O   UNL     1     -12.473   6.632  71.735  1.00  0.00    -0.352 OA 
ENDROOT
BRANCH   4   6
HETATM    6  C   UNL     1     -10.343   5.725  71.178  1.00  0.00    -0.286 C  
HETATM    7  C   UNL     1     -10.094   4.655  70.401  1.00  0.00    -0.205 C  
HETATM    8  N   UNL     1      -8.939   3.884  70.496  1.00  0.00    -0.088 NA 
HETATM    9  C   UNL     1      -9.357   6.168  72.223  1.00  0.00    -0.149 C  
HETATM   10  C   UNL     1      -8.068   4.157  71.557  1.00  0.00    -0.082 C  
HETATM   11  C   UNL     1      -8.213   5.198  72.390  1.00  0.00    -0.117 C  
BRANCH   8  12
HETATM   12  C   UNL     1      -8.498   2.916  69.467  1.00  0.00    -0.062 C  
HETATM   13  O   UNL     1      -7.171   3.280  69.025  1.00  0.00    -0.048 OA 
HETATM   14  C   UNL     1      -7.315   4.187  67.909  1.00  0.00    -0.068 C  
HETATM   15  H   UNL     1      -9.553   1.492  66.680  1.00  0.00     0.000 HD 
HETATM   16  C   UNL     1      -8.687   3.931  67.292  1.00  0.00    -0.110 C  
HETATM   17  H   UNL     1      -9.409   3.362  65.540  1.00  0.00     0.000 HD 
HETATM   18  C   UNL     1      -9.288   2.823  68.152  1.00  0.00    -0.203 C  
HETATM   19  O   UNL     1      -8.555   3.522  65.925  1.00  0.00    -0.109 OA 
HETATM   20  O   UNL     1      -9.065   1.550  67.494  1.00  0.00    -0.120 OA 
BRANCH  14  21
HETATM   21  C   UNL     1      -7.153   5.642  68.379  1.00  0.00    -0.070 C  
BRANCH  21  22
HETATM   22  O   UNL     1      -7.647   6.554  67.405  1.00  0.00    -0.096 OA 
BRANCH  22  23
HETATM   23  P   UNL     1      -6.626   7.130  66.321  1.00  0.00    -0.054 P  
HETATM   24  O   UNL     1      -5.610   6.185  65.772  1.00  0.00    -0.016 OA 
HETATM   25  O   UNL     1      -7.624   7.562  65.136  1.00  0.00    -0.083 OA 
BRANCH  23  26
HETATM   26  O   UNL     1      -6.106   8.525  66.850  1.00  0.00    -0.052 OA 
BRANCH  26  27
HETATM   27  P   UNL     1      -7.028   9.705  67.359  1.00  0.00    -0.085 P  
HETATM   28  O   UNL     1      -7.512  10.393  65.989  1.00  0.00    -0.122 OA 
HETATM   29  O   UNL     1      -6.420  10.736  68.247  1.00  0.00    -0.057 OA 
BRANCH  27  30
HETATM   30  O   UNL     1      -8.377   9.046  67.923  1.00  0.00    -0.116 OA 
BRANCH  30  31
HETATM   31  C   UNL     1      -9.640   9.666  67.704  1.00  0.00    -0.142 C  
BRANCH  31  32
HETATM   32  C   UNL     1      -9.948  10.784  68.695  1.00  0.00    -0.182 C  
HETATM   33  O   UNL     1      -9.818  12.081  68.080  1.00  0.00    -0.190 OA 
HETATM   34  C   UNL     1     -10.494  12.965  68.994  1.00  0.00     0.009 C  
HETATM   35  H   UNL     1     -12.372   9.894  70.710  1.00  0.00     0.000 HD 
HETATM   36  C   UNL     1     -11.742  12.195  69.454  1.00  0.00    -0.329 C  
HETATM   37  C   UNL     1     -11.381  10.727  69.213  1.00  0.00    -0.286 C  
HETATM   38  H   UNL     1     -12.852  11.940  71.111  1.00  0.00     0.000 HD 
HETATM   39  O   UNL     1     -12.081  12.417  70.827  1.00  0.00    -0.333 OA 
HETATM   40  O   UNL     1     -11.479   9.929  70.387  1.00  0.00    -0.265 OA 
BRANCH  34  41
HETATM   41  N   UNL     1     -10.803  14.226  68.350  1.00  0.00    -0.246 NA 
HETATM   42  C   UNL     1     -11.973  14.930  68.395  1.00  0.00    -0.221 A  
HETATM   43  N   UNL     1     -11.890  16.064  67.727  1.00  0.00     0.143 NA 
HETATM   44  C   UNL     1     -10.613  16.075  67.203  1.00  0.00    -0.305 A  
HETATM   45  C   UNL     1      -9.914  17.003  66.415  1.00  0.00    -0.307 A  
HETATM   46  N   UNL     1     -10.445  18.224  66.027  1.00  0.00    -0.521 NA 
HETATM   47  N   UNL     1      -8.659  16.692  66.013  1.00  0.00    -0.477 NA 
HETATM   48  H1  UNL     1      -9.936  18.899  65.455  1.00  0.00     0.000 HD 
HETATM   49  C   UNL     1      -8.122  15.524  66.426  1.00  0.00     0.079 A  
HETATM   50  H2  UNL     1     -10.743  18.709  66.874  1.00  0.00     0.000 HD 
HETATM   51  N   UNL     1      -8.672  14.579  67.224  1.00  0.00    -0.198 NA 
HETATM   52  C   UNL     1      -9.929  14.923  67.558  1.00  0.00    -0.219 A  
ENDBRANCH  34  41
ENDBRANCH  31  32
ENDBRANCH  30  31
ENDBRANCH  27  30
ENDBRANCH  26  27
ENDBRANCH  23  26
ENDBRANCH  22  23
ENDBRANCH  21  22
ENDBRANCH  14  21
ENDBRANCH   8  12
ENDBRANCH   4   6
TORSDOF 11
ENDMDL
MODEL      222
REMARK 921   NORMALIZED FREE ENERGY PREDICTED BY IDOCK:   -4.32 KCAL/MOL
REMARK 922        TOTAL FREE ENERGY PREDICTED BY IDOCK:   -9.31 KCAL/MOL
REMARK 923 INTER-LIGAND FREE ENERGY PREDICTED BY IDOCK:   -8.59 KCAL/MOL
REMARK 924 INTRA-LIGAND FREE ENERGY PREDICTED BY IDOCK:   -0.72 KCAL/MOL
REMARK 927      BINDING AFFINITY PREDICTED BY RF-SCORE:    0.00 PKD
ROOT
HETATM    1  N   UNL     1      -7.044   5.760  68.573  1.00  0.00    -0.075 N  
HETATM    2  H1  UNL     1      -6.449   5.912  69.388  1.00  0.00     0.000 HD 
HETATM    3  H2  UNL     1      -6.640   5.373  67.720  1.00  0.00     0.000 HD 
HETATM    4  C   UNL     1      -8.360   6.064  68.611  1.00  0.00    -0.113 C  
HETATM    5  O   UNL     1      -9.077   5.881  67.627  1.00  0.00    -0.109 OA 
ENDROOT
BRANCH   4   6
HETATM    6  C   UNL     1      -8.875   6.634  69.877  1.00  0.00    -0.144 C  
HETATM    7  C   UNL     1     -10.088   7.214  69.822  1.00  0.00    -0.195 C  
HETATM    8  N   UNL     1     -10.742   7.742  70.932  1.00  0.00    -0.219 NA 
HETATM    9  C   UNL     1      -8.133   6.514  71.180  1.00  0.00    -0.116 C  
HETATM   10  C   UNL     1     -10.026   7.799  72.134  1.00  0.00    -0.193 C  
HETATM   11  C   UNL     1      -8.815   7.251  72.305  1.00  0.00    -0.145 C  
BRANCH   8  12
HETATM   12  C   UNL     1     -12.180   8.091  70.962  1.00  0.00    -0.185 C  
HETATM   13  O   UNL     1     -12.448   9.043  69.908  1.00  0.00     0.768 OA 
HETATM   14  C   UNL     1     -12.257  10.367  70.455  1.00  0.00    -0.303 C  
HETATM   15  H   UNL     1     -14.533   9.046  73.073  1.00  0.00     0.000 HD 
HETATM   16  C   UNL     1     -12.445  10.264  71.966  1.00  0.00    -0.118 C  
HETATM   17  H   UNL     1     -13.644  11.035  73.337  1.00  0.00     0.000 HD 
HETATM   18  C   UNL     1     -12.746   8.788  72.209  1.00  0.00    -0.402 C  
HETATM   19  O   UNL     1     -13.527  11.100  72.396  1.00  0.00    -0.218 OA 
HETATM   20  O   UNL     1     -14.183   8.615  72.302  1.00  0.00    -0.439 OA 
BRANCH  14  21
HETATM   21  C   UNL     1     -10.868  10.906  70.078  1.00  0.00    -0.072 C  
BRANCH  21  22
HETATM   22  O   UNL     1     -10.257  10.100  69.078  1.00  0.00    -0.184 OA 
BRANCH  22  23
HETATM   23  P   UNL     1      -9.780  10.802  67.726  1.00  0.00    -0.167 P  
HETATM   24  O   UNL     1     -10.531  10.465  66.482  1.00  0.00    -0.236 OA 
HETATM   25  O   UNL     1     -10.016  12.355  68.068  1.00  0.00    -0.195 OA 
BRANCH  23  26
HETATM   26  O   UNL     1      -8.204  10.704  67.669  1.00  0.00    -0.107 OA 
BRANCH  26  27
HETATM   27  P   UNL     1      -7.233  10.967  68.890  1.00  0.00    -0.114 P  
HETATM   28  O   UNL     1      -5.805  10.509  68.312  1.00  0.00    -0.043 OA 
HETATM   29  O   UNL     1      -7.506  10.250  70.168  1.00  0.00    -0.165 OA 
BRANCH  27  30
HETATM   30  O   UNL     1      -7.068  12.556  69.035  1.00  0.00    -0.099 OA 
BRANCH  30  31
HETATM   31  C   UNL     1      -5.952  13.229  68.462  1.00  0.00    -0.083 C  
BRANCH  31  32
HETATM   32  C   UNL     1      -6.199  14.714  68.217  1.00  0.00    -0.122 C  
HETATM   33  O   UNL     1      -7.118  14.921  67.127  1.00  0.00    -0.197 OA 
HETATM   34  C   UNL     1      -7.528  16.294  67.277  1.00  0.00    -0.178 C  
HETATM   35  H   UNL     1      -6.249  16.350  71.054  1.00  0.00     0.000 HD 
HETATM   36  C   UNL     1      -7.705  16.500  68.790  1.00  0.00    -0.226 C  
HETATM   37  C   UNL     1      -6.837  15.406  69.416  1.00  0.00    -0.174 C  
HETATM   38  H   UNL     1      -7.410  17.922  70.180  1.00  0.00     0.000 HD 
HETATM   39  O   UNL     1      -7.301  17.794  69.245  1.00  0.00    -0.172 OA 
HETATM   40  O   UNL     1      -5.852  15.919  70.306  1.00  0.00    -0.170 OA 
BRANCH  34  41
HETATM   41  N   UNL     1      -8.735  16.552  66.518  1.00  0.00    -0.253 NA 
HETATM   42  C   UNL     1      -9.360  17.749  66.311  1.00  0.00    -0.201 A  
HETATM   43  N   UNL     1     -10.415  17.624  65.530  1.00  0.00    -0.638 NA 
HETATM   44  C   UNL     1     -10.486  16.276  65.243  1.00  0.00    -0.300 A  
HETATM   45  C   UNL     1     -11.368  15.513  64.460  1.00  0.00    -0.314 A  
HETATM   46  N   UNL     1     -12.407  16.066  63.726  1.00  0.00    -1.000 NA 
HETATM   47  N   UNL     1     -11.197  14.170  64.418  1.00  0.00    -0.325 NA 
HETATM   48  H1  UNL     1     -13.047  15.512  63.156  1.00  0.00     0.000 HD 
HETATM   49  C   UNL     1     -10.159  13.632  65.095  1.00  0.00    -0.275 A  
HETATM   50  H2  UNL     1     -12.003  16.782  63.120  1.00  0.00     0.000 HD 
HETATM   51  N   UNL     1      -9.219  14.264  65.836  1.00  0.00    -0.027 NA 
HETATM   52  C   UNL     1      -9.463  15.587  65.873  1.00  0.00    -0.342 A  
ENDBRANCH  34  41
ENDBRANCH  31  32
ENDBRANCH  30  31
ENDBRANCH  27  30
ENDBRANCH  26  27
ENDBRANCH  23  26
ENDBRANCH  22  23
ENDBRANCH  21  22
ENDBRANCH  14  21
ENDBRANCH   8  12
ENDBRANCH   4   6
TORSDOF 11
ENDMDL
MODEL      223
REMARK 921   NORMALIZED FREE ENERGY PREDICTED BY IDOCK:   -4.32 KCAL/MOL
REMARK 922        TOTAL FREE ENERGY PREDICTED BY IDOCK:   -9.30 KCAL/MOL
REMARK 923 INTER-LIGAND FREE ENERGY PREDICTED BY IDOCK:   -8.46 KCAL/MOL
REMARK 924 INTRA-LIGAND FREE ENERGY PREDICTED BY IDOCK:   -0.85 KCAL/MOL
REMARK 927      BINDING AFFINITY PREDICTED BY RF-SCORE:    0.00 PKD
ROOT
HETATM    1  N   UNL     1      -9.412  10.350  64.673  1.00  0.00    -0.253 N  
HETATM    2  H1  UNL     1      -9.504  10.457  65.683  1.00  0.00     0.000 HD 
HETATM    3  H2  UNL     1      -8.789   9.637  64.295  1.00  0.00     0.000 HD 
HETATM    4  C   UNL     1     -10.108  11.143  63.828  1.00  0.00    -0.361 C  
HETATM    5  O   UNL     1      -9.997  11.015  62.609  1.00  0.00    -0.200 OA 
ENDROOT
BRANCH   4   6
HETATM    6  C   UNL     1     -10.984  12.165  64.445  1.00  0.00    -0.375 C  
HETATM    7  C   UNL     1     -10.595  12.643  65.642  1.00  0.00    -0.273 C  
HETATM    8  N   UNL     1     -11.269  13.650  66.327  1.00  0.00    -0.302 NA 
HETATM    9  C   UNL     1     -12.204  12.710  63.754  1.00  0.00    -0.600 C  
HETATM   10  C   UNL     1     -12.496  14.074  65.804  1.00  0.00    -0.494 C  
HETATM   11  C   UNL     1     -12.980  13.672  64.620  1.00  0.00     0.075 C  
BRANCH   8  12
HETATM   12  C   UNL     1     -10.703  14.402  67.469  1.00  0.00    -0.271 C  
HETATM   13  O   UNL     1     -10.231  13.460  68.457  1.00  0.00    -0.237 OA 
HETATM   14  C   UNL     1     -11.326  13.188  69.360  1.00  0.00    -0.213 C  
HETATM   15  H   UNL     1     -11.442  16.895  69.505  1.00  0.00     0.000 HD 
HETATM   16  C   UNL     1     -12.277  14.380  69.291  1.00  0.00    -0.239 C  
HETATM   17  H   UNL     1     -12.997  15.738  70.535  1.00  0.00     0.000 HD 
HETATM   18  C   UNL     1     -11.628  15.322  68.282  1.00  0.00    -0.341 C  
HETATM   19  O   UNL     1     -12.405  14.996  70.579  1.00  0.00    -0.310 OA 
HETATM   20  O   UNL     1     -10.871  16.326  69.002  1.00  0.00    -0.273 OA 
BRANCH  14  21
HETATM   21  C   UNL     1     -12.019  11.870  68.978  1.00  0.00    -0.262 C  
BRANCH  21  22
HETATM   22  O   UNL     1     -11.069  10.834  68.763  1.00  0.00    -0.221 OA 
BRANCH  22  23
HETATM   23  P   UNL     1     -10.623   9.943  70.011  1.00  0.00    -0.315 P  
HETATM   24  O   UNL     1      -9.195  10.028  70.433  1.00  0.00    -0.093 OA 
HETATM   25  O   UNL     1     -11.545  10.544  71.183  1.00  0.00    -0.307 OA 
BRANCH  23  26
HETATM   26  O   UNL     1     -11.234   8.499  69.808  1.00  0.00    -0.129 OA 
BRANCH  26  27
HETATM   27  P   UNL     1     -11.713   7.544  70.974  1.00  0.00    -0.262 P  
HETATM   28  O   UNL     1     -11.545   6.083  70.327  1.00  0.00    -0.294 OA 
HETATM   29  O   UNL     1     -13.103   7.707  71.485  1.00  0.00    -0.340 OA 
BRANCH  27  30
HETATM   30  O   UNL     1     -10.576   7.566  72.106  1.00  0.00    -0.208 OA 
BRANCH  30  31
HETATM   31  C   UNL     1     -10.634   6.675  73.215  1.00  0.00    -0.291 C  
BRANCH  31  32
HETATM   32  C   UNL     1      -9.476   5.683  73.258  1.00  0.00    -0.142 C  
HETATM   33  O   UNL     1      -9.497   4.802  72.118  1.00  0.00    -0.133 OA 
HETATM   34  C   UNL     1      -8.180   4.218  72.108  1.00  0.00    -0.102 C  
HETATM   35  H   UNL     1      -6.792   7.104  74.484  1.00  0.00     0.000 HD 
HETATM   36  C   UNL     1      -7.226   5.368  72.468  1.00  0.00    -0.093 C  
HETATM   37  C   UNL     1      -8.115   6.369  73.208  1.00  0.00    -0.110 C  
HETATM   38  H   UNL     1      -5.533   5.676  73.508  1.00  0.00     0.000 HD 
HETATM   39  O   UNL     1      -6.123   4.965  73.285  1.00  0.00    -0.030 OA 
HETATM   40  O   UNL     1      -7.639   6.677  74.514  1.00  0.00    -0.101 OA 
BRANCH  34  41
HETATM   41  N   UNL     1      -7.897   3.620  70.819  1.00  0.00    -0.050 NA 
HETATM   42  C   UNL     1      -8.354   2.432  70.322  1.00  0.00    -0.041 A  
HETATM   43  N   UNL     1      -7.930   2.218  69.092  1.00  0.00    -0.045 NA 
HETATM   44  C   UNL     1      -7.139   3.309  68.794  1.00  0.00    -0.049 A  
HETATM   45  C   UNL     1      -6.418   3.679  67.647  1.00  0.00    -0.038 A  
HETATM   46  N   UNL     1      -6.420   2.938  66.475  1.00  0.00    -0.031 NA 
HETATM   47  N   UNL     1      -5.681   4.815  67.687  1.00  0.00    -0.020 NA 
HETATM   48  H1  UNL     1      -5.896   3.207  65.642  1.00  0.00     0.000 HD 
HETATM   49  C   UNL     1      -5.712   5.563  68.812  1.00  0.00    -0.015 A  
HETATM   50  H2  UNL     1      -7.394   2.817  66.195  1.00  0.00     0.000 HD 
HETATM   51  N   UNL     1      -6.405   5.340  69.952  1.00  0.00    -0.025 NA 
HETATM   52  C   UNL     1      -7.084   4.181  69.869  1.00  0.00    -0.042 A  
ENDBRANCH  34  41
ENDBRANCH  31  32
ENDBRANCH  30  31
ENDBRANCH  27  30
ENDBRANCH  26  27
ENDBRANCH  23  26
ENDBRANCH  22  23
ENDBRANCH  21  22
ENDBRANCH  14  21
ENDBRANCH   8  12
ENDBRANCH   4   6
TORSDOF 11
ENDMDL
MODEL      224
REMARK 921   NORMALIZED FREE ENERGY PREDICTED BY IDOCK:   -4.29 KCAL/MOL
REMARK 922        TOTAL FREE ENERGY PREDICTED BY IDOCK:   -9.25 KCAL/MOL
REMARK 923 INTER-LIGAND FREE ENERGY PREDICTED BY IDOCK:   -7.03 KCAL/MOL
REMARK 924 INTRA-LIGAND FREE ENERGY PREDICTED BY IDOCK:   -2.22 KCAL/MOL
REMARK 927      BINDING AFFINITY PREDICTED BY RF-SCORE:    0.00 PKD
ROOT
HETATM    1  N   UNL     1      -5.317   9.842  66.956  1.00  0.00    -0.041 N  
HETATM    2  H1  UNL     1      -4.757  10.330  67.655  1.00  0.00     0.000 HD 
HETATM    3  H2  UNL     1      -4.945   9.007  66.503  1.00  0.00     0.000 HD 
HETATM    4  C   UNL     1      -6.548  10.289  66.623  1.00  0.00    -0.078 C  
HETATM    5  O   UNL     1      -7.225   9.701  65.779  1.00  0.00    -0.094 OA 
ENDROOT
BRANCH   4   6
HETATM    6  C   UNL     1      -7.020  11.513  67.309  1.00  0.00    -0.125 C  
HETATM    7  C   UNL     1      -7.920  12.262  66.646  1.00  0.00     0.101 C  
HETATM    8  N   UNL     1      -8.510  13.408  67.175  1.00  0.00    -0.194 NA 
HETATM    9  C   UNL     1      -6.587  11.877  68.703  1.00  0.00    -0.066 C  
HETATM   10  C   UNL     1      -8.022  13.876  68.400  1.00  0.00    -0.144 C  
HETATM   11  C   UNL     1      -7.130  13.212  69.149  1.00  0.00     0.021 C  
BRANCH   8  12
HETATM   12  C   UNL     1      -9.713  14.059  66.610  1.00  0.00    -0.289 C  
HETATM   13  O   UNL     1     -10.739  14.100  67.627  1.00  0.00    -0.254 OA 
HETATM   14  C   UNL     1     -11.515  12.886  67.514  1.00  0.00    -0.335 C  
HETATM   15  H   UNL     1     -11.677  13.939  63.958  1.00  0.00     0.000 HD 
HETATM   16  C   UNL     1     -11.353  12.376  66.085  1.00  0.00    -0.352 C  
HETATM   17  H   UNL     1     -12.522  11.997  64.535  1.00  0.00     0.000 HD 
HETATM   18  C   UNL     1     -10.428  13.394  65.424  1.00  0.00    -0.302 C  
HETATM   19  O   UNL     1     -12.623  12.315  65.425  1.00  0.00    -0.572 OA 
HETATM   20  O   UNL     1     -11.234  14.350  64.692  1.00  0.00    -0.377 OA 
BRANCH  14  21
HETATM   21  C   UNL     1     -11.049  11.855  68.554  1.00  0.00    -0.243 C  
BRANCH  21  22
HETATM   22  O   UNL     1     -11.004  10.547  67.997  1.00  0.00    -0.247 OA 
BRANCH  22  23
HETATM   23  P   UNL     1     -10.440   9.357  68.900  1.00  0.00    -0.184 P  
HETATM   24  O   UNL     1      -9.521   8.381  68.245  1.00  0.00    -0.138 OA 
HETATM   25  O   UNL     1      -9.620  10.165  70.023  1.00  0.00    -0.200 OA 
BRANCH  23  26
HETATM   26  O   UNL     1     -11.653   8.769  69.725  1.00  0.00     0.102 OA 
BRANCH  26  27
HETATM   27  P   UNL     1     -11.545   8.134  71.169  1.00  0.00    -0.266 P  
HETATM   28  O   UNL     1     -12.873   7.233  71.261  1.00  0.00    -0.367 OA 
HETATM   29  O   UNL     1     -11.488   9.057  72.338  1.00  0.00    -0.251 OA 
BRANCH  27  30
HETATM   30  O   UNL     1     -10.374   7.039  71.123  1.00  0.00    -0.206 OA 
BRANCH  30  31
HETATM   31  C   UNL     1     -10.670   5.662  70.916  1.00  0.00    -0.243 C  
BRANCH  31  32
HETATM   32  C   UNL     1      -9.468   4.845  70.452  1.00  0.00    -0.167 C  
HETATM   33  O   UNL     1      -9.382   4.807  69.014  1.00  0.00    -0.115 OA 
HETATM   34  C   UNL     1      -8.039   4.353  68.760  1.00  0.00    -0.077 C  
HETATM   35  H   UNL     1      -6.930   5.288  72.475  1.00  0.00     0.000 HD 
HETATM   36  C   UNL     1      -7.164   5.076  69.798  1.00  0.00    -0.055 C  
HETATM   37  C   UNL     1      -8.143   5.439  70.918  1.00  0.00    -0.112 C  
HETATM   38  H   UNL     1      -5.549   4.722  70.942  1.00  0.00     0.000 HD 
HETATM   39  O   UNL     1      -6.089   4.276  70.300  1.00  0.00    -0.017 OA 
HETATM   40  O   UNL     1      -7.756   4.919  72.185  1.00  0.00    -0.090 OA 
BRANCH  34  41
HETATM   41  N   UNL     1      -7.655   4.634  67.392  1.00  0.00    -0.085 NA 
HETATM   42  C   UNL     1      -6.462   5.119  66.934  1.00  0.00    -0.041 A  
HETATM   43  N   UNL     1      -6.442   5.212  65.619  1.00  0.00    -0.035 NA 
HETATM   44  C   UNL     1      -7.693   4.793  65.214  1.00  0.00    -0.086 A  
HETATM   45  C   UNL     1      -8.288   4.650  63.950  1.00  0.00    -0.121 A  
HETATM   46  N   UNL     1      -7.617   4.896  62.761  1.00  0.00    -0.058 NA 
HETATM   47  N   UNL     1      -9.581   4.253  63.887  1.00  0.00    -0.136 NA 
HETATM   48  H1  UNL     1      -8.049   4.791  61.843  1.00  0.00     0.000 HD 
HETATM   49  C   UNL     1     -10.225   3.970  65.040  1.00  0.00    -0.181 A  
HETATM   50  H2  UNL     1      -6.772   4.324  62.765  1.00  0.00     0.000 HD 
HETATM   51  N   UNL     1      -9.746   4.017  66.305  1.00  0.00    -0.200 NA 
HETATM   52  C   UNL     1      -8.473   4.455  66.308  1.00  0.00    -0.112 A  
ENDBRANCH  34  41
ENDBRANCH  31  32
ENDBRANCH  30  31
ENDBRANCH  27  30
ENDBRANCH  26  27
ENDBRANCH  23  26
ENDBRANCH  22  23
ENDBRANCH  21  22
ENDBRANCH  14  21
ENDBRANCH   8  12
ENDBRANCH   4   6
TORSDOF 11
ENDMDL
MODEL      225
REMARK 921   NORMALIZED FREE ENERGY PREDICTED BY IDOCK:   -4.27 KCAL/MOL
REMARK 922        TOTAL FREE ENERGY PREDICTED BY IDOCK:   -9.21 KCAL/MOL
REMARK 923 INTER-LIGAND FREE ENERGY PREDICTED BY IDOCK:   -8.16 KCAL/MOL
REMARK 924 INTRA-LIGAND FREE ENERGY PREDICTED BY IDOCK:   -1.05 KCAL/MOL
REMARK 927      BINDING AFFINITY PREDICTED BY RF-SCORE:    0.00 PKD
ROOT
HETATM    1  N   UNL     1      -8.222  10.004  66.078  1.00  0.00    -0.123 N  
HETATM    2  H1  UNL     1      -7.974   9.080  66.433  1.00  0.00     0.000 HD 
HETATM    3  H2  UNL     1      -8.702  10.087  65.182  1.00  0.00     0.000 HD 
HETATM    4  C   UNL     1      -7.922  11.118  66.782  1.00  0.00    -0.156 C  
HETATM    5  O   UNL     1      -8.221  12.232  66.353  1.00  0.00     0.031 OA 
ENDROOT
BRANCH   4   6
HETATM    6  C   UNL     1      -7.214  10.922  68.067  1.00  0.00    -0.086 C  
HETATM    7  C   UNL     1      -6.907   9.653  68.394  1.00  0.00    -0.061 C  
HETATM    8  N   UNL     1      -6.189   9.302  69.534  1.00  0.00    -0.039 NA 
HETATM    9  C   UNL     1      -6.782  12.071  68.937  1.00  0.00    -0.093 C  
HETATM   10  C   UNL     1      -5.907  10.318  70.455  1.00  0.00    -0.094 C  
HETATM   11  C   UNL     1      -6.161  11.616  70.233  1.00  0.00    -0.128 C  
BRANCH   8  12
HETATM   12  C   UNL     1      -5.574   7.974  69.754  1.00  0.00    -0.023 C  
HETATM   13  O   UNL     1      -5.797   7.160  68.581  1.00  0.00    -0.021 OA 
HETATM   14  C   UNL     1      -7.047   6.458  68.767  1.00  0.00    -0.082 C  
HETATM   15  H   UNL     1      -5.455   5.553  71.996  1.00  0.00     0.000 HD 
HETATM   16  C   UNL     1      -7.301   6.377  70.270  1.00  0.00    -0.089 C  
HETATM   17  H   UNL     1      -7.536   4.961  71.630  1.00  0.00     0.000 HD 
HETATM   18  C   UNL     1      -6.106   7.091  70.894  1.00  0.00    -0.036 C  
HETATM   19  O   UNL     1      -7.378   5.011  70.695  1.00  0.00    -0.061 OA 
HETATM   20  O   UNL     1      -5.126   6.099  71.291  1.00  0.00    -0.016 OA 
BRANCH  14  21
HETATM   21  C   UNL     1      -8.182   7.180  68.024  1.00  0.00    -0.120 C  
BRANCH  21  22
HETATM   22  O   UNL     1      -9.153   7.683  68.933  1.00  0.00    -0.141 OA 
BRANCH  22  23
HETATM   23  P   UNL     1     -10.697   7.520  68.560  1.00  0.00     0.077 P  
HETATM   24  O   UNL     1     -11.059   7.596  67.115  1.00  0.00    -0.173 OA 
HETATM   25  O   UNL     1     -11.003   6.033  69.091  1.00  0.00    -0.328 OA 
BRANCH  23  26
HETATM   26  O   UNL     1     -11.527   8.415  69.563  1.00  0.00     0.183 OA 
BRANCH  26  27
HETATM   27  P   UNL     1     -11.135   9.881  70.010  1.00  0.00    -0.297 P  
HETATM   28  O   UNL     1      -9.688   9.673  70.679  1.00  0.00    -0.257 OA 
HETATM   29  O   UNL     1     -12.031  10.584  70.971  1.00  0.00    -0.343 OA 
BRANCH  27  30
HETATM   30  O   UNL     1     -10.797  10.711  68.679  1.00  0.00    -0.196 OA 
BRANCH  30  31
HETATM   31  C   UNL     1     -11.553  11.865  68.328  1.00  0.00    -0.327 C  
BRANCH  31  32
HETATM   32  C   UNL     1     -11.013  13.154  68.938  1.00  0.00    -0.230 C  
HETATM   33  O   UNL     1     -10.465  14.024  67.929  1.00  0.00    -0.236 OA 
HETATM   34  C   UNL     1     -10.364  15.300  68.590  1.00  0.00    -0.232 C  
HETATM   35  H   UNL     1     -12.906  14.124  71.429  1.00  0.00     0.000 HD 
HETATM   36  C   UNL     1     -11.645  15.423  69.431  1.00  0.00    -0.340 C  
HETATM   37  C   UNL     1     -12.098  13.974  69.628  1.00  0.00    -0.355 C  
HETATM   38  H   UNL     1     -12.237  16.146  71.211  1.00  0.00     0.000 HD 
HETATM   39  O   UNL     1     -11.446  16.070  70.691  1.00  0.00    -0.362 OA 
HETATM   40  O   UNL     1     -12.230  13.614  70.999  1.00  0.00    -0.351 OA 
BRANCH  34  41
HETATM   41  N   UNL     1     -10.210  16.366  67.621  1.00  0.00    -0.265 NA 
HETATM   42  C   UNL     1     -10.863  16.525  66.432  1.00  0.00    -0.042 A  
HETATM   43  N   UNL     1     -10.508  17.638  65.821  1.00  0.00    -0.578 NA 
HETATM   44  C   UNL     1      -9.560  18.209  66.645  1.00  0.00    -0.306 A  
HETATM   45  C   UNL     1      -8.815  19.397  66.563  1.00  0.00    -0.352 A  
HETATM   46  N   UNL     1      -8.964  20.318  65.537  1.00  0.00    -0.401 NA 
HETATM   47  N   UNL     1      -7.905  19.656  67.531  1.00  0.00    -0.267 NA 
HETATM   48  H1  UNL     1      -8.423  21.181  65.477  1.00  0.00     0.000 HD 
HETATM   49  C   UNL     1      -7.789  18.783  68.555  1.00  0.00    -0.336 A  
HETATM   50  H2  UNL     1      -9.951  20.576  65.500  1.00  0.00     0.000 HD 
HETATM   51  N   UNL     1      -8.482  17.641  68.772  1.00  0.00    -0.255 NA 
HETATM   52  C   UNL     1      -9.340  17.416  67.760  1.00  0.00    -0.255 A  
ENDBRANCH  34  41
ENDBRANCH  31  32
ENDBRANCH  30  31
ENDBRANCH  27  30
ENDBRANCH  26  27
ENDBRANCH  23  26
ENDBRANCH  22  23
ENDBRANCH  21  22
ENDBRANCH  14  21
ENDBRANCH   8  12
ENDBRANCH   4   6
TORSDOF 11
ENDMDL
MODEL      226
REMARK 921   NORMALIZED FREE ENERGY PREDICTED BY IDOCK:   -4.21 KCAL/MOL
REMARK 922        TOTAL FREE ENERGY PREDICTED BY IDOCK:   -9.12 KCAL/MOL
REMARK 923 INTER-LIGAND FREE ENERGY PREDICTED BY IDOCK:   -7.78 KCAL/MOL
REMARK 924 INTRA-LIGAND FREE ENERGY PREDICTED BY IDOCK:   -1.34 KCAL/MOL
REMARK 927      BINDING AFFINITY PREDICTED BY RF-SCORE:    0.00 PKD
ROOT
HETATM    1  N   UNL     1      -8.027  14.676  69.869  1.00  0.00    -0.368 N  
HETATM    2  H1  UNL     1      -8.898  14.174  69.694  1.00  0.00     0.000 HD 
HETATM    3  H2  UNL     1      -7.465  14.439  70.687  1.00  0.00     0.000 HD 
HETATM    4  C   UNL     1      -7.609  15.650  69.031  1.00  0.00    -0.187 C  
HETATM    5  O   UNL     1      -6.559  16.255  69.243  1.00  0.00    -0.172 OA 
ENDROOT
BRANCH   4   6
HETATM    6  C   UNL     1      -8.482  15.949  67.872  1.00  0.00    -0.164 C  
HETATM    7  C   UNL     1      -9.479  15.077  67.633  1.00  0.00    -0.195 C  
HETATM    8  N   UNL     1     -10.424  15.244  66.624  1.00  0.00    -0.284 NA 
HETATM    9  C   UNL     1      -8.327  17.195  67.043  1.00  0.00    -0.232 C  
HETATM   10  C   UNL     1     -10.227  16.300  65.726  1.00  0.00    -0.367 C  
HETATM   11  C   UNL     1      -9.272  17.230  65.868  1.00  0.00    -0.005 C  
BRANCH   8  12
HETATM   12  C   UNL     1     -11.692  14.486  66.539  1.00  0.00    -0.368 C  
HETATM   13  O   UNL     1     -11.449  13.126  66.962  1.00  0.00    -0.303 OA 
HETATM   14  C   UNL     1     -11.076  12.364  65.792  1.00  0.00    -0.315 C  
HETATM   15  H   UNL     1     -14.180  13.895  64.449  1.00  0.00     0.000 HD 
HETATM   16  C   UNL     1     -11.649  13.089  64.578  1.00  0.00    -0.360 C  
HETATM   17  H   UNL     1     -12.918  12.694  63.113  1.00  0.00     0.000 HD 
HETATM   18  C   UNL     1     -12.357  14.307  65.165  1.00  0.00    -0.424 C  
HETATM   19  O   UNL     1     -12.562  12.242  63.869  1.00  0.00    -0.591 OA 
HETATM   20  O   UNL     1     -13.768  14.006  65.299  1.00  0.00    -0.258 OA 
BRANCH  14  21
HETATM   21  C   UNL     1      -9.548  12.217  65.713  1.00  0.00    -0.176 C  
BRANCH  21  22
HETATM   22  O   UNL     1      -9.039  11.523  66.845  1.00  0.00    -0.169 OA 
BRANCH  22  23
HETATM   23  P   UNL     1      -8.492  10.037  66.639  1.00  0.00    -0.127 P  
HETATM   24  O   UNL     1      -8.986   9.288  65.448  1.00  0.00    -0.182 OA 
HETATM   25  O   UNL     1      -6.914  10.295  66.469  1.00  0.00    -0.096 OA 
BRANCH  23  26
HETATM   26  O   UNL     1      -8.565   9.304  68.038  1.00  0.00    -0.120 OA 
BRANCH  26  27
HETATM   27  P   UNL     1      -8.008   9.886  69.398  1.00  0.00    -0.166 P  
HETATM   28  O   UNL     1      -9.242   9.676  70.406  1.00  0.00    -0.250 OA 
HETATM   29  O   UNL     1      -7.580  11.314  69.426  1.00  0.00    -0.072 OA 
BRANCH  27  30
HETATM   30  O   UNL     1      -6.915   8.849  69.949  1.00  0.00    -0.047 OA 
BRANCH  30  31
HETATM   31  C   UNL     1      -6.629   7.647  69.243  1.00  0.00    -0.040 C  
BRANCH  31  32
HETATM   32  C   UNL     1      -7.869   6.815  68.931  1.00  0.00    -0.111 C  
HETATM   33  O   UNL     1      -7.731   6.117  67.678  1.00  0.00    -0.095 OA 
HETATM   34  C   UNL     1      -8.769   5.120  67.722  1.00  0.00    -0.103 C  
HETATM   35  H   UNL     1      -9.104   5.524  71.675  1.00  0.00     0.000 HD 
HETATM   36  C   UNL     1      -8.765   4.595  69.167  1.00  0.00    -0.087 C  
HETATM   37  C   UNL     1      -8.121   5.728  69.970  1.00  0.00    -0.108 C  
HETATM   38  H   UNL     1     -10.066   3.967  70.565  1.00  0.00     0.000 HD 
HETATM   39  O   UNL     1     -10.068   4.291  69.672  1.00  0.00    -0.168 OA 
HETATM   40  O   UNL     1      -8.947   6.200  71.028  1.00  0.00    -0.142 OA 
BRANCH  34  41
HETATM   41  N   UNL     1      -8.526   4.086  66.736  1.00  0.00    -0.104 NA 
HETATM   42  C   UNL     1      -8.307   2.754  66.949  1.00  0.00    -0.094 A  
HETATM   43  N   UNL     1      -8.166   2.092  65.817  1.00  0.00    -0.085 NA 
HETATM   44  C   UNL     1      -8.273   3.051  64.830  1.00  0.00    -0.086 A  
HETATM   45  C   UNL     1      -8.225   2.986  63.428  1.00  0.00    -0.085 A  
HETATM   46  N   UNL     1      -8.089   1.797  62.726  1.00  0.00    -0.056 NA 
HETATM   47  N   UNL     1      -8.314   4.139  62.724  1.00  0.00    -0.082 NA 
HETATM   48  H1  UNL     1      -8.054   1.749  61.707  1.00  0.00     0.000 HD 
HETATM   49  C   UNL     1      -8.491   5.294  63.402  1.00  0.00    -0.092 A  
HETATM   50  H2  UNL     1      -8.838   1.175  63.033  1.00  0.00     0.000 HD 
HETATM   51  N   UNL     1      -8.606   5.477  64.738  1.00  0.00    -0.128 NA 
HETATM   52  C   UNL     1      -8.470   4.305  65.385  1.00  0.00    -0.118 A  
ENDBRANCH  34  41
ENDBRANCH  31  32
ENDBRANCH  30  31
ENDBRANCH  27  30
ENDBRANCH  26  27
ENDBRANCH  23  26
ENDBRANCH  22  23
ENDBRANCH  21  22
ENDBRANCH  14  21
ENDBRANCH   8  12
ENDBRANCH   4   6
TORSDOF 11
ENDMDL
MODEL      227
REMARK 921   NORMALIZED FREE ENERGY PREDICTED BY IDOCK:   -4.10 KCAL/MOL
REMARK 922        TOTAL FREE ENERGY PREDICTED BY IDOCK:   -8.94 KCAL/MOL
REMARK 923 INTER-LIGAND FREE ENERGY PREDICTED BY IDOCK:   -8.45 KCAL/MOL
REMARK 924 INTRA-LIGAND FREE ENERGY PREDICTED BY IDOCK:   -0.49 KCAL/MOL
REMARK 927      BINDING AFFINITY PREDICTED BY RF-SCORE:    0.00 PKD
ROOT
HETATM    1  N   UNL     1     -14.411  15.435  70.831  1.00  0.00    -0.853 N  
HETATM    2  H1  UNL     1     -14.272  16.290  70.292  1.00  0.00     0.000 HD 
HETATM    3  H2  UNL     1     -15.347  15.186  71.149  1.00  0.00     0.000 HD 
HETATM    4  C   UNL     1     -13.368  14.628  71.127  1.00  0.00    -0.373 C  
HETATM    5  O   UNL     1     -13.536  13.596  71.777  1.00  0.00    -0.374 OA 
ENDROOT
BRANCH   4   6
HETATM    6  C   UNL     1     -12.036  15.058  70.644  1.00  0.00    -0.375 C  
HETATM    7  C   UNL     1     -11.980  15.531  69.385  1.00  0.00    -0.336 C  
HETATM    8  N   UNL     1     -10.820  16.034  68.801  1.00  0.00    -0.282 NA 
HETATM    9  C   UNL     1     -10.815  15.047  71.522  1.00  0.00     0.218 C  
HETATM   10  C   UNL     1      -9.626  15.896  69.519  1.00  0.00    -0.239 C  
HETATM   11  C   UNL     1      -9.563  15.444  70.780  1.00  0.00     1.246 C  
BRANCH   8  12
HETATM   12  C   UNL     1     -10.796  16.837  67.559  1.00  0.00    -0.216 C  
HETATM   13  O   UNL     1     -10.616  15.947  66.434  1.00  0.00    -0.307 OA 
HETATM   14  C   UNL     1      -9.195  15.810  66.208  1.00  0.00    -0.333 C  
HETATM   15  H   UNL     1      -9.354  19.518  66.278  1.00  0.00     0.000 HD 
HETATM   16  C   UNL     1      -8.521  17.047  66.796  1.00  0.00    -0.234 C  
HETATM   17  H   UNL     1      -7.395  18.537  66.145  1.00  0.00     0.000 HD 
HETATM   18  C   UNL     1      -9.673  17.869  67.366  1.00  0.00    -0.288 C  
HETATM   19  O   UNL     1      -7.815  17.767  65.778  1.00  0.00    -0.541 OA 
HETATM   20  O   UNL     1     -10.048  18.880  66.397  1.00  0.00    -0.360 OA 
BRANCH  14  21
HETATM   21  C   UNL     1      -8.676  14.510  66.842  1.00  0.00    -0.211 C  
BRANCH  21  22
HETATM   22  O   UNL     1      -7.287  14.601  67.137  1.00  0.00    -0.152 OA 
BRANCH  22  23
HETATM   23  P   UNL     1      -6.582  13.360  67.852  1.00  0.00    -0.172 P  
HETATM   24  O   UNL     1      -5.410  12.750  67.159  1.00  0.00    -0.332 OA 
HETATM   25  O   UNL     1      -6.080  14.022  69.229  1.00  0.00    -0.089 OA 
BRANCH  23  26
HETATM   26  O   UNL     1      -7.722  12.382  68.344  1.00  0.00    -0.133 OA 
BRANCH  26  27
HETATM   27  P   UNL     1      -7.784  10.832  68.035  1.00  0.00    -0.107 P  
HETATM   28  O   UNL     1      -7.196  10.179  69.381  1.00  0.00    -0.072 OA 
HETATM   29  O   UNL     1      -7.023  10.321  66.859  1.00  0.00    -0.086 OA 
BRANCH  27  30
HETATM   30  O   UNL     1      -9.328  10.399  68.073  1.00  0.00    -0.138 OA 
BRANCH  30  31
HETATM   31  C   UNL     1     -10.070  10.449  69.287  1.00  0.00    -0.230 C  
BRANCH  31  32
HETATM   32  C   UNL     1     -10.896   9.193  69.547  1.00  0.00    -0.180 C  
HETATM   33  O   UNL     1     -10.111   8.000  69.357  1.00  0.00    -0.187 OA 
HETATM   34  C   UNL     1     -10.889   6.969  69.994  1.00  0.00    -0.261 C  
HETATM   35  H   UNL     1     -12.993   9.690  72.012  1.00  0.00     0.000 HD 
HETATM   36  C   UNL     1     -11.440   7.613  71.277  1.00  0.00    -0.269 C  
HETATM   37  C   UNL     1     -11.405   9.115  70.982  1.00  0.00    -0.309 C  
HETATM   38  H   UNL     1     -13.107   7.588  72.401  1.00  0.00     0.000 HD 
HETATM   39  O   UNL     1     -12.766   7.191  71.608  1.00  0.00    -0.352 OA 
HETATM   40  O   UNL     1     -12.676   9.739  71.119  1.00  0.00    -0.320 OA 
BRANCH  34  41
HETATM   41  N   UNL     1     -10.076   5.797  70.245  1.00  0.00    -0.196 NA 
HETATM   42  C   UNL     1      -9.939   4.683  69.465  1.00  0.00    -0.196 A  
HETATM   43  N   UNL     1      -9.079   3.826  69.978  1.00  0.00    -0.108 NA 
HETATM   44  C   UNL     1      -8.664   4.405  71.160  1.00  0.00    -0.106 A  
HETATM   45  C   UNL     1      -7.753   4.002  72.151  1.00  0.00    -0.075 A  
HETATM   46  N   UNL     1      -7.004   2.837  72.068  1.00  0.00    -0.032 NA 
HETATM   47  N   UNL     1      -7.599   4.787  73.244  1.00  0.00    -0.090 NA 
HETATM   48  H1  UNL     1      -6.343   2.545  72.788  1.00  0.00     0.000 HD 
HETATM   49  C   UNL     1      -8.294   5.944  73.307  1.00  0.00    -0.116 A  
HETATM   50  H2  UNL     1      -6.497   2.865  71.183  1.00  0.00     0.000 HD 
HETATM   51  N   UNL     1      -9.153   6.462  72.399  1.00  0.00    -0.138 NA 
HETATM   52  C   UNL     1      -9.296   5.622  71.358  1.00  0.00    -0.147 A  
ENDBRANCH  34  41
ENDBRANCH  31  32
ENDBRANCH  30  31
ENDBRANCH  27  30
ENDBRANCH  26  27
ENDBRANCH  23  26
ENDBRANCH  22  23
ENDBRANCH  21  22
ENDBRANCH  14  21
ENDBRANCH   8  12
ENDBRANCH   4   6
TORSDOF 11
ENDMDL
MODEL      228
REMARK 921   NORMALIZED FREE ENERGY PREDICTED BY IDOCK:   -4.04 KCAL/MOL
REMARK 922        TOTAL FREE ENERGY PREDICTED BY IDOCK:   -8.84 KCAL/MOL
REMARK 923 INTER-LIGAND FREE ENERGY PREDICTED BY IDOCK:   -8.20 KCAL/MOL
REMARK 924 INTRA-LIGAND FREE ENERGY PREDICTED BY IDOCK:   -0.64 KCAL/MOL
REMARK 927      BINDING AFFINITY PREDICTED BY RF-SCORE:    0.00 PKD
ROOT
HETATM    1  N   UNL     1     -11.351   4.876  65.462  1.00  0.00    -0.942 N  
HETATM    2  H1  UNL     1     -11.105   4.376  64.608  1.00  0.00     0.000 HD 
HETATM    3  H2  UNL     1     -12.323   5.130  65.636  1.00  0.00     0.000 HD 
HETATM    4  C   UNL     1     -10.403   5.206  66.367  1.00  0.00    -0.288 C  
HETATM    5  O   UNL     1     -10.700   5.809  67.398  1.00  0.00    -0.255 OA 
ENDROOT
BRANCH   4   6
HETATM    6  C   UNL     1      -9.011   4.817  66.044  1.00  0.00    -0.126 C  
HETATM    7  C   UNL     1      -8.288   5.710  65.343  1.00  0.00    -0.144 C  
HETATM    8  N   UNL     1      -6.948   5.529  65.012  1.00  0.00    -0.052 NA 
HETATM    9  C   UNL     1      -8.395   3.534  66.529  1.00  0.00    -0.101 C  
HETATM   10  C   UNL     1      -6.377   4.283  65.299  1.00  0.00    -0.035 C  
HETATM   11  C   UNL     1      -7.000   3.322  65.996  1.00  0.00    -0.057 C  
BRANCH   8  12
HETATM   12  C   UNL     1      -6.057   6.607  64.529  1.00  0.00    -0.035 C  
HETATM   13  O   UNL     1      -5.285   7.106  65.645  1.00  0.00    -0.023 OA 
HETATM   14  C   UNL     1      -6.034   8.184  66.248  1.00  0.00    -0.041 C  
HETATM   15  H   UNL     1      -6.140   9.378  62.735  1.00  0.00     0.000 HD 
HETATM   16  C   UNL     1      -6.971   8.739  65.178  1.00  0.00    -0.079 C  
HETATM   17  H   UNL     1      -7.274  10.467  64.266  1.00  0.00     0.000 HD 
HETATM   18  C   UNL     1      -6.687   7.883  63.947  1.00  0.00    -0.062 C  
HETATM   19  O   UNL     1      -6.691  10.122  64.932  1.00  0.00    -0.122 OA 
HETATM   20  O   UNL     1      -5.751   8.589  63.095  1.00  0.00    -0.071 OA 
BRANCH  14  21
HETATM   21  C   UNL     1      -6.798   7.680  67.483  1.00  0.00    -0.069 C  
BRANCH  21  22
HETATM   22  O   UNL     1      -8.120   8.203  67.518  1.00  0.00    -0.119 OA 
BRANCH  22  23
HETATM   23  P   UNL     1      -8.580   9.016  68.814  1.00  0.00    -0.133 P  
HETATM   24  O   UNL     1      -8.704   8.251  70.089  1.00  0.00    -0.129 OA 
HETATM   25  O   UNL     1      -7.386  10.083  68.966  1.00  0.00    -0.074 OA 
BRANCH  23  26
HETATM   26  O   UNL     1      -9.799   9.930  68.396  1.00  0.00    -0.147 OA 
BRANCH  26  27
HETATM   27  P   UNL     1     -10.107  10.414  66.922  1.00  0.00    -0.237 P  
HETATM   28  O   UNL     1     -11.671  10.779  66.989  1.00  0.00    -0.237 OA 
HETATM   29  O   UNL     1      -9.866   9.456  65.806  1.00  0.00    -0.297 OA 
BRANCH  27  30
HETATM   30  O   UNL     1      -9.414  11.848  66.735  1.00  0.00    -0.191 OA 
BRANCH  30  31
HETATM   31  C   UNL     1      -8.650  12.432  67.785  1.00  0.00    -0.172 C  
BRANCH  31  32
HETATM   32  C   UNL     1      -9.173  13.793  68.234  1.00  0.00    -0.204 C  
HETATM   33  O   UNL     1      -8.230  14.841  67.937  1.00  0.00    -0.135 OA 
HETATM   34  C   UNL     1      -9.007  16.048  68.058  1.00  0.00    -0.187 C  
HETATM   35  H   UNL     1     -12.408  13.988  67.766  1.00  0.00     0.000 HD 
HETATM   36  C   UNL     1     -10.369  15.718  67.427  1.00  0.00    -0.282 C  
HETATM   37  C   UNL     1     -10.456  14.192  67.513  1.00  0.00    -0.249 C  
HETATM   38  H   UNL     1     -12.318  16.125  67.706  1.00  0.00     0.000 HD 
HETATM   39  O   UNL     1     -11.476  16.329  68.095  1.00  0.00    -0.309 OA 
HETATM   40  O   UNL     1     -11.609  13.739  68.214  1.00  0.00    -0.295 OA 
BRANCH  34  41
HETATM   41  N   UNL     1      -8.331  17.157  67.415  1.00  0.00    -0.188 NA 
HETATM   42  C   UNL     1      -8.238  17.426  66.079  1.00  0.00    -0.126 A  
HETATM   43  N   UNL     1      -7.584  18.548  65.848  1.00  0.00    -0.484 NA 
HETATM   44  C   UNL     1      -7.215  19.007  67.096  1.00  0.00    -0.208 A  
HETATM   45  C   UNL     1      -6.515  20.147  67.524  1.00  0.00    -0.215 A  
HETATM   46  N   UNL     1      -6.067  21.134  66.659  1.00  0.00    -0.272 NA 
HETATM   47  N   UNL     1      -6.263  20.290  68.847  1.00  0.00    -0.319 NA 
HETATM   48  H1  UNL     1      -5.559  21.962  66.970  1.00  0.00     0.000 HD 
HETATM   49  C   UNL     1      -6.736  19.353  69.697  1.00  0.00    -0.240 A  
HETATM   50  H2  UNL     1      -6.873  21.457  66.123  1.00  0.00     0.000 HD 
HETATM   51  N   UNL     1      -7.463  18.248  69.413  1.00  0.00     0.020 NA 
HETATM   52  C   UNL     1      -7.647  18.138  68.085  1.00  0.00    -0.265 A  
ENDBRANCH  34  41
ENDBRANCH  31  32
ENDBRANCH  30  31
ENDBRANCH  27  30
ENDBRANCH  26  27
ENDBRANCH  23  26
ENDBRANCH  22  23
ENDBRANCH  21  22
ENDBRANCH  14  21
ENDBRANCH   8  12
ENDBRANCH   4   6
TORSDOF 11
ENDMDL
MODEL      229
REMARK 921   NORMALIZED FREE ENERGY PREDICTED BY IDOCK:   -3.98 KCAL/MOL
REMARK 922        TOTAL FREE ENERGY PREDICTED BY IDOCK:   -8.74 KCAL/MOL
REMARK 923 INTER-LIGAND FREE ENERGY PREDICTED BY IDOCK:   -7.97 KCAL/MOL
REMARK 924 INTRA-LIGAND FREE ENERGY PREDICTED BY IDOCK:   -0.76 KCAL/MOL
REMARK 927      BINDING AFFINITY PREDICTED BY RF-SCORE:    0.00 PKD
ROOT
HETATM    1  N   UNL     1      -8.404   8.306  69.950  1.00  0.00    -0.123 N  
HETATM    2  H1  UNL     1      -9.232   7.721  70.060  1.00  0.00     0.000 HD 
HETATM    3  H2  UNL     1      -7.482   7.872  69.909  1.00  0.00     0.000 HD 
HETATM    4  C   UNL     1      -8.514   9.650  69.859  1.00  0.00    -0.198 C  
HETATM    5  O   UNL     1      -7.514  10.355  69.726  1.00  0.00    -0.150 OA 
ENDROOT
BRANCH   4   6
HETATM    6  C   UNL     1      -9.881  10.212  69.940  1.00  0.00    -0.223 C  
HETATM    7  C   UNL     1     -10.181  11.185  69.060  1.00  0.00    -0.176 C  
HETATM    8  N   UNL     1     -11.438  11.776  68.961  1.00  0.00    -0.270 NA 
HETATM    9  C   UNL     1     -10.918   9.686  70.895  1.00  0.00    -0.412 C  
HETATM   10  C   UNL     1     -12.387  11.436  69.932  1.00  0.00    -0.214 C  
HETATM   11  C   UNL     1     -12.200  10.479  70.853  1.00  0.00    -0.490 C  
BRANCH   8  12
HETATM   12  C   UNL     1     -11.880  12.604  67.818  1.00  0.00    -0.323 C  
HETATM   13  O   UNL     1     -12.039  11.752  66.661  1.00  0.00    -0.527 OA 
HETATM   14  C   UNL     1     -10.772  11.717  65.966  1.00  0.00    -0.280 C  
HETATM   15  H   UNL     1     -11.111  15.403  66.243  1.00  0.00     0.000 HD 
HETATM   16  C   UNL     1     -10.012  12.985  66.347  1.00  0.00    -0.277 C  
HETATM   17  H   UNL     1      -9.259  14.561  65.420  1.00  0.00     0.000 HD 
HETATM   18  C   UNL     1     -10.949  13.714  67.304  1.00  0.00    -0.287 C  
HETATM   19  O   UNL     1      -9.732  13.772  65.182  1.00  0.00    -0.139 OA 
HETATM   20  O   UNL     1     -11.687  14.717  66.560  1.00  0.00    -0.369 OA 
BRANCH  14  21
HETATM   21  C   UNL     1      -9.996  10.443  66.334  1.00  0.00    -0.221 C  
BRANCH  21  22
HETATM   22  O   UNL     1      -9.227   9.973  65.233  1.00  0.00    -0.183 OA 
BRANCH  22  23
HETATM   23  P   UNL     1      -7.636   9.952  65.375  1.00  0.00    -0.142 P  
HETATM   24  O   UNL     1      -6.842  10.447  64.213  1.00  0.00    -0.093 OA 
HETATM   25  O   UNL     1      -7.409  10.947  66.617  1.00  0.00    -0.125 OA 
BRANCH  23  26
HETATM   26  O   UNL     1      -7.231   8.552  65.985  1.00  0.00    -0.075 OA 
BRANCH  26  27
HETATM   27  P   UNL     1      -8.047   7.210  65.799  1.00  0.00    -0.140 P  
HETATM   28  O   UNL     1      -8.255   7.139  64.207  1.00  0.00    -0.080 OA 
HETATM   29  O   UNL     1      -9.368   7.093  66.480  1.00  0.00    -0.164 OA 
BRANCH  27  30
HETATM   30  O   UNL     1      -7.038   5.995  66.081  1.00  0.00    -0.064 OA 
BRANCH  30  31
HETATM   31  C   UNL     1      -7.355   4.671  65.666  1.00  0.00    -0.077 C  
BRANCH  31  32
HETATM   32  C   UNL     1      -7.520   3.693  66.825  1.00  0.00    -0.079 C  
HETATM   33  O   UNL     1      -7.139   4.295  68.078  1.00  0.00    -0.058 OA 
HETATM   34  C   UNL     1      -7.701   3.414  69.069  1.00  0.00    -0.051 C  
HETATM   35  H   UNL     1     -10.161   1.811  66.371  1.00  0.00     0.000 HD 
HETATM   36  C   UNL     1      -9.084   3.022  68.525  1.00  0.00    -0.158 C  
HETATM   37  C   UNL     1      -8.967   3.251  67.016  1.00  0.00    -0.159 C  
HETATM   38  H   UNL     1     -10.306   1.427  68.471  1.00  0.00     0.000 HD 
HETATM   39  O   UNL     1      -9.451   1.669  68.808  1.00  0.00    -0.157 OA 
HETATM   40  O   UNL     1      -9.260   2.087  66.252  1.00  0.00    -0.079 OA 
BRANCH  34  41
HETATM   41  N   UNL     1      -7.757   4.068  70.361  1.00  0.00    -0.045 NA 
HETATM   42  C   UNL     1      -6.827   4.039  71.361  1.00  0.00    -0.031 A  
HETATM   43  N   UNL     1      -7.184   4.788  72.386  1.00  0.00    -0.078 NA 
HETATM   44  C   UNL     1      -8.418   5.300  72.038  1.00  0.00    -0.126 A  
HETATM   45  C   UNL     1      -9.308   6.168  72.691  1.00  0.00    -0.146 A  
HETATM   46  N   UNL     1      -9.037   6.754  73.919  1.00  0.00    -0.157 NA 
HETATM   47  N   UNL     1     -10.491   6.448  72.094  1.00  0.00    -0.204 NA 
HETATM   48  H1  UNL     1      -9.684   7.384  74.393  1.00  0.00     0.000 HD 
HETATM   49  C   UNL     1     -10.739   5.916  70.878  1.00  0.00    -0.273 A  
HETATM   50  H2  UNL     1      -8.145   7.242  73.833  1.00  0.00     0.000 HD 
HETATM   51  N   UNL     1      -9.945   5.115  70.130  1.00  0.00    -0.231 NA 
HETATM   52  C   UNL     1      -8.804   4.840  70.790  1.00  0.00    -0.121 A  
ENDBRANCH  34  41
ENDBRANCH  31  32
ENDBRANCH  30  31
ENDBRANCH  27  30
ENDBRANCH  26  27
ENDBRANCH  23  26
ENDBRANCH  22  23
ENDBRANCH  21  22
ENDBRANCH  14  21
ENDBRANCH   8  12
ENDBRANCH   4   6
TORSDOF 11
ENDMDL
MODEL      230
REMARK 921   NORMALIZED FREE ENERGY PREDICTED BY IDOCK:   -3.95 KCAL/MOL
REMARK 922        TOTAL FREE ENERGY PREDICTED BY IDOCK:   -8.69 KCAL/MOL
REMARK 923 INTER-LIGAND FREE ENERGY PREDICTED BY IDOCK:   -8.31 KCAL/MOL
REMARK 924 INTRA-LIGAND FREE ENERGY PREDICTED BY IDOCK:   -0.38 KCAL/MOL
REMARK 927      BINDING AFFINITY PREDICTED BY RF-SCORE:    0.00 PKD
ROOT
HETATM    1  N   UNL     1     -11.830   6.925  69.849  1.00  0.00    -0.631 N  
HETATM    2  H1  UNL     1     -11.258   6.702  69.035  1.00  0.00     0.000 HD 
HETATM    3  H2  UNL     1     -12.647   7.527  69.743  1.00  0.00     0.000 HD 
HETATM    4  C   UNL     1     -11.519   6.433  71.069  1.00  0.00    -0.334 C  
HETATM    5  O   UNL     1     -12.209   6.703  72.052  1.00  0.00    -0.329 OA 
ENDROOT
BRANCH   4   6
HETATM    6  C   UNL     1     -10.313   5.578  71.153  1.00  0.00    -0.300 C  
HETATM    7  C   UNL     1     -10.116   4.719  70.135  1.00  0.00    -0.240 C  
HETATM    8  N   UNL     1      -9.002   3.891  70.028  1.00  0.00    -0.090 NA 
HETATM    9  C   UNL     1      -9.310   5.700  72.267  1.00  0.00    -0.157 C  
HETATM   10  C   UNL     1      -8.123   3.850  71.117  1.00  0.00    -0.064 C  
HETATM   11  C   UNL     1      -8.218   4.662  72.181  1.00  0.00    -0.110 C  
BRANCH   8  12
HETATM   12  C   UNL     1      -8.607   3.184  68.790  1.00  0.00    -0.081 C  
HETATM   13  O   UNL     1      -7.477   3.868  68.204  1.00  0.00    -0.062 OA 
HETATM   14  C   UNL     1      -7.993   4.871  67.301  1.00  0.00    -0.095 C  
HETATM   15  H   UNL     1      -9.917   1.971  66.012  1.00  0.00     0.000 HD 
HETATM   16  C   UNL     1      -9.392   4.427  66.883  1.00  0.00    -0.153 C  
HETATM   17  H   UNL     1     -10.330   3.969  65.203  1.00  0.00     0.000 HD 
HETATM   18  C   UNL     1      -9.609   3.112  67.626  1.00  0.00    -0.051 C  
HETATM   19  O   UNL     1      -9.459   4.245  65.463  1.00  0.00    -0.152 OA 
HETATM   20  O   UNL     1      -9.298   2.015  66.732  1.00  0.00    -0.046 OA 
BRANCH  14  21
HETATM   21  C   UNL     1      -8.001   6.250  67.981  1.00  0.00    -0.108 C  
BRANCH  21  22
HETATM   22  O   UNL     1      -7.819   7.292  67.030  1.00  0.00    -0.108 OA 
BRANCH  22  23
HETATM   23  P   UNL     1      -6.337   7.610  66.528  1.00  0.00    -0.047 P  
HETATM   24  O   UNL     1      -5.349   6.493  66.571  1.00  0.00    -0.012 OA 
HETATM   25  O   UNL     1      -6.596   8.013  64.993  1.00  0.00    -0.051 OA 
BRANCH  23  26
HETATM   26  O   UNL     1      -5.902   8.987  67.170  1.00  0.00    -0.045 OA 
BRANCH  26  27
HETATM   27  P   UNL     1      -6.863  10.219  67.415  1.00  0.00    -0.079 P  
HETATM   28  O   UNL     1      -6.221  11.361  66.484  1.00  0.00    -0.142 OA 
HETATM   29  O   UNL     1      -7.003  10.732  68.808  1.00  0.00    -0.065 OA 
BRANCH  27  30
HETATM   30  O   UNL     1      -8.251   9.895  66.678  1.00  0.00    -0.119 OA 
BRANCH  30  31
HETATM   31  C   UNL     1      -8.751  10.751  65.656  1.00  0.00    -0.190 C  
BRANCH  31  32
HETATM   32  C   UNL     1      -9.550  11.934  66.192  1.00  0.00    -0.234 C  
HETATM   33  O   UNL     1      -8.702  12.871  66.884  1.00  0.00    -0.209 OA 
HETATM   34  C   UNL     1      -9.506  14.062  66.978  1.00  0.00    -0.250 C  
HETATM   35  H   UNL     1     -11.934  12.749  64.099  1.00  0.00     0.000 HD 
HETATM   36  C   UNL     1     -10.225  14.172  65.623  1.00  0.00    -0.339 C  
HETATM   37  C   UNL     1     -10.216  12.740  65.082  1.00  0.00    -0.278 C  
HETATM   38  H   UNL     1     -12.007  14.739  64.884  1.00  0.00     0.000 HD 
HETATM   39  O   UNL     1     -11.563  14.671  65.721  1.00  0.00    -0.351 OA 
HETATM   40  O   UNL     1     -11.519  12.248  64.790  1.00  0.00    -0.313 OA 
BRANCH  34  41
HETATM   41  N   UNL     1      -8.681  15.213  67.283  1.00  0.00    -0.189 NA 
HETATM   42  C   UNL     1      -7.317  15.290  67.304  1.00  0.00    -0.195 A  
HETATM   43  N   UNL     1      -6.898  16.510  67.580  1.00  0.00    -0.134 NA 
HETATM   44  C   UNL     1      -8.050  17.245  67.774  1.00  0.00    -0.198 A  
HETATM   45  C   UNL     1      -8.278  18.597  68.080  1.00  0.00    -0.303 A  
HETATM   46  N   UNL     1      -7.259  19.530  68.210  1.00  0.00    -0.292 NA 
HETATM   47  N   UNL     1      -9.554  19.012  68.260  1.00  0.00    -0.334 NA 
HETATM   48  H1  UNL     1      -7.425  20.512  68.432  1.00  0.00     0.000 HD 
HETATM   49  C   UNL     1     -10.551  18.116  68.090  1.00  0.00    -0.302 A  
HETATM   50  H2  UNL     1      -6.710  19.502  67.350  1.00  0.00     0.000 HD 
HETATM   51  N   UNL     1     -10.461  16.811  67.746  1.00  0.00    -0.325 NA 
HETATM   52  C   UNL     1      -9.172  16.447  67.621  1.00  0.00    -0.199 A  
ENDBRANCH  34  41
ENDBRANCH  31  32
ENDBRANCH  30  31
ENDBRANCH  27  30
ENDBRANCH  26  27
ENDBRANCH  23  26
ENDBRANCH  22  23
ENDBRANCH  21  22
ENDBRANCH  14  21
ENDBRANCH   8  12
ENDBRANCH   4   6
TORSDOF 11
ENDMDL
MODEL      231
REMARK 921   NORMALIZED FREE ENERGY PREDICTED BY IDOCK:   -3.94 KCAL/MOL
REMARK 922        TOTAL FREE ENERGY PREDICTED BY IDOCK:   -8.67 KCAL/MOL
REMARK 923 INTER-LIGAND FREE ENERGY PREDICTED BY IDOCK:   -7.31 KCAL/MOL
REMARK 924 INTRA-LIGAND FREE ENERGY PREDICTED BY IDOCK:   -1.36 KCAL/MOL
REMARK 927      BINDING AFFINITY PREDICTED BY RF-SCORE:    0.00 PKD
ROOT
HETATM    1  N   UNL     1     -12.463   7.477  71.458  1.00  0.00    -0.332 N  
HETATM    2  H1  UNL     1     -12.010   8.346  71.175  1.00  0.00     0.000 HD 
HETATM    3  H2  UNL     1     -13.458   7.345  71.280  1.00  0.00     0.000 HD 
HETATM    4  C   UNL     1     -11.758   6.497  72.066  1.00  0.00    -0.323 C  
HETATM    5  O   UNL     1     -12.304   5.448  72.408  1.00  0.00     0.076 OA 
ENDROOT
BRANCH   4   6
HETATM    6  C   UNL     1     -10.321   6.761  72.306  1.00  0.00    -0.219 C  
HETATM    7  C   UNL     1      -9.528   5.682  72.438  1.00  0.00    -0.143 C  
HETATM    8  N   UNL     1      -8.147   5.754  72.604  1.00  0.00    -0.105 NA 
HETATM    9  C   UNL     1      -9.746   8.151  72.326  1.00  0.00    -0.322 C  
HETATM   10  C   UNL     1      -7.588   7.023  72.792  1.00  0.00    -0.084 C  
HETATM   11  C   UNL     1      -8.279   8.167  72.678  1.00  0.00    -0.227 C  
BRANCH   8  12
HETATM   12  C   UNL     1      -7.228   4.607  72.436  1.00  0.00    -0.080 C  
HETATM   13  O   UNL     1      -6.260   4.933  71.414  1.00  0.00    -0.017 OA 
HETATM   14  C   UNL     1      -6.802   4.506  70.145  1.00  0.00    -0.037 C  
HETATM   15  H   UNL     1      -7.281   1.332  72.011  1.00  0.00     0.000 HD 
HETATM   16  C   UNL     1      -7.819   3.405  70.435  1.00  0.00    -0.043 C  
HETATM   17  H   UNL     1      -8.071   1.499  69.970  1.00  0.00     0.000 HD 
HETATM   18  C   UNL     1      -7.800   3.264  71.954  1.00  0.00    -0.054 C  
HETATM   19  O   UNL     1      -7.437   2.184  69.789  1.00  0.00    -0.043 OA 
HETATM   20  O   UNL     1      -6.927   2.163  72.309  1.00  0.00    -0.022 OA 
BRANCH  14  21
HETATM   21  C   UNL     1      -7.431   5.696  69.404  1.00  0.00    -0.075 C  
BRANCH  21  22
HETATM   22  O   UNL     1      -8.742   5.383  68.948  1.00  0.00    -0.098 OA 
BRANCH  22  23
HETATM   23  P   UNL     1      -9.670   6.576  68.432  1.00  0.00    -0.138 P  
HETATM   24  O   UNL     1     -11.122   6.502  68.765  1.00  0.00    -0.297 OA 
HETATM   25  O   UNL     1      -9.028   7.837  69.196  1.00  0.00    -0.145 OA 
BRANCH  23  26
HETATM   26  O   UNL     1      -9.285   6.862  66.926  1.00  0.00    -0.134 OA 
BRANCH  26  27
HETATM   27  P   UNL     1      -8.615   8.193  66.397  1.00  0.00    -0.155 P  
HETATM   28  O   UNL     1      -9.121   8.263  64.873  1.00  0.00     0.129 OA 
HETATM   29  O   UNL     1      -7.128   8.291  66.434  1.00  0.00    -0.069 OA 
BRANCH  27  30
HETATM   30  O   UNL     1      -9.384   9.420  67.086  1.00  0.00    -0.135 OA 
BRANCH  30  31
HETATM   31  C   UNL     1      -9.555  10.654  66.396  1.00  0.00    -0.190 C  
BRANCH  31  32
HETATM   32  C   UNL     1      -8.520  11.709  66.772  1.00  0.00    -0.177 C  
HETATM   33  O   UNL     1      -8.885  13.007  66.265  1.00  0.00    -0.004 OA 
HETATM   34  C   UNL     1      -8.049  13.916  67.007  1.00  0.00     0.008 C  
HETATM   35  H   UNL     1      -7.330  11.130  69.768  1.00  0.00     0.000 HD 
HETATM   36  C   UNL     1      -8.035  13.370  68.444  1.00  0.00    -0.139 C  
HETATM   37  C   UNL     1      -8.392  11.890  68.281  1.00  0.00    -0.159 C  
HETATM   38  H   UNL     1      -6.765  13.182  69.991  1.00  0.00     0.000 HD 
HETATM   39  O   UNL     1      -6.774  13.520  69.103  1.00  0.00    -0.106 OA 
HETATM   40  O   UNL     1      -7.410  11.018  68.829  1.00  0.00    -0.094 OA 
BRANCH  34  41
HETATM   41  N   UNL     1      -8.558  15.269  66.913  1.00  0.00    -0.239 NA 
HETATM   42  C   UNL     1      -8.156  16.371  67.616  1.00  0.00    -0.156 A  
HETATM   43  N   UNL     1      -8.807  17.455  67.243  1.00  0.00    -0.228 NA 
HETATM   44  C   UNL     1      -9.690  17.024  66.273  1.00  0.00    -0.283 A  
HETATM   45  C   UNL     1     -10.641  17.691  65.485  1.00  0.00    -0.068 A  
HETATM   46  N   UNL     1     -10.840  19.064  65.531  1.00  0.00    -0.468 NA 
HETATM   47  N   UNL     1     -11.405  16.961  64.638  1.00  0.00    -0.865 NA 
HETATM   48  H1  UNL     1     -11.531  19.548  64.958  1.00  0.00     0.000 HD 
HETATM   49  C   UNL     1     -11.184  15.631  64.557  1.00  0.00    -0.325 A  
HETATM   50  H2  UNL     1      -9.937  19.507  65.358  1.00  0.00     0.000 HD 
HETATM   51  N   UNL     1     -10.268  14.887  65.220  1.00  0.00    -0.370 NA 
HETATM   52  C   UNL     1      -9.568  15.658  66.073  1.00  0.00    -0.351 A  
ENDBRANCH  34  41
ENDBRANCH  31  32
ENDBRANCH  30  31
ENDBRANCH  27  30
ENDBRANCH  26  27
ENDBRANCH  23  26
ENDBRANCH  22  23
ENDBRANCH  21  22
ENDBRANCH  14  21
ENDBRANCH   8  12
ENDBRANCH   4   6
TORSDOF 11
ENDMDL
MODEL      232
REMARK 921   NORMALIZED FREE ENERGY PREDICTED BY IDOCK:   -3.92 KCAL/MOL
REMARK 922        TOTAL FREE ENERGY PREDICTED BY IDOCK:   -8.65 KCAL/MOL
REMARK 923 INTER-LIGAND FREE ENERGY PREDICTED BY IDOCK:   -8.38 KCAL/MOL
REMARK 924 INTRA-LIGAND FREE ENERGY PREDICTED BY IDOCK:   -0.27 KCAL/MOL
REMARK 927      BINDING AFFINITY PREDICTED BY RF-SCORE:    0.00 PKD
ROOT
HETATM    1  N   UNL     1      -9.830  19.365  68.717  1.00  0.00    -0.438 N  
HETATM    2  H1  UNL     1     -10.681  18.994  68.293  1.00  0.00     0.000 HD 
HETATM    3  H2  UNL     1      -9.865  20.247  69.228  1.00  0.00     0.000 HD 
HETATM    4  C   UNL     1      -8.658  18.703  68.607  1.00  0.00    -0.307 C  
HETATM    5  O   UNL     1      -7.631  19.151  69.118  1.00  0.00    -0.322 OA 
ENDROOT
BRANCH   4   6
HETATM    6  C   UNL     1      -8.678  17.437  67.839  1.00  0.00    -0.237 C  
HETATM    7  C   UNL     1      -9.882  17.017  67.409  1.00  0.00    -0.262 C  
HETATM    8  N   UNL     1     -10.068  15.883  66.622  1.00  0.00    -0.269 NA 
HETATM    9  C   UNL     1      -7.424  16.686  67.483  1.00  0.00    -0.176 C  
HETATM   10  C   UNL     1      -8.955  15.064  66.400  1.00  0.00    -0.251 C  
HETATM   11  C   UNL     1      -7.709  15.384  66.778  1.00  0.00    -0.045 C  
BRANCH   8  12
HETATM   12  C   UNL     1     -11.314  15.580  65.883  1.00  0.00    -0.028 C  
HETATM   13  O   UNL     1     -12.060  14.585  66.620  1.00  0.00    -0.393 OA 
HETATM   14  C   UNL     1     -11.632  13.285  66.156  1.00  0.00    -0.348 C  
HETATM   15  H   UNL     1     -12.359  14.804  62.848  1.00  0.00     0.000 HD 
HETATM   16  C   UNL     1     -11.067  13.469  64.750  1.00  0.00    -0.359 C  
HETATM   17  H   UNL     1     -11.457  12.805  62.928  1.00  0.00     0.000 HD 
HETATM   18  C   UNL     1     -11.210  14.964  64.479  1.00  0.00    -0.264 C  
HETATM   19  O   UNL     1     -11.809  12.690  63.804  1.00  0.00    -0.413 OA 
HETATM   20  O   UNL     1     -12.422  15.185  63.716  1.00  0.00    -0.719 OA 
BRANCH  14  21
HETATM   21  C   UNL     1     -10.598  12.685  67.123  1.00  0.00    -0.236 C  
BRANCH  21  22
HETATM   22  O   UNL     1     -11.160  12.480  68.413  1.00  0.00    -0.228 OA 
BRANCH  22  23
HETATM   23  P   UNL     1     -11.628  11.006  68.810  1.00  0.00    -0.276 P  
HETATM   24  O   UNL     1     -13.029  10.843  69.297  1.00  0.00    -0.038 OA 
HETATM   25  O   UNL     1     -11.476  10.231  67.409  1.00  0.00    -0.290 OA 
BRANCH  23  26
HETATM   26  O   UNL     1     -10.479  10.359  69.680  1.00  0.00    -0.231 OA 
BRANCH  26  27
HETATM   27  P   UNL     1      -9.134   9.756  69.106  1.00  0.00    -0.188 P  
HETATM   28  O   UNL     1      -8.321   9.371  70.437  1.00  0.00    -0.174 OA 
HETATM   29  O   UNL     1      -8.290  10.627  68.240  1.00  0.00    -0.113 OA 
BRANCH  27  30
HETATM   30  O   UNL     1      -9.485   8.323  68.475  1.00  0.00    -0.145 OA 
BRANCH  30  31
HETATM   31  C   UNL     1      -8.738   7.806  67.379  1.00  0.00    -0.128 C  
BRANCH  31  32
HETATM   32  C   UNL     1      -8.078   6.463  67.674  1.00  0.00    -0.114 C  
HETATM   33  O   UNL     1      -8.345   6.031  69.023  1.00  0.00    -0.109 OA 
HETATM   34  C   UNL     1      -8.000   4.633  69.014  1.00  0.00    -0.071 C  
HETATM   35  H   UNL     1      -8.176   4.531  65.031  1.00  0.00     0.000 HD 
HETATM   36  C   UNL     1      -8.519   4.098  67.669  1.00  0.00    -0.098 C  
HETATM   37  C   UNL     1      -8.607   5.343  66.784  1.00  0.00    -0.110 C  
HETATM   38  H   UNL     1      -7.991   2.780  66.246  1.00  0.00     0.000 HD 
HETATM   39  O   UNL     1      -7.670   3.111  67.077  1.00  0.00    -0.074 OA 
HETATM   40  O   UNL     1      -7.847   5.228  65.586  1.00  0.00    -0.096 OA 
BRANCH  34  41
HETATM   41  N   UNL     1      -8.574   3.958  70.160  1.00  0.00    -0.063 NA 
HETATM   42  C   UNL     1      -9.627   3.088  70.185  1.00  0.00    -0.084 A  
HETATM   43  N   UNL     1      -9.854   2.625  71.399  1.00  0.00    -0.143 NA 
HETATM   44  C   UNL     1      -8.918   3.251  72.197  1.00  0.00    -0.099 A  
HETATM   45  C   UNL     1      -8.632   3.175  73.570  1.00  0.00    -0.074 A  
HETATM   46  N   UNL     1      -9.299   2.323  74.440  1.00  0.00    -0.076 NA 
HETATM   47  N   UNL     1      -7.660   3.972  74.072  1.00  0.00    -0.078 NA 
HETATM   48  H1  UNL     1      -9.091   2.268  75.437  1.00  0.00     0.000 HD 
HETATM   49  C   UNL     1      -6.979   4.769  73.221  1.00  0.00    -0.074 A  
HETATM   50  H2  UNL     1      -9.220   1.379  74.061  1.00  0.00     0.000 HD 
HETATM   51  N   UNL     1      -7.124   4.891  71.881  1.00  0.00    -0.060 NA 
HETATM   52  C   UNL     1      -8.128   4.107  71.447  1.00  0.00    -0.077 A  
ENDBRANCH  34  41
ENDBRANCH  31  32
ENDBRANCH  30  31
ENDBRANCH  27  30
ENDBRANCH  26  27
ENDBRANCH  23  26
ENDBRANCH  22  23
ENDBRANCH  21  22
ENDBRANCH  14  21
ENDBRANCH   8  12
ENDBRANCH   4   6
TORSDOF 11
ENDMDL
MODEL      233
REMARK 921   NORMALIZED FREE ENERGY PREDICTED BY IDOCK:   -3.92 KCAL/MOL
REMARK 922        TOTAL FREE ENERGY PREDICTED BY IDOCK:   -8.65 KCAL/MOL
REMARK 923 INTER-LIGAND FREE ENERGY PREDICTED BY IDOCK:   -6.56 KCAL/MOL
REMARK 924 INTRA-LIGAND FREE ENERGY PREDICTED BY IDOCK:   -2.08 KCAL/MOL
REMARK 927      BINDING AFFINITY PREDICTED BY RF-SCORE:    0.00 PKD
ROOT
HETATM    1  N   UNL     1     -11.501  15.122  63.749  1.00  0.00    -0.301 N  
HETATM    2  H1  UNL     1     -11.189  16.021  64.119  1.00  0.00     0.000 HD 
HETATM    3  H2  UNL     1     -11.938  15.080  62.829  1.00  0.00     0.000 HD 
HETATM    4  C   UNL     1     -11.340  13.987  64.465  1.00  0.00    -0.358 C  
HETATM    5  O   UNL     1     -11.716  12.903  64.019  1.00  0.00    -0.373 OA 
ENDROOT
BRANCH   4   6
HETATM    6  C   UNL     1     -10.710  14.125  65.798  1.00  0.00    -0.301 C  
HETATM    7  C   UNL     1      -9.633  13.353  66.033  1.00  0.00    -0.159 C  
HETATM    8  N   UNL     1      -8.888  13.405  67.209  1.00  0.00    -0.211 NA 
HETATM    9  C   UNL     1     -11.185  15.122  66.819  1.00  0.00    -0.285 C  
HETATM   10  C   UNL     1      -9.384  14.198  68.250  1.00  0.00    -0.203 C  
HETATM   11  C   UNL     1     -10.444  15.010  68.128  1.00  0.00    -0.245 C  
BRANCH   8  12
HETATM   12  C   UNL     1      -7.542  12.812  67.367  1.00  0.00    -0.152 C  
HETATM   13  O   UNL     1      -7.565  11.464  66.846  1.00  0.00    -0.139 OA 
HETATM   14  C   UNL     1      -7.928  10.582  67.932  1.00  0.00    -0.106 C  
HETATM   15  H   UNL     1      -5.181  12.403  69.640  1.00  0.00     0.000 HD 
HETATM   16  C   UNL     1      -7.561  11.290  69.233  1.00  0.00    -0.019 C  
HETATM   17  H   UNL     1      -6.377  10.962  70.783  1.00  0.00     0.000 HD 
HETATM   18  C   UNL     1      -6.976  12.626  68.784  1.00  0.00    -0.096 C  
HETATM   19  O   UNL     1      -6.606  10.520  69.973  1.00  0.00    -0.113 OA 
HETATM   20  O   UNL     1      -5.531  12.519  68.764  1.00  0.00    -0.057 OA 
BRANCH  14  21
HETATM   21  C   UNL     1      -9.424  10.236  67.862  1.00  0.00    -0.141 C  
BRANCH  21  22
HETATM   22  O   UNL     1      -9.767   9.244  68.821  1.00  0.00    -0.153 OA 
BRANCH  22  23
HETATM   23  P   UNL     1     -10.232   7.809  68.295  1.00  0.00    -0.185 P  
HETATM   24  O   UNL     1     -11.374   7.161  69.004  1.00  0.00     0.007 OA 
HETATM   25  O   UNL     1     -10.684   8.149  66.790  1.00  0.00    -0.278 OA 
BRANCH  23  26
HETATM   26  O   UNL     1      -8.932   6.940  68.070  1.00  0.00    -0.123 OA 
BRANCH  26  27
HETATM   27  P   UNL     1      -8.905   5.499  67.420  1.00  0.00    -0.103 P  
HETATM   28  O   UNL     1      -8.414   5.795  65.919  1.00  0.00    -0.127 OA 
HETATM   29  O   UNL     1     -10.177   4.723  67.384  1.00  0.00    -0.154 OA 
BRANCH  27  30
HETATM   30  O   UNL     1      -7.659   4.712  68.055  1.00  0.00    -0.076 OA 
BRANCH  30  31
HETATM   31  C   UNL     1      -7.719   3.307  68.275  1.00  0.00    -0.059 C  
BRANCH  31  32
HETATM   32  C   UNL     1      -7.712   2.923  69.752  1.00  0.00    -0.043 C  
HETATM   33  O   UNL     1      -7.056   3.925  70.552  1.00  0.00    -0.037 OA 
HETATM   34  C   UNL     1      -7.465   3.615  71.898  1.00  0.00    -0.056 C  
HETATM   35  H   UNL     1     -10.502   1.408  70.554  1.00  0.00     0.000 HD 
HETATM   36  C   UNL     1      -8.950   3.232  71.791  1.00  0.00    -0.097 C  
HETATM   37  C   UNL     1      -9.117   2.804  70.331  1.00  0.00    -0.114 C  
HETATM   38  H   UNL     1     -10.254   1.941  72.612  1.00  0.00     0.000 HD 
HETATM   39  O   UNL     1      -9.337   2.178  72.678  1.00  0.00    -0.077 OA 
HETATM   40  O   UNL     1      -9.627   1.482  70.194  1.00  0.00    -0.098 OA 
BRANCH  34  41
HETATM   41  N   UNL     1      -7.225   4.741  72.777  1.00  0.00    -0.077 NA 
HETATM   42  C   UNL     1      -6.622   4.740  74.003  1.00  0.00    -0.067 A  
HETATM   43  N   UNL     1      -6.530   5.955  74.507  1.00  0.00    -0.074 NA 
HETATM   44  C   UNL     1      -7.130   6.774  73.571  1.00  0.00    -0.075 A  
HETATM   45  C   UNL     1      -7.339   8.161  73.513  1.00  0.00    -0.145 A  
HETATM   46  N   UNL     1      -6.884   9.041  74.483  1.00  0.00    -0.388 NA 
HETATM   47  N   UNL     1      -8.021   8.667  72.457  1.00  0.00    -0.370 NA 
HETATM   48  H1  UNL     1      -7.036  10.049  74.441  1.00  0.00     0.000 HD 
HETATM   49  C   UNL     1      -8.427   7.819  71.488  1.00  0.00    -0.117 A  
HETATM   50  H2  UNL     1      -5.879   8.890  74.583  1.00  0.00     0.000 HD 
HETATM   51  N   UNL     1      -8.240   6.481  71.406  1.00  0.00    -0.119 NA 
HETATM   52  C   UNL     1      -7.595   6.031  72.498  1.00  0.00    -0.099 A  
ENDBRANCH  34  41
ENDBRANCH  31  32
ENDBRANCH  30  31
ENDBRANCH  27  30
ENDBRANCH  26  27
ENDBRANCH  23  26
ENDBRANCH  22  23
ENDBRANCH  21  22
ENDBRANCH  14  21
ENDBRANCH   8  12
ENDBRANCH   4   6
TORSDOF 11
ENDMDL
MODEL      234
REMARK 921   NORMALIZED FREE ENERGY PREDICTED BY IDOCK:   -3.91 KCAL/MOL
REMARK 922        TOTAL FREE ENERGY PREDICTED BY IDOCK:   -8.62 KCAL/MOL
REMARK 923 INTER-LIGAND FREE ENERGY PREDICTED BY IDOCK:   -8.34 KCAL/MOL
REMARK 924 INTRA-LIGAND FREE ENERGY PREDICTED BY IDOCK:   -0.28 KCAL/MOL
REMARK 927      BINDING AFFINITY PREDICTED BY RF-SCORE:    0.00 PKD
ROOT
HETATM    1  N   UNL     1     -14.407  15.334  71.177  1.00  0.00    -0.788 N  
HETATM    2  H1  UNL     1     -14.299  16.320  70.936  1.00  0.00     0.000 HD 
HETATM    3  H2  UNL     1     -15.308  14.993  71.512  1.00  0.00     0.000 HD 
HETATM    4  C   UNL     1     -13.370  14.476  71.057  1.00  0.00    -0.327 C  
HETATM    5  O   UNL     1     -13.500  13.287  71.348  1.00  0.00    -0.230 OA 
ENDROOT
BRANCH   4   6
HETATM    6  C   UNL     1     -12.089  15.043  70.578  1.00  0.00    -0.379 C  
HETATM    7  C   UNL     1     -12.115  15.653  69.379  1.00  0.00    -0.266 C  
HETATM    8  N   UNL     1     -11.015  16.291  68.813  1.00  0.00    -0.323 NA 
HETATM    9  C   UNL     1     -10.832  15.017  71.405  1.00  0.00     0.137 C  
HETATM   10  C   UNL     1      -9.785  16.155  69.468  1.00  0.00    -0.179 C  
HETATM   11  C   UNL     1      -9.640  15.574  70.667  1.00  0.00     1.056 C  
BRANCH   8  12
HETATM   12  C   UNL     1     -11.093  17.225  67.668  1.00  0.00    -0.002 C  
HETATM   13  O   UNL     1     -11.035  16.462  66.442  1.00  0.00    -0.137 OA 
HETATM   14  C   UNL     1      -9.645  16.339  66.068  1.00  0.00    -0.337 C  
HETATM   15  H   UNL     1      -9.732  20.019  66.551  1.00  0.00     0.000 HD 
HETATM   16  C   UNL     1      -8.897  17.500  66.719  1.00  0.00    -0.256 C  
HETATM   17  H   UNL     1      -7.812  19.044  66.127  1.00  0.00     0.000 HD 
HETATM   18  C   UNL     1      -9.976  18.264  67.481  1.00  0.00    -0.335 C  
HETATM   19  O   UNL     1      -8.277  18.322  65.722  1.00  0.00    -0.503 OA 
HETATM   20  O   UNL     1     -10.423  19.376  66.667  1.00  0.00    -0.404 OA 
BRANCH  14  21
HETATM   21  C   UNL     1      -9.091  14.974  66.506  1.00  0.00    -0.286 C  
BRANCH  21  22
HETATM   22  O   UNL     1      -7.751  15.088  66.969  1.00  0.00    -0.198 OA 
BRANCH  22  23
HETATM   23  P   UNL     1      -7.111  13.849  67.747  1.00  0.00    -0.176 P  
HETATM   24  O   UNL     1      -6.136  13.004  66.998  1.00  0.00    -0.245 OA 
HETATM   25  O   UNL     1      -6.337  14.588  68.949  1.00  0.00    -0.084 OA 
BRANCH  23  26
HETATM   26  O   UNL     1      -8.281  13.106  68.506  1.00  0.00    -0.145 OA 
BRANCH  26  27
HETATM   27  P   UNL     1      -8.798  11.649  68.173  1.00  0.00    -0.166 P  
HETATM   28  O   UNL     1      -8.451  10.835  69.514  1.00  0.00    -0.059 OA 
HETATM   29  O   UNL     1      -8.206  10.948  66.998  1.00  0.00    -0.126 OA 
BRANCH  27  30
HETATM   30  O   UNL     1     -10.401  11.696  68.187  1.00  0.00    -0.182 OA 
BRANCH  30  31
HETATM   31  C   UNL     1     -11.166  10.497  68.243  1.00  0.00    -0.291 C  
BRANCH  31  32
HETATM   32  C   UNL     1     -10.326   9.252  68.511  1.00  0.00    -0.209 C  
HETATM   33  O   UNL     1     -10.575   8.725  69.829  1.00  0.00    -0.220 OA 
HETATM   34  C   UNL     1     -10.027   7.394  69.777  1.00  0.00    -0.188 C  
HETATM   35  H   UNL     1     -10.041   7.452  65.790  1.00  0.00     0.000 HD 
HETATM   36  C   UNL     1     -10.412   6.851  68.391  1.00  0.00    -0.204 C  
HETATM   37  C   UNL     1     -10.650   8.110  67.554  1.00  0.00    -0.221 C  
HETATM   38  H   UNL     1      -9.643   5.692  66.940  1.00  0.00     0.000 HD 
HETATM   39  O   UNL     1      -9.405   6.027  67.796  1.00  0.00    -0.109 OA 
HETATM   40  O   UNL     1      -9.839   8.164  66.386  1.00  0.00    -0.236 OA 
BRANCH  34  41
HETATM   41  N   UNL     1     -10.536   6.589  70.869  1.00  0.00    -0.218 NA 
HETATM   42  C   UNL     1     -11.775   6.634  71.443  1.00  0.00    -0.324 A  
HETATM   43  N   UNL     1     -11.913   5.725  72.387  1.00  0.00    -0.208 NA 
HETATM   44  C   UNL     1     -10.693   5.082  72.443  1.00  0.00    -0.200 A  
HETATM   45  C   UNL     1     -10.208   4.022  73.225  1.00  0.00    -0.148 A  
HETATM   46  N   UNL     1     -10.986   3.340  74.150  1.00  0.00    -0.139 NA 
HETATM   47  N   UNL     1      -8.916   3.645  73.073  1.00  0.00    -0.096 NA 
HETATM   48  H1  UNL     1     -10.634   2.570  74.718  1.00  0.00     0.000 HD 
HETATM   49  C   UNL     1      -8.168   4.276  72.142  1.00  0.00    -0.102 A  
HETATM   50  H2  UNL     1     -11.814   3.001  73.658  1.00  0.00     0.000 HD 
HETATM   51  N   UNL     1      -8.534   5.268  71.297  1.00  0.00    -0.123 NA 
HETATM   52  C   UNL     1      -9.812   5.626  71.522  1.00  0.00    -0.168 A  
ENDBRANCH  34  41
ENDBRANCH  31  32
ENDBRANCH  30  31
ENDBRANCH  27  30
ENDBRANCH  26  27
ENDBRANCH  23  26
ENDBRANCH  22  23
ENDBRANCH  21  22
ENDBRANCH  14  21
ENDBRANCH   8  12
ENDBRANCH   4   6
TORSDOF 11
ENDMDL
MODEL      235
REMARK 921   NORMALIZED FREE ENERGY PREDICTED BY IDOCK:   -3.87 KCAL/MOL
REMARK 922        TOTAL FREE ENERGY PREDICTED BY IDOCK:   -8.56 KCAL/MOL
REMARK 923 INTER-LIGAND FREE ENERGY PREDICTED BY IDOCK:   -8.36 KCAL/MOL
REMARK 924 INTRA-LIGAND FREE ENERGY PREDICTED BY IDOCK:   -0.20 KCAL/MOL
REMARK 927      BINDING AFFINITY PREDICTED BY RF-SCORE:    0.00 PKD
ROOT
HETATM    1  N   UNL     1      -7.322   1.610  69.295  1.00  0.00    -0.039 N  
HETATM    2  H1  UNL     1      -8.307   1.502  69.537  1.00  0.00     0.000 HD 
HETATM    3  H2  UNL     1      -6.610   1.143  69.857  1.00  0.00     0.000 HD 
HETATM    4  C   UNL     1      -6.948   2.364  68.237  1.00  0.00    -0.047 C  
HETATM    5  O   UNL     1      -5.760   2.494  67.946  1.00  0.00    -0.018 OA 
ENDROOT
BRANCH   4   6
HETATM    6  C   UNL     1      -8.033   3.023  67.474  1.00  0.00    -0.076 C  
HETATM    7  C   UNL     1      -8.722   3.981  68.121  1.00  0.00    -0.101 C  
HETATM    8  N   UNL     1      -9.729   4.740  67.529  1.00  0.00    -0.165 NA 
HETATM    9  C   UNL     1      -8.314   2.708  66.031  1.00  0.00    -0.092 C  
HETATM   10  C   UNL     1     -10.137   4.375  66.241  1.00  0.00    -0.225 C  
HETATM   11  C   UNL     1      -9.521   3.441  65.502  1.00  0.00    -0.127 C  
BRANCH   8  12
HETATM   12  C   UNL     1     -10.275   5.989  68.104  1.00  0.00    -0.178 C  
HETATM   13  O   UNL     1     -10.328   6.993  67.065  1.00  0.00    -0.233 OA 
HETATM   14  C   UNL     1      -9.069   7.703  67.078  1.00  0.00    -0.135 C  
HETATM   15  H   UNL     1      -9.870   8.003  70.690  1.00  0.00     0.000 HD 
HETATM   16  C   UNL     1      -8.474   7.544  68.474  1.00  0.00    -0.129 C  
HETATM   17  H   UNL     1      -7.929   8.725  69.964  1.00  0.00     0.000 HD 
HETATM   18  C   UNL     1      -9.493   6.693  69.225  1.00  0.00    -0.141 C  
HETATM   19  O   UNL     1      -8.299   8.824  69.095  1.00  0.00    -0.121 OA 
HETATM   20  O   UNL     1     -10.353   7.568  69.997  1.00  0.00    -0.211 OA 
BRANCH  14  21
HETATM   21  C   UNL     1      -8.137   7.156  65.984  1.00  0.00    -0.115 C  
BRANCH  21  22
HETATM   22  O   UNL     1      -7.928   8.120  64.959  1.00  0.00    -0.122 OA 
BRANCH  22  23
HETATM   23  P   UNL     1      -8.248   9.650  65.281  1.00  0.00    -0.149 P  
HETATM   24  O   UNL     1      -7.424  10.313  66.333  1.00  0.00    -0.103 OA 
HETATM   25  O   UNL     1      -7.939  10.350  63.866  1.00  0.00    -0.147 OA 
BRANCH  23  26
HETATM   26  O   UNL     1      -9.818   9.795  65.393  1.00  0.00    -0.306 OA 
BRANCH  26  27
HETATM   27  P   UNL     1     -10.588  11.151  65.656  1.00  0.00    -0.137 P  
HETATM   28  O   UNL     1     -11.608  10.758  66.834  1.00  0.00    -0.255 OA 
HETATM   29  O   UNL     1     -11.345  11.758  64.524  1.00  0.00    -0.322 OA 
BRANCH  27  30
HETATM   30  O   UNL     1      -9.565  12.147  66.387  1.00  0.00    -0.224 OA 
BRANCH  30  31
HETATM   31  C   UNL     1      -9.660  13.555  66.203  1.00  0.00    -0.204 C  
BRANCH  31  32
HETATM   32  C   UNL     1      -9.721  14.336  67.512  1.00  0.00    -0.223 C  
HETATM   33  O   UNL     1      -8.838  15.475  67.486  1.00  0.00    -0.175 OA 
HETATM   34  C   UNL     1      -9.288  16.286  68.588  1.00  0.00    -0.219 C  
HETATM   35  H   UNL     1     -12.776  14.355  68.694  1.00  0.00     0.000 HD 
HETATM   36  C   UNL     1     -10.823  16.208  68.547  1.00  0.00    -0.313 C  
HETATM   37  C   UNL     1     -11.107  14.911  67.786  1.00  0.00    -0.309 C  
HETATM   38  H   UNL     1     -12.380  16.134  69.816  1.00  0.00     0.000 HD 
HETATM   39  O   UNL     1     -11.432  16.182  69.841  1.00  0.00    -0.324 OA 
HETATM   40  O   UNL     1     -11.913  13.998  68.523  1.00  0.00    -0.349 OA 
BRANCH  34  41
HETATM   41  N   UNL     1      -8.780  17.638  68.467  1.00  0.00    -0.286 NA 
HETATM   42  C   UNL     1      -8.994  18.696  69.305  1.00  0.00     0.183 A  
HETATM   43  N   UNL     1      -8.339  19.772  68.914  1.00  0.00    -0.198 NA 
HETATM   44  C   UNL     1      -7.695  19.393  67.753  1.00  0.00    -0.277 A  
HETATM   45  C   UNL     1      -6.839  20.074  66.872  1.00  0.00    -0.218 A  
HETATM   46  N   UNL     1      -6.417  21.380  67.078  1.00  0.00    -0.598 NA 
HETATM   47  N   UNL     1      -6.402  19.426  65.767  1.00  0.00    -0.206 NA 
HETATM   48  H1  UNL     1      -5.795  21.874  66.438  1.00  0.00     0.000 HD 
HETATM   49  C   UNL     1      -6.774  18.140  65.586  1.00  0.00    -0.230 A  
HETATM   50  H2  UNL     1      -5.994  21.420  68.006  1.00  0.00     0.000 HD 
HETATM   51  N   UNL     1      -7.546  17.366  66.384  1.00  0.00    -0.280 NA 
HETATM   52  C   UNL     1      -7.981  18.074  67.443  1.00  0.00    -0.221 A  
ENDBRANCH  34  41
ENDBRANCH  31  32
ENDBRANCH  30  31
ENDBRANCH  27  30
ENDBRANCH  26  27
ENDBRANCH  23  26
ENDBRANCH  22  23
ENDBRANCH  21  22
ENDBRANCH  14  21
ENDBRANCH   8  12
ENDBRANCH   4   6
TORSDOF 11
ENDMDL
MODEL      236
REMARK 921   NORMALIZED FREE ENERGY PREDICTED BY IDOCK:   -3.86 KCAL/MOL
REMARK 922        TOTAL FREE ENERGY PREDICTED BY IDOCK:   -8.55 KCAL/MOL
REMARK 923 INTER-LIGAND FREE ENERGY PREDICTED BY IDOCK:   -8.37 KCAL/MOL
REMARK 924 INTRA-LIGAND FREE ENERGY PREDICTED BY IDOCK:   -0.18 KCAL/MOL
REMARK 927      BINDING AFFINITY PREDICTED BY RF-SCORE:    0.00 PKD
ROOT
HETATM    1  N   UNL     1     -12.255  17.045  72.808  1.00  0.00     0.089 N  
HETATM    2  H1  UNL     1     -12.086  17.560  71.944  1.00  0.00     0.000 HD 
HETATM    3  H2  UNL     1     -12.310  17.549  73.693  1.00  0.00     0.000 HD 
HETATM    4  C   UNL     1     -12.407  15.702  72.794  1.00  0.00    -0.435 C  
HETATM    5  O   UNL     1     -12.611  15.080  73.837  1.00  0.00    -0.535 OA 
ENDROOT
BRANCH   4   6
HETATM    6  C   UNL     1     -12.301  15.035  71.476  1.00  0.00    -0.398 C  
HETATM    7  C   UNL     1     -12.120  15.838  70.412  1.00  0.00    -0.370 C  
HETATM    8  N   UNL     1     -11.939  15.369  69.113  1.00  0.00    -0.326 NA 
HETATM    9  C   UNL     1     -12.316  13.538  71.323  1.00  0.00    -0.325 C  
HETATM   10  C   UNL     1     -12.106  13.996  68.895  1.00  0.00    -0.316 C  
HETATM   11  C   UNL     1     -12.285  13.103  69.879  1.00  0.00    -0.293 C  
BRANCH   8  12
HETATM   12  C   UNL     1     -11.430  16.193  67.995  1.00  0.00    -0.163 C  
HETATM   13  O   UNL     1     -10.390  15.457  67.311  1.00  0.00    -0.261 OA 
HETATM   14  C   UNL     1      -9.133  15.787  67.943  1.00  0.00    -0.186 C  
HETATM   15  H   UNL     1     -10.345  19.247  67.359  1.00  0.00     0.000 HD 
HETATM   16  C   UNL     1      -9.307  17.146  68.615  1.00  0.00    -0.269 C  
HETATM   17  H   UNL     1      -8.491  18.944  68.493  1.00  0.00     0.000 HD 
HETATM   18  C   UNL     1     -10.751  17.535  68.313  1.00  0.00    -0.309 C  
HETATM   19  O   UNL     1      -8.382  18.098  68.074  1.00  0.00    -0.248 OA 
HETATM   20  O   UNL     1     -10.765  18.417  67.162  1.00  0.00    -0.399 OA 
BRANCH  14  21
HETATM   21  C   UNL     1      -8.734  14.692  68.944  1.00  0.00    -0.138 C  
BRANCH  21  22
HETATM   22  O   UNL     1      -9.339  13.448  68.613  1.00  0.00    -0.133 OA 
BRANCH  22  23
HETATM   23  P   UNL     1      -8.496  12.401  67.750  1.00  0.00    -0.193 P  
HETATM   24  O   UNL     1      -8.859  12.257  66.310  1.00  0.00    -0.136 OA 
HETATM   25  O   UNL     1      -7.015  13.018  67.851  1.00  0.00    -0.095 OA 
BRANCH  23  26
HETATM   26  O   UNL     1      -8.369  11.075  68.600  1.00  0.00    -0.140 OA 
BRANCH  26  27
HETATM   27  P   UNL     1      -9.497   9.976  68.744  1.00  0.00    -0.178 P  
HETATM   28  O   UNL     1      -8.769   8.649  68.204  1.00  0.00    -0.139 OA 
HETATM   29  O   UNL     1     -10.773  10.182  68.002  1.00  0.00    -0.223 OA 
BRANCH  27  30
HETATM   30  O   UNL     1      -9.674   9.676  70.310  1.00  0.00    -0.240 OA 
BRANCH  30  31
HETATM   31  C   UNL     1     -10.833   9.009  70.798  1.00  0.00    -0.251 C  
BRANCH  31  32
HETATM   32  C   UNL     1     -10.525   7.691  71.501  1.00  0.00    -0.204 C  
HETATM   33  O   UNL     1     -10.454   6.600  70.563  1.00  0.00    -0.196 OA 
HETATM   34  C   UNL     1      -9.798   5.551  71.301  1.00  0.00    -0.175 C  
HETATM   35  H   UNL     1      -8.442   8.173  73.982  1.00  0.00     0.000 HD 
HETATM   36  C   UNL     1      -8.693   6.254  72.106  1.00  0.00    -0.133 C  
HETATM   37  C   UNL     1      -9.171   7.705  72.203  1.00  0.00    -0.141 C  
HETATM   38  H   UNL     1      -7.805   6.132  73.905  1.00  0.00     0.000 HD 
HETATM   39  O   UNL     1      -8.488   5.697  73.408  1.00  0.00    -0.116 OA 
HETATM   40  O   UNL     1      -9.285   8.164  73.545  1.00  0.00    -0.264 OA 
BRANCH  34  41
HETATM   41  N   UNL     1      -9.293   4.533  70.402  1.00  0.00    -0.132 NA 
HETATM   42  C   UNL     1      -9.898   4.013  69.293  1.00  0.00    -0.019 A  
HETATM   43  N   UNL     1      -9.131   3.131  68.682  1.00  0.00    -0.137 NA 
HETATM   44  C   UNL     1      -7.988   3.061  69.453  1.00  0.00    -0.048 A  
HETATM   45  C   UNL     1      -6.800   2.323  69.331  1.00  0.00    -0.033 A  
HETATM   46  N   UNL     1      -6.536   1.477  68.265  1.00  0.00    -0.025 NA 
HETATM   47  N   UNL     1      -5.864   2.441  70.304  1.00  0.00    -0.017 NA 
HETATM   48  H1  UNL     1      -5.672   0.941  68.176  1.00  0.00     0.000 HD 
HETATM   49  C   UNL     1      -6.098   3.298  71.321  1.00  0.00    -0.014 A  
HETATM   50  H2  UNL     1      -6.642   2.023  67.409  1.00  0.00     0.000 HD 
HETATM   51  N   UNL     1      -7.172   4.097  71.519  1.00  0.00    -0.049 NA 
HETATM   52  C   UNL     1      -8.083   3.908  70.546  1.00  0.00    -0.054 A  
ENDBRANCH  34  41
ENDBRANCH  31  32
ENDBRANCH  30  31
ENDBRANCH  27  30
ENDBRANCH  26  27
ENDBRANCH  23  26
ENDBRANCH  22  23
ENDBRANCH  21  22
ENDBRANCH  14  21
ENDBRANCH   8  12
ENDBRANCH   4   6
TORSDOF 11
ENDMDL
MODEL      237
REMARK 921   NORMALIZED FREE ENERGY PREDICTED BY IDOCK:   -3.79 KCAL/MOL
REMARK 922        TOTAL FREE ENERGY PREDICTED BY IDOCK:   -8.42 KCAL/MOL
REMARK 923 INTER-LIGAND FREE ENERGY PREDICTED BY IDOCK:   -6.72 KCAL/MOL
REMARK 924 INTRA-LIGAND FREE ENERGY PREDICTED BY IDOCK:   -1.70 KCAL/MOL
REMARK 927      BINDING AFFINITY PREDICTED BY RF-SCORE:    0.00 PKD
ROOT
HETATM    1  N   UNL     1      -7.258  17.803  68.942  1.00  0.00    -0.268 N  
HETATM    2  H1  UNL     1      -6.281  17.693  69.214  1.00  0.00     0.000 HD 
HETATM    3  H2  UNL     1      -7.642  18.738  68.805  1.00  0.00     0.000 HD 
HETATM    4  C   UNL     1      -8.050  16.723  68.761  1.00  0.00    -0.252 C  
HETATM    5  O   UNL     1      -9.229  16.855  68.434  1.00  0.00    -0.236 OA 
ENDROOT
BRANCH   4   6
HETATM    6  C   UNL     1      -7.431  15.398  68.990  1.00  0.00    -0.165 C  
HETATM    7  C   UNL     1      -7.791  14.415  68.144  1.00  0.00    -0.138 C  
HETATM    8  N   UNL     1      -7.256  13.130  68.181  1.00  0.00    -0.103 NA 
HETATM    9  C   UNL     1      -6.396  15.161  70.056  1.00  0.00    -0.153 C  
HETATM   10  C   UNL     1      -6.412  12.815  69.253  1.00  0.00    -0.105 C  
HETATM   11  C   UNL     1      -5.983  13.713  70.152  1.00  0.00    -0.146 C  
BRANCH   8  12
HETATM   12  C   UNL     1      -7.392  12.140  67.090  1.00  0.00    -0.124 C  
HETATM   13  O   UNL     1      -8.790  11.809  66.936  1.00  0.00    -0.178 OA 
HETATM   14  C   UNL     1      -9.072  10.686  67.801  1.00  0.00    -0.143 C  
HETATM   15  H   UNL     1      -6.109   9.275  66.065  1.00  0.00     0.000 HD 
HETATM   16  C   UNL     1      -7.752   9.957  68.041  1.00  0.00    -0.086 C  
HETATM   17  H   UNL     1      -7.010   8.152  67.721  1.00  0.00     0.000 HD 
HETATM   18  C   UNL     1      -6.726  10.764  67.251  1.00  0.00    -0.080 C  
HETATM   19  O   UNL     1      -7.831   8.605  67.572  1.00  0.00    -0.100 OA 
HETATM   20  O   UNL     1      -6.521  10.126  65.965  1.00  0.00    -0.085 OA 
BRANCH  14  21
HETATM   21  C   UNL     1      -9.715  11.168  69.111  1.00  0.00    -0.028 C  
BRANCH  21  22
HETATM   22  O   UNL     1      -9.760  10.124  70.076  1.00  0.00    -0.213 OA 
BRANCH  22  23
HETATM   23  P   UNL     1     -11.188   9.583  70.540  1.00  0.00    -0.316 P  
HETATM   24  O   UNL     1     -12.366  10.463  70.287  1.00  0.00    -0.287 OA 
HETATM   25  O   UNL     1     -11.336   8.253  69.648  1.00  0.00     0.005 OA 
BRANCH  23  26
HETATM   26  O   UNL     1     -11.024   8.995  71.998  1.00  0.00    -0.358 OA 
BRANCH  26  27
HETATM   27  P   UNL     1      -9.834   8.070  72.475  1.00  0.00    -0.304 P  
HETATM   28  O   UNL     1     -10.418   7.404  73.816  1.00  0.00    -0.346 OA 
HETATM   29  O   UNL     1      -8.521   8.712  72.769  1.00  0.00    -0.396 OA 
BRANCH  27  30
HETATM   30  O   UNL     1      -9.760   6.828  71.463  1.00  0.00    -0.165 OA 
BRANCH  30  31
HETATM   31  C   UNL     1     -10.293   5.558  71.824  1.00  0.00    -0.216 C  
BRANCH  31  32
HETATM   32  C   UNL     1      -9.763   4.411  70.969  1.00  0.00    -0.190 C  
HETATM   33  O   UNL     1      -9.862   4.714  69.564  1.00  0.00    -0.196 OA 
HETATM   34  C   UNL     1      -9.000   3.744  68.940  1.00  0.00    -0.123 C  
HETATM   35  H   UNL     1      -7.181   3.004  72.411  1.00  0.00     0.000 HD 
HETATM   36  C   UNL     1      -7.772   3.643  69.860  1.00  0.00    -0.047 C  
HETATM   37  C   UNL     1      -8.285   4.132  71.217  1.00  0.00    -0.077 C  
HETATM   38  H   UNL     1      -6.480   2.257  70.532  1.00  0.00     0.000 HD 
HETATM   39  O   UNL     1      -7.239   2.320  69.964  1.00  0.00    -0.033 OA 
HETATM   40  O   UNL     1      -8.102   3.178  72.257  1.00  0.00    -0.058 OA 
BRANCH  34  41
HETATM   41  N   UNL     1      -8.671   4.147  67.588  1.00  0.00    -0.104 NA 
HETATM   42  C   UNL     1      -8.329   5.392  67.140  1.00  0.00    -0.107 A  
HETATM   43  N   UNL     1      -8.049   5.390  65.851  1.00  0.00    -0.106 NA 
HETATM   44  C   UNL     1      -8.248   4.086  65.446  1.00  0.00    -0.101 A  
HETATM   45  C   UNL     1      -8.107   3.440  64.207  1.00  0.00    -0.086 A  
HETATM   46  N   UNL     1      -7.648   4.079  63.064  1.00  0.00    -0.057 NA 
HETATM   47  N   UNL     1      -8.436   2.129  64.122  1.00  0.00    -0.082 NA 
HETATM   48  H1  UNL     1      -7.546   3.609  62.164  1.00  0.00     0.000 HD 
HETATM   49  C   UNL     1      -8.840   1.493  65.242  1.00  0.00    -0.123 A  
HETATM   50  H2  UNL     1      -6.746   4.499  63.292  1.00  0.00     0.000 HD 
HETATM   51  N   UNL     1      -8.964   1.990  66.495  1.00  0.00    -0.119 NA 
HETATM   52  C   UNL     1      -8.663   3.302  66.510  1.00  0.00    -0.129 A  
ENDBRANCH  34  41
ENDBRANCH  31  32
ENDBRANCH  30  31
ENDBRANCH  27  30
ENDBRANCH  26  27
ENDBRANCH  23  26
ENDBRANCH  22  23
ENDBRANCH  21  22
ENDBRANCH  14  21
ENDBRANCH   8  12
ENDBRANCH   4   6
TORSDOF 11
ENDMDL
MODEL      238
REMARK 921   NORMALIZED FREE ENERGY PREDICTED BY IDOCK:   -3.76 KCAL/MOL
REMARK 922        TOTAL FREE ENERGY PREDICTED BY IDOCK:   -8.38 KCAL/MOL
REMARK 923 INTER-LIGAND FREE ENERGY PREDICTED BY IDOCK:   -6.23 KCAL/MOL
REMARK 924 INTRA-LIGAND FREE ENERGY PREDICTED BY IDOCK:   -2.15 KCAL/MOL
REMARK 927      BINDING AFFINITY PREDICTED BY RF-SCORE:    0.00 PKD
ROOT
HETATM    1  N   UNL     1      -5.129   4.739  64.219  1.00  0.00    -0.009 N  
HETATM    2  H1  UNL     1      -4.645   5.243  64.963  1.00  0.00     0.000 HD 
HETATM    3  H2  UNL     1      -4.656   3.977  63.734  1.00  0.00     0.000 HD 
HETATM    4  C   UNL     1      -6.392   5.071  63.869  1.00  0.00    -0.022 C  
HETATM    5  O   UNL     1      -6.976   4.464  62.972  1.00  0.00    -0.038 OA 
ENDROOT
BRANCH   4   6
HETATM    6  C   UNL     1      -7.012   6.196  64.605  1.00  0.00    -0.051 C  
HETATM    7  C   UNL     1      -6.447   6.526  65.781  1.00  0.00    -0.043 C  
HETATM    8  N   UNL     1      -6.868   7.596  66.566  1.00  0.00    -0.061 NA 
HETATM    9  C   UNL     1      -8.163   6.989  64.051  1.00  0.00     0.075 C  
HETATM   10  C   UNL     1      -8.034   8.263  66.174  1.00  0.00    -0.100 C  
HETATM   11  C   UNL     1      -8.677   8.022  65.022  1.00  0.00     0.036 C  
BRANCH   8  12
HETATM   12  C   UNL     1      -6.082   8.168  67.682  1.00  0.00    -0.051 C  
HETATM   13  O   UNL     1      -5.664   7.094  68.554  1.00  0.00    -0.020 OA 
HETATM   14  C   UNL     1      -6.693   6.915  69.553  1.00  0.00    -0.050 C  
HETATM   15  H   UNL     1      -6.226  10.578  69.936  1.00  0.00     0.000 HD 
HETATM   16  C   UNL     1      -7.452   8.234  69.662  1.00  0.00    -0.081 C  
HETATM   17  H   UNL     1      -7.829   9.583  71.058  1.00  0.00     0.000 HD 
HETATM   18  C   UNL     1      -6.771   9.147  68.647  1.00  0.00    -0.058 C  
HETATM   19  O   UNL     1      -7.356   8.762  70.991  1.00  0.00    -0.073 OA 
HETATM   20  O   UNL     1      -5.801   9.972  69.340  1.00  0.00    -0.037 OA 
BRANCH  14  21
HETATM   21  C   UNL     1      -7.613   5.746  69.169  1.00  0.00    -0.089 C  
BRANCH  21  22
HETATM   22  O   UNL     1      -7.035   4.497  69.529  1.00  0.00    -0.047 OA 
BRANCH  22  23
HETATM   23  P   UNL     1      -7.305   3.931  70.997  1.00  0.00    -0.037 P  
HETATM   24  O   UNL     1      -7.338   2.449  71.161  1.00  0.00    -0.033 OA 
HETATM   25  O   UNL     1      -6.042   4.513  71.805  1.00  0.00    -0.016 OA 
BRANCH  23  26
HETATM   26  O   UNL     1      -8.506   4.755  71.612  1.00  0.00    -0.113 OA 
BRANCH  26  27
HETATM   27  P   UNL     1      -9.445   4.255  72.782  1.00  0.00    -0.131 P  
HETATM   28  O   UNL     1      -8.410   4.008  73.986  1.00  0.00    -0.090 OA 
HETATM   29  O   UNL     1     -10.250   3.021  72.555  1.00  0.00    -0.157 OA 
BRANCH  27  30
HETATM   30  O   UNL     1     -10.289   5.521  73.290  1.00  0.00    -0.183 OA 
BRANCH  30  31
HETATM   31  C   UNL     1     -10.037   6.822  72.772  1.00  0.00    -0.178 C  
BRANCH  31  32
HETATM   32  C   UNL     1     -11.289   7.685  72.659  1.00  0.00    -0.370 C  
HETATM   33  O   UNL     1     -10.978   9.000  72.157  1.00  0.00    -0.348 OA 
HETATM   34  C   UNL     1     -12.256   9.529  71.757  1.00  0.00    -0.387 C  
HETATM   35  H   UNL     1     -13.850   5.873  71.718  1.00  0.00     0.000 HD 
HETATM   36  C   UNL     1     -12.991   8.352  71.095  1.00  0.00    -0.048 C  
HETATM   37  C   UNL     1     -12.307   7.113  71.679  1.00  0.00    -0.362 C  
HETATM   38  H   UNL     1     -14.851   7.602  70.952  1.00  0.00     0.000 HD 
HETATM   39  O   UNL     1     -14.397   8.330  71.361  1.00  0.00    -0.412 OA 
HETATM   40  O   UNL     1     -13.215   6.230  72.328  1.00  0.00     0.002 OA 
BRANCH  34  41
HETATM   41  N   UNL     1     -12.085  10.666  70.875  1.00  0.00    -0.361 NA 
HETATM   42  C   UNL     1     -12.482  11.957  71.080  1.00  0.00    -0.290 A  
HETATM   43  N   UNL     1     -12.122  12.745  70.085  1.00  0.00    -0.337 NA 
HETATM   44  C   UNL     1     -11.488  11.912  69.185  1.00  0.00    -0.296 A  
HETATM   45  C   UNL     1     -10.874  12.142  67.942  1.00  0.00    -0.217 A  
HETATM   46  N   UNL     1     -10.755  13.402  67.374  1.00  0.00    -0.260 NA 
HETATM   47  N   UNL     1     -10.375  11.083  67.264  1.00  0.00    -0.202 NA 
HETATM   48  H1  UNL     1     -10.309  13.569  66.472  1.00  0.00     0.000 HD 
HETATM   49  C   UNL     1     -10.449   9.860  67.834  1.00  0.00    -0.236 A  
HETATM   50  H2  UNL     1     -10.291  14.001  68.058  1.00  0.00     0.000 HD 
HETATM   51  N   UNL     1     -10.964   9.523  69.039  1.00  0.00    -0.154 NA 
HETATM   52  C   UNL     1     -11.480  10.607  69.647  1.00  0.00    -0.291 A  
ENDBRANCH  34  41
ENDBRANCH  31  32
ENDBRANCH  30  31
ENDBRANCH  27  30
ENDBRANCH  26  27
ENDBRANCH  23  26
ENDBRANCH  22  23
ENDBRANCH  21  22
ENDBRANCH  14  21
ENDBRANCH   8  12
ENDBRANCH   4   6
TORSDOF 11
ENDMDL
MODEL      239
REMARK 921   NORMALIZED FREE ENERGY PREDICTED BY IDOCK:   -3.70 KCAL/MOL
REMARK 922        TOTAL FREE ENERGY PREDICTED BY IDOCK:   -8.27 KCAL/MOL
REMARK 923 INTER-LIGAND FREE ENERGY PREDICTED BY IDOCK:   -6.84 KCAL/MOL
REMARK 924 INTRA-LIGAND FREE ENERGY PREDICTED BY IDOCK:   -1.44 KCAL/MOL
REMARK 927      BINDING AFFINITY PREDICTED BY RF-SCORE:    0.00 PKD
ROOT
HETATM    1  N   UNL     1      -6.977   2.164  69.202  1.00  0.00    -0.036 N  
HETATM    2  H1  UNL     1      -7.864   1.794  69.542  1.00  0.00     0.000 HD 
HETATM    3  H2  UNL     1      -6.113   1.656  69.390  1.00  0.00     0.000 HD 
HETATM    4  C   UNL     1      -6.933   3.322  68.506  1.00  0.00    -0.049 C  
HETATM    5  O   UNL     1      -5.861   3.770  68.097  1.00  0.00    -0.024 OA 
ENDROOT
BRANCH   4   6
HETATM    6  C   UNL     1      -8.222   4.014  68.283  1.00  0.00    -0.095 C  
HETATM    7  C   UNL     1      -8.762   4.633  69.349  1.00  0.00    -0.082 C  
HETATM    8  N   UNL     1      -9.936   5.380  69.296  1.00  0.00    -0.188 NA 
HETATM    9  C   UNL     1      -8.873   4.097  66.929  1.00  0.00    -0.123 C  
HETATM   10  C   UNL     1     -10.662   5.353  68.099  1.00  0.00    -0.001 C  
HETATM   11  C   UNL     1     -10.220   4.773  66.973  1.00  0.00    -0.205 C  
BRANCH   8  12
HETATM   12  C   UNL     1     -10.375   6.316  70.354  1.00  0.00    -0.208 C  
HETATM   13  O   UNL     1     -10.838   7.535  69.733  1.00  0.00    -0.248 OA 
HETATM   14  C   UNL     1      -9.704   8.423  69.612  1.00  0.00    -0.173 C  
HETATM   15  H   UNL     1      -9.343   7.603  73.215  1.00  0.00     0.000 HD 
HETATM   16  C   UNL     1      -8.686   8.003  70.670  1.00  0.00    -0.131 C  
HETATM   17  H   UNL     1      -7.799   8.818  72.238  1.00  0.00     0.000 HD 
HETATM   18  C   UNL     1      -9.341   6.818  71.374  1.00  0.00    -0.157 C  
HETATM   19  O   UNL     1      -8.432   9.080  71.580  1.00  0.00    -0.308 OA 
HETATM   20  O   UNL     1      -9.983   7.292  72.584  1.00  0.00    -0.169 OA 
BRANCH  14  21
HETATM   21  C   UNL     1      -9.123   8.359  68.191  1.00  0.00    -0.138 C  
BRANCH  21  22
HETATM   22  O   UNL     1     -10.137   8.554  67.213  1.00  0.00    -0.204 OA 
BRANCH  22  23
HETATM   23  P   UNL     1     -10.523  10.050  66.809  1.00  0.00    -0.120 P  
HETATM   24  O   UNL     1     -11.609  10.708  67.593  1.00  0.00    -0.492 OA 
HETATM   25  O   UNL     1      -9.142  10.826  67.087  1.00  0.00    -0.144 OA 
BRANCH  23  26
HETATM   26  O   UNL     1     -10.631  10.106  65.234  1.00  0.00    -0.087 OA 
BRANCH  26  27
HETATM   27  P   UNL     1     -10.185  11.329  64.336  1.00  0.00    -0.372 P  
HETATM   28  O   UNL     1     -11.292  11.336  63.171  1.00  0.00    -0.100 OA 
HETATM   29  O   UNL     1      -8.823  11.294  63.730  1.00  0.00     0.003 OA 
BRANCH  27  30
HETATM   30  O   UNL     1     -10.519  12.668  65.154  1.00  0.00    -0.284 OA 
BRANCH  30  31
HETATM   31  C   UNL     1     -11.154  13.772  64.519  1.00  0.00    -0.380 C  
BRANCH  31  32
HETATM   32  C   UNL     1     -11.265  15.005  65.411  1.00  0.00    -0.356 C  
HETATM   33  O   UNL     1     -10.517  14.840  66.631  1.00  0.00    -0.277 OA 
HETATM   34  C   UNL     1     -10.409  16.177  67.154  1.00  0.00    -0.291 C  
HETATM   35  H   UNL     1     -11.321  17.731  63.597  1.00  0.00     0.000 HD 
HETATM   36  C   UNL     1     -10.145  17.070  65.931  1.00  0.00    -0.263 C  
HETATM   37  C   UNL     1     -10.690  16.255  64.755  1.00  0.00    -0.126 C  
HETATM   38  H   UNL     1     -10.621  18.900  65.247  1.00  0.00     0.000 HD 
HETATM   39  O   UNL     1     -10.783  18.348  66.003  1.00  0.00    -0.368 OA 
HETATM   40  O   UNL     1     -11.679  16.953  64.006  1.00  0.00    -1.002 OA 
BRANCH  34  41
HETATM   41  N   UNL     1      -9.363  16.251  68.154  1.00  0.00    -0.207 NA 
HETATM   42  C   UNL     1      -9.363  16.960  69.322  1.00  0.00    -0.031 A  
HETATM   43  N   UNL     1      -8.259  16.761  70.017  1.00  0.00     1.310 NA 
HETATM   44  C   UNL     1      -7.502  15.905  69.243  1.00  0.00    -0.219 A  
HETATM   45  C   UNL     1      -6.242  15.314  69.430  1.00  0.00    -0.122 A  
HETATM   46  N   UNL     1      -5.486  15.482  70.581  1.00  0.00    -0.148 NA 
HETATM   47  N   UNL     1      -5.738  14.542  68.438  1.00  0.00    -0.098 NA 
HETATM   48  H1  UNL     1      -4.570  15.052  70.717  1.00  0.00     0.000 HD 
HETATM   49  C   UNL     1      -6.490  14.340  67.335  1.00  0.00     0.126 A  
HETATM   50  H2  UNL     1      -6.070  15.207  71.371  1.00  0.00     0.000 HD 
HETATM   51  N   UNL     1      -7.730  14.808  67.064  1.00  0.00    -0.103 NA 
HETATM   52  C   UNL     1      -8.161  15.599  68.064  1.00  0.00    -0.144 A  
ENDBRANCH  34  41
ENDBRANCH  31  32
ENDBRANCH  30  31
ENDBRANCH  27  30
ENDBRANCH  26  27
ENDBRANCH  23  26
ENDBRANCH  22  23
ENDBRANCH  21  22
ENDBRANCH  14  21
ENDBRANCH   8  12
ENDBRANCH   4   6
TORSDOF 11
ENDMDL
MODEL      240
REMARK 921   NORMALIZED FREE ENERGY PREDICTED BY IDOCK:   -3.64 KCAL/MOL
REMARK 922        TOTAL FREE ENERGY PREDICTED BY IDOCK:   -8.18 KCAL/MOL
REMARK 923 INTER-LIGAND FREE ENERGY PREDICTED BY IDOCK:   -6.75 KCAL/MOL
REMARK 924 INTRA-LIGAND FREE ENERGY PREDICTED BY IDOCK:   -1.43 KCAL/MOL
REMARK 927      BINDING AFFINITY PREDICTED BY RF-SCORE:    0.00 PKD
ROOT
HETATM    1  N   UNL     1      -8.060  14.727  69.931  1.00  0.00    -0.382 N  
HETATM    2  H1  UNL     1      -8.930  14.230  69.739  1.00  0.00     0.000 HD 
HETATM    3  H2  UNL     1      -7.487  14.451  70.728  1.00  0.00     0.000 HD 
HETATM    4  C   UNL     1      -7.658  15.746  69.140  1.00  0.00    -0.212 C  
HETATM    5  O   UNL     1      -6.608  16.346  69.372  1.00  0.00    -0.191 OA 
ENDROOT
BRANCH   4   6
HETATM    6  C   UNL     1      -8.546  16.101  68.010  1.00  0.00    -0.171 C  
HETATM    7  C   UNL     1      -9.526  15.226  67.721  1.00  0.00    -0.197 C  
HETATM    8  N   UNL     1     -10.483  15.437  66.732  1.00  0.00    -0.293 NA 
HETATM    9  C   UNL     1      -8.423  17.400  67.261  1.00  0.00    -0.220 C  
HETATM   10  C   UNL     1     -10.315  16.552  65.902  1.00  0.00    -0.350 C  
HETATM   11  C   UNL     1      -9.379  17.491  66.097  1.00  0.00    -0.168 C  
BRANCH   8  12
HETATM   12  C   UNL     1     -11.736  14.660  66.607  1.00  0.00    -0.333 C  
HETATM   13  O   UNL     1     -11.502  13.321  67.099  1.00  0.00    -0.308 OA 
HETATM   14  C   UNL     1     -11.056  12.517  65.985  1.00  0.00    -0.294 C  
HETATM   15  H   UNL     1     -14.094  13.951  64.406  1.00  0.00     0.000 HD 
HETATM   16  C   UNL     1     -11.566  13.184  64.711  1.00  0.00    -0.333 C  
HETATM   17  H   UNL     1     -12.746  12.713  63.195  1.00  0.00     0.000 HD 
HETATM   18  C   UNL     1     -12.319  14.416  65.206  1.00  0.00    -0.371 C  
HETATM   19  O   UNL     1     -12.428  12.297  63.988  1.00  0.00    -0.470 OA 
HETATM   20  O   UNL     1     -13.733  14.102  65.272  1.00  0.00    -0.248 OA 
BRANCH  14  21
HETATM   21  C   UNL     1      -9.524  12.387  65.998  1.00  0.00    -0.166 C  
BRANCH  21  22
HETATM   22  O   UNL     1      -9.049  12.043  67.294  1.00  0.00    -0.168 OA 
BRANCH  22  23
HETATM   23  P   UNL     1      -8.553  10.547  67.546  1.00  0.00    -0.120 P  
HETATM   24  O   UNL     1      -9.556   9.457  67.368  1.00  0.00    -0.139 OA 
HETATM   25  O   UNL     1      -7.415  10.390  66.420  1.00  0.00    -0.107 OA 
BRANCH  23  26
HETATM   26  O   UNL     1      -7.709  10.543  68.882  1.00  0.00    -0.098 OA 
BRANCH  26  27
HETATM   27  P   UNL     1      -6.477  11.489  69.181  1.00  0.00    -0.112 P  
HETATM   28  O   UNL     1      -6.864  12.139  70.599  1.00  0.00     0.619 OA 
HETATM   29  O   UNL     1      -6.173  12.573  68.203  1.00  0.00    -0.060 OA 
BRANCH  27  30
HETATM   30  O   UNL     1      -5.231  10.549  69.547  1.00  0.00    -0.038 OA 
BRANCH  30  31
HETATM   31  C   UNL     1      -5.338   9.132  69.468  1.00  0.00    -0.035 C  
BRANCH  31  32
HETATM   32  C   UNL     1      -6.571   8.575  70.172  1.00  0.00    -0.038 C  
HETATM   33  O   UNL     1      -7.059   7.388  69.516  1.00  0.00    -0.066 OA 
HETATM   34  C   UNL     1      -7.943   6.796  70.487  1.00  0.00    -0.114 C  
HETATM   35  H   UNL     1      -6.314   8.960  73.414  1.00  0.00     0.000 HD 
HETATM   36  C   UNL     1      -7.236   6.975  71.840  1.00  0.00    -0.081 C  
HETATM   37  C   UNL     1      -6.284   8.151  71.608  1.00  0.00    -0.043 C  
HETATM   38  H   UNL     1      -7.692   7.359  73.760  1.00  0.00     0.000 HD 
HETATM   39  O   UNL     1      -8.129   7.249  72.924  1.00  0.00    -0.102 OA 
HETATM   40  O   UNL     1      -6.493   9.224  72.519  1.00  0.00    -0.307 OA 
BRANCH  34  41
HETATM   41  N   UNL     1      -8.208   5.410  70.158  1.00  0.00    -0.098 NA 
HETATM   42  C   UNL     1      -7.913   4.298  70.894  1.00  0.00    -0.067 A  
HETATM   43  N   UNL     1      -8.339   3.195  70.310  1.00  0.00    -0.048 NA 
HETATM   44  C   UNL     1      -8.911   3.617  69.128  1.00  0.00    -0.117 A  
HETATM   45  C   UNL     1      -9.549   2.934  68.079  1.00  0.00    -0.052 A  
HETATM   46  N   UNL     1      -9.771   1.564  68.087  1.00  0.00    -0.358 NA 
HETATM   47  N   UNL     1      -9.969   3.646  67.006  1.00  0.00     0.088 NA 
HETATM   48  H1  UNL     1     -10.234   1.068  67.326  1.00  0.00     0.000 HD 
HETATM   49  C   UNL     1      -9.796   4.985  67.015  1.00  0.00    -0.185 A  
HETATM   50  H2  UNL     1     -10.276   1.343  68.946  1.00  0.00     0.000 HD 
HETATM   51  N   UNL     1      -9.248   5.757  67.982  1.00  0.00    -0.109 NA 
HETATM   52  C   UNL     1      -8.814   4.993  69.002  1.00  0.00    -0.092 A  
ENDBRANCH  34  41
ENDBRANCH  31  32
ENDBRANCH  30  31
ENDBRANCH  27  30
ENDBRANCH  26  27
ENDBRANCH  23  26
ENDBRANCH  22  23
ENDBRANCH  21  22
ENDBRANCH  14  21
ENDBRANCH   8  12
ENDBRANCH   4   6
TORSDOF 11
ENDMDL
MODEL      241
REMARK 921   NORMALIZED FREE ENERGY PREDICTED BY IDOCK:   -3.63 KCAL/MOL
REMARK 922        TOTAL FREE ENERGY PREDICTED BY IDOCK:   -8.16 KCAL/MOL
REMARK 923 INTER-LIGAND FREE ENERGY PREDICTED BY IDOCK:   -6.45 KCAL/MOL
REMARK 924 INTRA-LIGAND FREE ENERGY PREDICTED BY IDOCK:   -1.71 KCAL/MOL
REMARK 927      BINDING AFFINITY PREDICTED BY RF-SCORE:    0.00 PKD
ROOT
HETATM    1  N   UNL     1      -9.659   9.459  64.073  1.00  0.00    -0.332 N  
HETATM    2  H1  UNL     1      -9.800   8.775  64.816  1.00  0.00     0.000 HD 
HETATM    3  H2  UNL     1     -10.320  10.228  63.962  1.00  0.00     0.000 HD 
HETATM    4  C   UNL     1      -8.605   9.360  63.232  1.00  0.00    -0.214 C  
HETATM    5  O   UNL     1      -8.435  10.186  62.336  1.00  0.00    -0.139 OA 
ENDROOT
BRANCH   4   6
HETATM    6  C   UNL     1      -7.693   8.212  63.442  1.00  0.00    -0.143 C  
HETATM    7  C   UNL     1      -8.201   6.991  63.192  1.00  0.00     0.071 C  
HETATM    8  N   UNL     1      -7.461   5.814  63.278  1.00  0.00    -0.061 NA 
HETATM    9  C   UNL     1      -6.252   8.384  63.838  1.00  0.00    -0.072 C  
HETATM   10  C   UNL     1      -6.165   5.906  63.798  1.00  0.00    -0.025 C  
HETATM   11  C   UNL     1      -5.555   7.068  64.077  1.00  0.00    -0.032 C  
BRANCH   8  12
HETATM   12  C   UNL     1      -7.893   4.517  62.714  1.00  0.00    -0.067 C  
HETATM   13  O   UNL     1      -9.326   4.399  62.866  1.00  0.00    -0.140 OA 
HETATM   14  C   UNL     1      -9.580   3.770  64.142  1.00  0.00    -0.163 C  
HETATM   15  H   UNL     1      -7.138   1.304  62.825  1.00  0.00     0.000 HD 
HETATM   16  C   UNL     1      -8.330   2.977  64.513  1.00  0.00    -0.090 C  
HETATM   17  H   UNL     1      -7.862   1.091  64.886  1.00  0.00     0.000 HD 
HETATM   18  C   UNL     1      -7.370   3.220  63.352  1.00  0.00    -0.054 C  
HETATM   19  O   UNL     1      -8.640   1.585  64.655  1.00  0.00    -0.086 OA 
HETATM   20  O   UNL     1      -7.462   2.106  62.430  1.00  0.00    -0.035 OA 
BRANCH  14  21
HETATM   21  C   UNL     1      -9.930   4.829  65.200  1.00  0.00     0.011 C  
BRANCH  21  22
HETATM   22  O   UNL     1     -10.136   4.233  66.475  1.00  0.00    -0.227 OA 
BRANCH  22  23
HETATM   23  P   UNL     1      -9.729   5.066  67.775  1.00  0.00    -0.144 P  
HETATM   24  O   UNL     1     -10.813   5.824  68.465  1.00  0.00    -0.247 OA 
HETATM   25  O   UNL     1      -9.208   3.902  68.754  1.00  0.00    -0.127 OA 
BRANCH  23  26
HETATM   26  O   UNL     1      -8.397   5.849  67.442  1.00  0.00    -0.106 OA 
BRANCH  26  27
HETATM   27  P   UNL     1      -8.246   7.423  67.437  1.00  0.00    -0.112 P  
HETATM   28  O   UNL     1      -9.383   7.885  66.399  1.00  0.00    -0.182 OA 
HETATM   29  O   UNL     1      -6.933   7.999  67.028  1.00  0.00    -0.071 OA 
BRANCH  27  30
HETATM   30  O   UNL     1      -8.805   7.960  68.841  1.00  0.00    -0.141 OA 
BRANCH  30  31
HETATM   31  C   UNL     1      -9.487   9.207  68.926  1.00  0.00    -0.151 C  
BRANCH  31  32
HETATM   32  C   UNL     1      -8.691  10.375  68.353  1.00  0.00    -0.129 C  
HETATM   33  O   UNL     1      -9.437  11.071  67.336  1.00  0.00    -0.159 OA 
HETATM   34  C   UNL     1      -8.737  12.320  67.187  1.00  0.00    -0.193 C  
HETATM   35  H   UNL     1      -6.921  11.818  70.701  1.00  0.00     0.000 HD 
HETATM   36  C   UNL     1      -8.355  12.743  68.615  1.00  0.00     0.032 C  
HETATM   37  C   UNL     1      -8.365  11.432  69.404  1.00  0.00     0.421 C  
HETATM   38  H   UNL     1      -6.842  13.642  69.585  1.00  0.00     0.000 HD 
HETATM   39  O   UNL     1      -7.078  13.381  68.703  1.00  0.00    -0.097 OA 
HETATM   40  O   UNL     1      -7.124  11.160  70.047  1.00  0.00    -0.063 OA 
BRANCH  34  41
HETATM   41  N   UNL     1      -9.566  13.292  66.504  1.00  0.00    -0.264 NA 
HETATM   42  C   UNL     1     -10.805  13.107  65.957  1.00  0.00    -0.272 A  
HETATM   43  N   UNL     1     -11.291  14.224  65.452  1.00  0.00    -0.319 NA 
HETATM   44  C   UNL     1     -10.304  15.166  65.659  1.00  0.00    -0.357 A  
HETATM   45  C   UNL     1     -10.217  16.537  65.364  1.00  0.00    -0.148 A  
HETATM   46  N   UNL     1     -11.251  17.258  64.785  1.00  0.00    -0.832 NA 
HETATM   47  N   UNL     1      -9.066  17.188  65.656  1.00  0.00    -0.379 NA 
HETATM   48  H1  UNL     1     -11.187  18.253  64.571  1.00  0.00     0.000 HD 
HETATM   49  C   UNL     1      -8.073  16.500  66.260  1.00  0.00    -0.306 A  
HETATM   50  H2  UNL     1     -12.077  17.125  65.369  1.00  0.00     0.000 HD 
HETATM   51  N   UNL     1      -8.058  15.201  66.640  1.00  0.00    -0.080 NA 
HETATM   52  C   UNL     1      -9.209  14.597  66.289  1.00  0.00    -0.222 A  
ENDBRANCH  34  41
ENDBRANCH  31  32
ENDBRANCH  30  31
ENDBRANCH  27  30
ENDBRANCH  26  27
ENDBRANCH  23  26
ENDBRANCH  22  23
ENDBRANCH  21  22
ENDBRANCH  14  21
ENDBRANCH   8  12
ENDBRANCH   4   6
TORSDOF 11
ENDMDL
MODEL      242
REMARK 921   NORMALIZED FREE ENERGY PREDICTED BY IDOCK:   -3.57 KCAL/MOL
REMARK 922        TOTAL FREE ENERGY PREDICTED BY IDOCK:   -8.06 KCAL/MOL
REMARK 923 INTER-LIGAND FREE ENERGY PREDICTED BY IDOCK:   -7.89 KCAL/MOL
REMARK 924 INTRA-LIGAND FREE ENERGY PREDICTED BY IDOCK:   -0.18 KCAL/MOL
REMARK 927      BINDING AFFINITY PREDICTED BY RF-SCORE:    0.00 PKD
ROOT
HETATM    1  N   UNL     1     -11.828   6.924  69.851  1.00  0.00    -0.631 N  
HETATM    2  H1  UNL     1     -11.253   6.695  69.039  1.00  0.00     0.000 HD 
HETATM    3  H2  UNL     1     -12.626   7.550  69.743  1.00  0.00     0.000 HD 
HETATM    4  C   UNL     1     -11.544   6.407  71.066  1.00  0.00    -0.325 C  
HETATM    5  O   UNL     1     -12.238   6.683  72.045  1.00  0.00    -0.329 OA 
ENDROOT
BRANCH   4   6
HETATM    6  C   UNL     1     -10.364   5.517  71.152  1.00  0.00    -0.300 C  
HETATM    7  C   UNL     1     -10.169   4.681  70.115  1.00  0.00    -0.127 C  
HETATM    8  N   UNL     1      -9.075   3.825  70.009  1.00  0.00    -0.108 NA 
HETATM    9  C   UNL     1      -9.381   5.583  72.288  1.00  0.00    -0.159 C  
HETATM   10  C   UNL     1      -8.221   3.733  71.114  1.00  0.00    -0.067 C  
HETATM   11  C   UNL     1      -8.316   4.519  72.197  1.00  0.00    -0.109 C  
BRANCH   8  12
HETATM   12  C   UNL     1      -8.674   3.140  68.761  1.00  0.00    -0.098 C  
HETATM   13  O   UNL     1      -7.488   3.781  68.239  1.00  0.00    -0.061 OA 
HETATM   14  C   UNL     1      -7.917   4.841  67.355  1.00  0.00    -0.094 C  
HETATM   15  H   UNL     1      -9.945   2.094  65.898  1.00  0.00     0.000 HD 
HETATM   16  C   UNL     1      -9.322   4.487  66.874  1.00  0.00    -0.145 C  
HETATM   17  H   UNL     1     -10.222   4.138  65.147  1.00  0.00     0.000 HD 
HETATM   18  C   UNL     1      -9.635   3.162  67.562  1.00  0.00    -0.041 C  
HETATM   19  O   UNL     1      -9.347   4.358  65.447  1.00  0.00    -0.145 OA 
HETATM   20  O   UNL     1      -9.351   2.080  66.640  1.00  0.00    -0.034 OA 
BRANCH  14  21
HETATM   21  C   UNL     1      -7.877   6.194  68.083  1.00  0.00    -0.103 C  
BRANCH  21  22
HETATM   22  O   UNL     1      -7.587   7.254  67.180  1.00  0.00    -0.099 OA 
BRANCH  22  23
HETATM   23  P   UNL     1      -6.068   7.486  66.746  1.00  0.00    -0.046 P  
HETATM   24  O   UNL     1      -5.167   6.298  66.759  1.00  0.00    -0.011 OA 
HETATM   25  O   UNL     1      -6.239   7.988  65.227  1.00  0.00    -0.044 OA 
BRANCH  23  26
HETATM   26  O   UNL     1      -5.558   8.791  67.477  1.00  0.00    -0.038 OA 
BRANCH  26  27
HETATM   27  P   UNL     1      -6.434  10.078  67.755  1.00  0.00    -0.067 P  
HETATM   28  O   UNL     1      -5.663  11.218  66.925  1.00  0.00    -0.077 OA 
HETATM   29  O   UNL     1      -6.602  10.519  69.169  1.00  0.00    -0.049 OA 
BRANCH  27  30
HETATM   30  O   UNL     1      -7.805   9.907  66.940  1.00  0.00    -0.102 OA 
BRANCH  30  31
HETATM   31  C   UNL     1      -8.191  10.859  65.955  1.00  0.00    -0.133 C  
BRANCH  31  32
HETATM   32  C   UNL     1      -8.920  12.068  66.532  1.00  0.00    -0.193 C  
HETATM   33  O   UNL     1     -10.085  11.671  67.281  1.00  0.00    -0.196 OA 
HETATM   34  C   UNL     1     -10.418  12.843  68.050  1.00  0.00    -0.230 C  
HETATM   35  H   UNL     1      -6.776  14.360  67.468  1.00  0.00     0.000 HD 
HETATM   36  C   UNL     1      -9.070  13.413  68.521  1.00  0.00    -0.077 C  
HETATM   37  C   UNL     1      -8.061  12.855  67.515  1.00  0.00    -0.181 C  
HETATM   38  H   UNL     1      -8.196  15.196  68.835  1.00  0.00     0.000 HD 
HETATM   39  O   UNL     1      -9.028  14.843  68.544  1.00  0.00    -0.166 OA 
HETATM   40  O   UNL     1      -7.312  13.870  66.856  1.00  0.00     0.153 OA 
BRANCH  34  41
HETATM   41  N   UNL     1     -11.309  12.502  69.141  1.00  0.00    -0.271 NA 
HETATM   42  C   UNL     1     -11.672  11.258  69.574  1.00  0.00    -0.345 A  
HETATM   43  N   UNL     1     -12.467  11.317  70.625  1.00  0.00    -0.352 NA 
HETATM   44  C   UNL     1     -12.645  12.666  70.860  1.00  0.00    -0.249 A  
HETATM   45  C   UNL     1     -13.366  13.377  71.834  1.00  0.00    -0.451 A  
HETATM   46  N   UNL     1     -14.062  12.763  72.864  1.00  0.00    -0.387 NA 
HETATM   47  N   UNL     1     -13.384  14.729  71.763  1.00  0.00    -0.330 NA 
HETATM   48  H1  UNL     1     -14.586  13.280  73.571  1.00  0.00     0.000 HD 
HETATM   49  C   UNL     1     -12.670  15.332  70.788  1.00  0.00    -0.433 A  
HETATM   50  H2  UNL     1     -13.405  12.156  73.356  1.00  0.00     0.000 HD 
HETATM   51  N   UNL     1     -11.900  14.762  69.832  1.00  0.00    -0.297 NA 
HETATM   52  C   UNL     1     -11.953  13.420  69.927  1.00  0.00    -0.338 A  
ENDBRANCH  34  41
ENDBRANCH  31  32
ENDBRANCH  30  31
ENDBRANCH  27  30
ENDBRANCH  26  27
ENDBRANCH  23  26
ENDBRANCH  22  23
ENDBRANCH  21  22
ENDBRANCH  14  21
ENDBRANCH   8  12
ENDBRANCH   4   6
TORSDOF 11
ENDMDL
MODEL      243
REMARK 921   NORMALIZED FREE ENERGY PREDICTED BY IDOCK:   -3.52 KCAL/MOL
REMARK 922        TOTAL FREE ENERGY PREDICTED BY IDOCK:   -7.98 KCAL/MOL
REMARK 923 INTER-LIGAND FREE ENERGY PREDICTED BY IDOCK:   -8.00 KCAL/MOL
REMARK 924 INTRA-LIGAND FREE ENERGY PREDICTED BY IDOCK:    0.02 KCAL/MOL
REMARK 927      BINDING AFFINITY PREDICTED BY RF-SCORE:    0.00 PKD
ROOT
HETATM    1  N   UNL     1      -9.226  17.005  66.563  1.00  0.00    -0.259 N  
HETATM    2  H1  UNL     1      -8.778  16.462  65.824  1.00  0.00     0.000 HD 
HETATM    3  H2  UNL     1      -9.355  18.010  66.443  1.00  0.00     0.000 HD 
HETATM    4  C   UNL     1      -9.650  16.408  67.699  1.00  0.00    -0.227 C  
HETATM    5  O   UNL     1     -10.190  17.063  68.591  1.00  0.00    -0.279 OA 
ENDROOT
BRANCH   4   6
HETATM    6  C   UNL     1      -9.418  14.950  67.811  1.00  0.00    -0.203 C  
HETATM    7  C   UNL     1      -8.202  14.569  68.245  1.00  0.00    -0.149 C  
HETATM    8  N   UNL     1      -7.842  13.242  68.466  1.00  0.00    -0.131 NA 
HETATM    9  C   UNL     1     -10.493  13.935  67.533  1.00  0.00    -0.248 C  
HETATM   10  C   UNL     1      -8.750  12.254  68.068  1.00  0.00    -0.181 C  
HETATM   11  C   UNL     1      -9.989  12.516  67.627  1.00  0.00    -0.201 C  
BRANCH   8  12
HETATM   12  C   UNL     1      -6.647  12.821  69.229  1.00  0.00    -0.086 C  
HETATM   13  O   UNL     1      -5.515  12.774  68.332  1.00  0.00    -0.054 OA 
HETATM   14  C   UNL     1      -5.455  11.443  67.772  1.00  0.00    -0.046 C  
HETATM   15  H   UNL     1      -5.663  10.493  71.355  1.00  0.00     0.000 HD 
HETATM   16  C   UNL     1      -6.172  10.510  68.745  1.00  0.00    -0.046 C  
HETATM   17  H   UNL     1      -5.724   8.917  69.828  1.00  0.00     0.000 HD 
HETATM   18  C   UNL     1      -6.634  11.426  69.875  1.00  0.00    -0.081 C  
HETATM   19  O   UNL     1      -5.277   9.497  69.222  1.00  0.00    -0.036 OA 
HETATM   20  O   UNL     1      -5.671  11.355  70.956  1.00  0.00    -0.329 OA 
BRANCH  14  21
HETATM   21  C   UNL     1      -6.091  11.421  66.373  1.00  0.00    -0.085 C  
BRANCH  21  22
HETATM   22  O   UNL     1      -6.535  10.114  66.030  1.00  0.00    -0.085 OA 
BRANCH  22  23
HETATM   23  P   UNL     1      -6.427   9.653  64.505  1.00  0.00    -0.113 P  
HETATM   24  O   UNL     1      -6.185  10.717  63.488  1.00  0.00    -0.072 OA 
HETATM   25  O   UNL     1      -5.147   8.681  64.551  1.00  0.00    -0.038 OA 
BRANCH  23  26
HETATM   26  O   UNL     1      -7.610   8.642  64.229  1.00  0.00    -0.108 OA 
BRANCH  26  27
HETATM   27  P   UNL     1      -7.535   7.077  64.443  1.00  0.00    -0.113 P  
HETATM   28  O   UNL     1      -6.034   6.728  63.988  1.00  0.00    -0.034 OA 
HETATM   29  O   UNL     1      -8.496   6.220  63.692  1.00  0.00     0.049 OA 
BRANCH  27  30
HETATM   30  O   UNL     1      -7.499   6.813  66.025  1.00  0.00    -0.077 OA 
BRANCH  30  31
HETATM   31  C   UNL     1      -8.410   7.474  66.896  1.00  0.00    -0.125 C  
BRANCH  31  32
HETATM   32  C   UNL     1      -8.301   7.020  68.348  1.00  0.00    -0.124 C  
HETATM   33  O   UNL     1      -9.332   7.611  69.163  1.00  0.00    -0.148 OA 
HETATM   34  C   UNL     1      -9.328   6.810  70.360  1.00  0.00    -0.163 C  
HETATM   35  H   UNL     1      -7.348   3.890  68.502  1.00  0.00     0.000 HD 
HETATM   36  C   UNL     1      -9.137   5.363  69.879  1.00  0.00    -0.135 C  
HETATM   37  C   UNL     1      -8.480   5.514  68.505  1.00  0.00    -0.100 C  
HETATM   38  H   UNL     1      -8.205   3.676  70.451  1.00  0.00     0.000 HD 
HETATM   39  O   UNL     1      -8.323   4.570  70.748  1.00  0.00    -0.084 OA 
HETATM   40  O   UNL     1      -7.237   4.828  68.404  1.00  0.00    -0.060 OA 
BRANCH  34  41
HETATM   41  N   UNL     1     -10.551   7.008  71.111  1.00  0.00    -0.216 NA 
HETATM   42  C   UNL     1     -11.240   6.093  71.856  1.00  0.00    -0.284 A  
HETATM   43  N   UNL     1     -12.291   6.629  72.444  1.00  0.00    -0.075 NA 
HETATM   44  C   UNL     1     -12.294   7.947  72.033  1.00  0.00    -0.308 A  
HETATM   45  C   UNL     1     -13.139   9.032  72.317  1.00  0.00    -0.445 A  
HETATM   46  N   UNL     1     -14.210   8.954  73.195  1.00  0.00    -1.200 NA 
HETATM   47  N   UNL     1     -12.898  10.215  71.703  1.00  0.00    -0.417 NA 
HETATM   48  H1  UNL     1     -14.823   9.742  73.402  1.00  0.00     0.000 HD 
HETATM   49  C   UNL     1     -11.830  10.308  70.882  1.00  0.00    -0.377 A  
HETATM   50  H2  UNL     1     -13.848   8.610  74.086  1.00  0.00     0.000 HD 
HETATM   51  N   UNL     1     -10.919   9.356  70.573  1.00  0.00    -0.253 NA 
HETATM   52  C   UNL     1     -11.232   8.195  71.179  1.00  0.00    -0.257 A  
ENDBRANCH  34  41
ENDBRANCH  31  32
ENDBRANCH  30  31
ENDBRANCH  27  30
ENDBRANCH  26  27
ENDBRANCH  23  26
ENDBRANCH  22  23
ENDBRANCH  21  22
ENDBRANCH  14  21
ENDBRANCH   8  12
ENDBRANCH   4   6
TORSDOF 11
ENDMDL
MODEL      244
REMARK 921   NORMALIZED FREE ENERGY PREDICTED BY IDOCK:   -3.51 KCAL/MOL
REMARK 922        TOTAL FREE ENERGY PREDICTED BY IDOCK:   -7.97 KCAL/MOL
REMARK 923 INTER-LIGAND FREE ENERGY PREDICTED BY IDOCK:   -8.55 KCAL/MOL
REMARK 924 INTRA-LIGAND FREE ENERGY PREDICTED BY IDOCK:    0.59 KCAL/MOL
REMARK 927      BINDING AFFINITY PREDICTED BY RF-SCORE:    0.00 PKD
ROOT
HETATM    1  N   UNL     1      -6.795  17.555  68.966  1.00  0.00    -0.239 N  
HETATM    2  H1  UNL     1      -7.598  17.796  69.548  1.00  0.00     0.000 HD 
HETATM    3  H2  UNL     1      -5.937  17.221  69.404  1.00  0.00     0.000 HD 
HETATM    4  C   UNL     1      -6.856  17.674  67.621  1.00  0.00    -0.174 C  
HETATM    5  O   UNL     1      -5.888  17.383  66.919  1.00  0.00    -0.134 OA 
ENDROOT
BRANCH   4   6
HETATM    6  C   UNL     1      -8.128  18.178  67.055  1.00  0.00    -0.239 C  
HETATM    7  C   UNL     1      -8.961  17.255  66.540  1.00  0.00    -0.268 C  
HETATM    8  N   UNL     1     -10.221  17.553  66.026  1.00  0.00    -0.512 NA 
HETATM    9  C   UNL     1      -8.520  19.629  67.111  1.00  0.00    -0.345 C  
HETATM   10  C   UNL     1     -10.564  18.905  65.908  1.00  0.00    -0.373 C  
HETATM   11  C   UNL     1      -9.815  19.908  66.389  1.00  0.00    -0.572 C  
BRANCH   8  12
HETATM   12  C   UNL     1     -11.267  16.544  65.752  1.00  0.00     0.298 C  
HETATM   13  O   UNL     1     -11.395  15.682  66.905  1.00  0.00    -0.185 OA 
HETATM   14  C   UNL     1     -10.480  14.578  66.731  1.00  0.00    -0.270 C  
HETATM   15  H   UNL     1     -12.178  14.373  63.436  1.00  0.00     0.000 HD 
HETATM   16  C   UNL     1     -10.220  14.438  65.233  1.00  0.00    -0.389 C  
HETATM   17  H   UNL     1     -10.466  13.059  63.837  1.00  0.00     0.000 HD 
HETATM   18  C   UNL     1     -11.052  15.549  64.600  1.00  0.00    -0.359 C  
HETATM   19  O   UNL     1     -10.628  13.145  64.770  1.00  0.00    -0.330 OA 
HETATM   20  O   UNL     1     -12.310  14.988  64.148  1.00  0.00    -0.659 OA 
BRANCH  14  21
HETATM   21  C   UNL     1      -9.187  14.824  67.524  1.00  0.00    -0.198 C  
BRANCH  21  22
HETATM   22  O   UNL     1      -8.146  13.957  67.092  1.00  0.00    -0.162 OA 
BRANCH  22  23
HETATM   23  P   UNL     1      -8.142  12.452  67.627  1.00  0.00    -0.196 P  
HETATM   24  O   UNL     1      -9.430  11.702  67.559  1.00  0.00    -0.168 OA 
HETATM   25  O   UNL     1      -7.087  11.758  66.631  1.00  0.00    -0.090 OA 
BRANCH  23  26
HETATM   26  O   UNL     1      -7.367  12.438  69.004  1.00  0.00    -0.072 OA 
BRANCH  26  27
HETATM   27  P   UNL     1      -6.551  11.209  69.574  1.00  0.00    -0.127 P  
HETATM   28  O   UNL     1      -5.903  11.806  70.918  1.00  0.00    -0.345 OA 
HETATM   29  O   UNL     1      -5.478  10.624  68.721  1.00  0.00    -0.042 OA 
BRANCH  27  30
HETATM   30  O   UNL     1      -7.617  10.148  70.132  1.00  0.00    -0.167 OA 
BRANCH  30  31
HETATM   31  C   UNL     1      -7.951   8.986  69.381  1.00  0.00    -0.100 C  
BRANCH  31  32
HETATM   32  C   UNL     1      -7.286   7.715  69.900  1.00  0.00    -0.072 C  
HETATM   33  O   UNL     1      -8.204   6.921  70.677  1.00  0.00    -0.117 OA 
HETATM   34  C   UNL     1      -7.566   5.632  70.755  1.00  0.00    -0.091 C  
HETATM   35  H   UNL     1      -5.191   6.529  67.679  1.00  0.00     0.000 HD 
HETATM   36  C   UNL     1      -6.967   5.392  69.359  1.00  0.00    -0.059 C  
HETATM   37  C   UNL     1      -6.817   6.799  68.774  1.00  0.00    -0.066 C  
HETATM   38  H   UNL     1      -5.336   4.567  68.521  1.00  0.00     0.000 HD 
HETATM   39  O   UNL     1      -5.707   4.715  69.383  1.00  0.00    -0.015 OA 
HETATM   40  O   UNL     1      -5.483   7.099  68.380  1.00  0.00    -0.019 OA 
BRANCH  34  41
HETATM   41  N   UNL     1      -8.517   4.614  71.152  1.00  0.00    -0.105 NA 
HETATM   42  C   UNL     1      -8.799   3.433  70.525  1.00  0.00    -0.083 A  
HETATM   43  N   UNL     1      -9.690   2.724  71.190  1.00  0.00    -0.151 NA 
HETATM   44  C   UNL     1     -10.017   3.501  72.283  1.00  0.00    -0.166 A  
HETATM   45  C   UNL     1     -10.890   3.304  73.366  1.00  0.00    -0.208 A  
HETATM   46  N   UNL     1     -11.618   2.138  73.555  1.00  0.00    -0.208 NA 
HETATM   47  N   UNL     1     -11.031   4.301  74.271  1.00  0.00    -0.232 NA 
HETATM   48  H1  UNL     1     -12.252   1.995  74.341  1.00  0.00     0.000 HD 
HETATM   49  C   UNL     1     -10.290   5.420  74.116  1.00  0.00    -0.280 A  
HETATM   50  H2  UNL     1     -10.954   1.363  73.555  1.00  0.00     0.000 HD 
HETATM   51  N   UNL     1      -9.384   5.703  73.152  1.00  0.00    -0.140 NA 
HETATM   52  C   UNL     1      -9.317   4.696  72.262  1.00  0.00    -0.128 A  
ENDBRANCH  34  41
ENDBRANCH  31  32
ENDBRANCH  30  31
ENDBRANCH  27  30
ENDBRANCH  26  27
ENDBRANCH  23  26
ENDBRANCH  22  23
ENDBRANCH  21  22
ENDBRANCH  14  21
ENDBRANCH   8  12
ENDBRANCH   4   6
TORSDOF 11
ENDMDL
MODEL      245
REMARK 921   NORMALIZED FREE ENERGY PREDICTED BY IDOCK:   -3.47 KCAL/MOL
REMARK 922        TOTAL FREE ENERGY PREDICTED BY IDOCK:   -7.91 KCAL/MOL
REMARK 923 INTER-LIGAND FREE ENERGY PREDICTED BY IDOCK:   -7.55 KCAL/MOL
REMARK 924 INTRA-LIGAND FREE ENERGY PREDICTED BY IDOCK:   -0.35 KCAL/MOL
REMARK 927      BINDING AFFINITY PREDICTED BY RF-SCORE:    0.00 PKD
ROOT
HETATM    1  N   UNL     1      -9.608  20.656  67.389  1.00  0.00    -0.493 N  
HETATM    2  H1  UNL     1      -9.323  20.514  68.358  1.00  0.00     0.000 HD 
HETATM    3  H2  UNL     1     -10.115  21.503  67.131  1.00  0.00     0.000 HD 
HETATM    4  C   UNL     1      -9.323  19.734  66.443  1.00  0.00    -0.401 C  
HETATM    5  O   UNL     1      -9.668  19.905  65.273  1.00  0.00    -0.084 OA 
ENDROOT
BRANCH   4   6
HETATM    6  C   UNL     1      -8.598  18.524  66.890  1.00  0.00    -0.281 C  
HETATM    7  C   UNL     1      -9.036  17.949  68.026  1.00  0.00    -0.267 C  
HETATM    8  N   UNL     1      -8.507  16.772  68.550  1.00  0.00    -0.234 NA 
HETATM    9  C   UNL     1      -7.479  17.909  66.094  1.00  0.00    -0.315 C  
HETATM   10  C   UNL     1      -7.362  16.252  67.935  1.00  0.00    -0.127 C  
HETATM   11  C   UNL     1      -6.840  16.739  66.799  1.00  0.00    -0.265 C  
BRANCH   8  12
HETATM   12  C   UNL     1      -9.162  15.961  69.599  1.00  0.00    -0.078 C  
HETATM   13  O   UNL     1      -9.060  14.565  69.237  1.00  0.00    -0.040 OA 
HETATM   14  C   UNL     1     -10.224  14.231  68.448  1.00  0.00    -0.245 C  
HETATM   15  H   UNL     1     -11.976  15.800  71.320  1.00  0.00     0.000 HD 
HETATM   16  C   UNL     1     -11.317  15.234  68.808  1.00  0.00    -0.308 C  
HETATM   17  H   UNL     1     -13.143  15.184  69.567  1.00  0.00     0.000 HD 
HETATM   18  C   UNL     1     -10.668  16.145  69.845  1.00  0.00    -0.328 C  
HETATM   19  O   UNL     1     -12.462  14.559  69.343  1.00  0.00    -0.230 OA 
HETATM   20  O   UNL     1     -11.045  15.687  71.168  1.00  0.00    -0.348 OA 
BRANCH  14  21
HETATM   21  C   UNL     1      -9.880  14.259  66.950  1.00  0.00    -0.263 C  
BRANCH  21  22
HETATM   22  O   UNL     1      -9.607  12.952  66.461  1.00  0.00    -0.250 OA 
BRANCH  22  23
HETATM   23  P   UNL     1     -10.817  12.099  65.862  1.00  0.00    -0.301 P  
HETATM   24  O   UNL     1     -12.129  12.188  66.567  1.00  0.00    -0.627 OA 
HETATM   25  O   UNL     1     -10.973  12.746  64.397  1.00  0.00    -0.319 OA 
BRANCH  23  26
HETATM   26  O   UNL     1     -10.266  10.654  65.536  1.00  0.00    -0.264 OA 
BRANCH  26  27
HETATM   27  P   UNL     1      -9.287  10.303  64.345  1.00  0.00    -0.313 P  
HETATM   28  O   UNL     1      -9.286  11.655  63.476  1.00  0.00    -0.185 OA 
HETATM   29  O   UNL     1      -9.635   9.148  63.469  1.00  0.00     0.665 OA 
BRANCH  27  30
HETATM   30  O   UNL     1      -7.800  10.264  64.945  1.00  0.00    -0.146 OA 
BRANCH  30  31
HETATM   31  C   UNL     1      -7.581  10.219  66.351  1.00  0.00    -0.117 C  
BRANCH  31  32
HETATM   32  C   UNL     1      -6.992   8.898  66.833  1.00  0.00    -0.078 C  
HETATM   33  O   UNL     1      -6.584   8.977  68.213  1.00  0.00    -0.058 OA 
HETATM   34  C   UNL     1      -6.423   7.600  68.605  1.00  0.00    -0.048 C  
HETATM   35  H   UNL     1      -8.584   6.373  65.487  1.00  0.00     0.000 HD 
HETATM   36  C   UNL     1      -7.595   6.853  67.948  1.00  0.00    -0.107 C  
HETATM   37  C   UNL     1      -7.998   7.754  66.777  1.00  0.00    -0.107 C  
HETATM   38  H   UNL     1      -7.978   5.080  67.081  1.00  0.00     0.000 HD 
HETATM   39  O   UNL     1      -7.255   5.542  67.488  1.00  0.00    -0.072 OA 
HETATM   40  O   UNL     1      -7.957   7.085  65.522  1.00  0.00    -0.114 OA 
BRANCH  34  41
HETATM   41  N   UNL     1      -6.405   7.480  70.049  1.00  0.00    -0.031 NA 
HETATM   42  C   UNL     1      -5.510   6.799  70.826  1.00  0.00    -0.023 A  
HETATM   43  N   UNL     1      -5.769   6.940  72.111  1.00  0.00    -0.037 NA 
HETATM   44  C   UNL     1      -6.902   7.727  72.161  1.00  0.00    -0.060 A  
HETATM   45  C   UNL     1      -7.662   8.238  73.226  1.00  0.00    -0.126 A  
HETATM   46  N   UNL     1      -7.330   8.046  74.559  1.00  0.00    -0.167 NA 
HETATM   47  N   UNL     1      -8.776   8.953  72.939  1.00  0.00    -0.196 NA 
HETATM   48  H1  UNL     1      -7.882   8.418  75.332  1.00  0.00     0.000 HD 
HETATM   49  C   UNL     1      -9.079   9.179  71.642  1.00  0.00     0.026 A  
HETATM   50  H2  UNL     1      -6.372   8.376  74.684  1.00  0.00     0.000 HD 
HETATM   51  N   UNL     1      -8.401   8.788  70.538  1.00  0.00    -0.132 NA 
HETATM   52  C   UNL     1      -7.330   8.050  70.884  1.00  0.00    -0.058 A  
ENDBRANCH  34  41
ENDBRANCH  31  32
ENDBRANCH  30  31
ENDBRANCH  27  30
ENDBRANCH  26  27
ENDBRANCH  23  26
ENDBRANCH  22  23
ENDBRANCH  21  22
ENDBRANCH  14  21
ENDBRANCH   8  12
ENDBRANCH   4   6
TORSDOF 11
ENDMDL
MODEL      246
REMARK 921   NORMALIZED FREE ENERGY PREDICTED BY IDOCK:   -3.45 KCAL/MOL
REMARK 922        TOTAL FREE ENERGY PREDICTED BY IDOCK:   -7.86 KCAL/MOL
REMARK 923 INTER-LIGAND FREE ENERGY PREDICTED BY IDOCK:   -6.61 KCAL/MOL
REMARK 924 INTRA-LIGAND FREE ENERGY PREDICTED BY IDOCK:   -1.25 KCAL/MOL
REMARK 927      BINDING AFFINITY PREDICTED BY RF-SCORE:    0.00 PKD
ROOT
HETATM    1  N   UNL     1      -7.919  14.588  69.933  1.00  0.00    -0.269 N  
HETATM    2  H1  UNL     1      -8.783  14.065  69.787  1.00  0.00     0.000 HD 
HETATM    3  H2  UNL     1      -7.320  14.361  70.726  1.00  0.00     0.000 HD 
HETATM    4  C   UNL     1      -7.560  15.579  69.087  1.00  0.00    -0.204 C  
HETATM    5  O   UNL     1      -6.518  16.210  69.263  1.00  0.00    -0.157 OA 
ENDROOT
BRANCH   4   6
HETATM    6  C   UNL     1      -8.484  15.864  67.965  1.00  0.00    -0.162 C  
HETATM    7  C   UNL     1      -9.424  14.934  67.713  1.00  0.00    -0.203 C  
HETATM    8  N   UNL     1     -10.407  15.075  66.737  1.00  0.00    -0.265 NA 
HETATM    9  C   UNL     1      -8.442  17.151  67.189  1.00  0.00    -0.219 C  
HETATM   10  C   UNL     1     -10.311  16.179  65.882  1.00  0.00    -0.367 C  
HETATM   11  C   UNL     1      -9.421  17.169  66.041  1.00  0.00    -0.167 C  
BRANCH   8  12
HETATM   12  C   UNL     1     -11.620  14.231  66.651  1.00  0.00    -0.383 C  
HETATM   13  O   UNL     1     -11.238  12.849  66.828  1.00  0.00    -0.276 OA 
HETATM   14  C   UNL     1     -10.937  12.307  65.522  1.00  0.00    -0.298 C  
HETATM   15  H   UNL     1     -14.265  13.749  64.733  1.00  0.00     0.000 HD 
HETATM   16  C   UNL     1     -11.684  13.155  64.497  1.00  0.00    -0.371 C  
HETATM   17  H   UNL     1     -13.069  12.877  63.113  1.00  0.00     0.000 HD 
HETATM   18  C   UNL     1     -12.411  14.205  65.333  1.00  0.00    -0.463 C  
HETATM   19  O   UNL     1     -12.604  12.348  63.751  1.00  0.00    -0.633 OA 
HETATM   20  O   UNL     1     -13.776  13.766  65.548  1.00  0.00    -0.321 OA 
BRANCH  14  21
HETATM   21  C   UNL     1      -9.419  12.307  65.280  1.00  0.00     0.074 C  
BRANCH  21  22
HETATM   22  O   UNL     1      -8.738  11.569  66.288  1.00  0.00    -0.185 OA 
BRANCH  22  23
HETATM   23  P   UNL     1      -7.932  10.260  65.854  1.00  0.00    -0.145 P  
HETATM   24  O   UNL     1      -8.352   9.590  64.589  1.00  0.00    -0.137 OA 
HETATM   25  O   UNL     1      -6.446  10.845  65.661  1.00  0.00    -0.086 OA 
BRANCH  23  26
HETATM   26  O   UNL     1      -7.774   9.352  67.138  1.00  0.00    -0.091 OA 
BRANCH  26  27
HETATM   27  P   UNL     1      -6.671   9.543  68.255  1.00  0.00    -0.058 P  
HETATM   28  O   UNL     1      -7.228   8.640  69.462  1.00  0.00    -0.057 OA 
HETATM   29  O   UNL     1      -6.405  10.924  68.747  1.00  0.00    -0.046 OA 
BRANCH  27  30
HETATM   30  O   UNL     1      -5.367   8.739  67.780  1.00  0.00    -0.034 OA 
BRANCH  30  31
HETATM   31  C   UNL     1      -5.382   7.961  66.587  1.00  0.00    -0.028 C  
BRANCH  31  32
HETATM   32  C   UNL     1      -5.547   6.466  66.839  1.00  0.00    -0.013 C  
HETATM   33  O   UNL     1      -6.248   6.215  68.072  1.00  0.00    -0.026 OA 
HETATM   34  C   UNL     1      -6.648   4.835  67.968  1.00  0.00    -0.046 C  
HETATM   35  H   UNL     1      -6.073   4.881  64.022  1.00  0.00     0.000 HD 
HETATM   36  C   UNL     1      -7.091   4.652  66.507  1.00  0.00    -0.075 C  
HETATM   37  C   UNL     1      -6.376   5.779  65.759  1.00  0.00    -0.042 C  
HETATM   38  H   UNL     1      -7.020   3.264  65.054  1.00  0.00     0.000 HD 
HETATM   39  O   UNL     1      -6.747   3.377  65.957  1.00  0.00    -0.039 OA 
HETATM   40  O   UNL     1      -5.557   5.308  64.694  1.00  0.00    -0.016 OA 
BRANCH  34  41
HETATM   41  N   UNL     1      -7.691   4.531  68.926  1.00  0.00    -0.070 NA 
HETATM   42  C   UNL     1      -8.882   5.177  69.108  1.00  0.00    -0.092 A  
HETATM   43  N   UNL     1      -9.614   4.602  70.042  1.00  0.00    -0.169 NA 
HETATM   44  C   UNL     1      -8.844   3.554  70.502  1.00  0.00    -0.081 A  
HETATM   45  C   UNL     1      -9.063   2.565  71.476  1.00  0.00    -0.094 A  
HETATM   46  N   UNL     1     -10.249   2.446  72.186  1.00  0.00    -0.147 NA 
HETATM   47  N   UNL     1      -8.067   1.685  71.737  1.00  0.00    -0.041 NA 
HETATM   48  H1  UNL     1     -10.407   1.727  72.893  1.00  0.00     0.000 HD 
HETATM   49  C   UNL     1      -6.928   1.771  71.017  1.00  0.00    -0.032 A  
HETATM   50  H2  UNL     1     -11.005   2.373  71.504  1.00  0.00     0.000 HD 
HETATM   51  N   UNL     1      -6.622   2.638  70.024  1.00  0.00    -0.032 NA 
HETATM   52  C   UNL     1      -7.629   3.510  69.837  1.00  0.00    -0.044 A  
ENDBRANCH  34  41
ENDBRANCH  31  32
ENDBRANCH  30  31
ENDBRANCH  27  30
ENDBRANCH  26  27
ENDBRANCH  23  26
ENDBRANCH  22  23
ENDBRANCH  21  22
ENDBRANCH  14  21
ENDBRANCH   8  12
ENDBRANCH   4   6
TORSDOF 11
ENDMDL
MODEL      247
REMARK 921   NORMALIZED FREE ENERGY PREDICTED BY IDOCK:   -3.43 KCAL/MOL
REMARK 922        TOTAL FREE ENERGY PREDICTED BY IDOCK:   -7.83 KCAL/MOL
REMARK 923 INTER-LIGAND FREE ENERGY PREDICTED BY IDOCK:   -7.09 KCAL/MOL
REMARK 924 INTRA-LIGAND FREE ENERGY PREDICTED BY IDOCK:   -0.74 KCAL/MOL
REMARK 927      BINDING AFFINITY PREDICTED BY RF-SCORE:    0.00 PKD
ROOT
HETATM    1  N   UNL     1      -8.747   5.205  67.617  1.00  0.00    -0.104 N  
HETATM    2  H1  UNL     1      -7.971   5.455  68.231  1.00  0.00     0.000 HD 
HETATM    3  H2  UNL     1      -9.219   4.310  67.740  1.00  0.00     0.000 HD 
HETATM    4  C   UNL     1      -9.156   6.047  66.642  1.00  0.00    -0.137 C  
HETATM    5  O   UNL     1     -10.091   5.746  65.901  1.00  0.00     0.015 OA 
ENDROOT
BRANCH   4   6
HETATM    6  C   UNL     1      -8.416   7.323  66.512  1.00  0.00    -0.125 C  
HETATM    7  C   UNL     1      -7.999   7.893  67.658  1.00  0.00    -0.124 C  
HETATM    8  N   UNL     1      -7.238   9.058  67.708  1.00  0.00    -0.083 NA 
HETATM    9  C   UNL     1      -8.073   7.928  65.178  1.00  0.00    -0.144 C  
HETATM   10  C   UNL     1      -7.031   9.744  66.506  1.00  0.00    -0.085 C  
HETATM   11  C   UNL     1      -7.398   9.271  65.306  1.00  0.00    -0.094 C  
BRANCH   8  12
HETATM   12  C   UNL     1      -6.510   9.524  68.909  1.00  0.00    -0.046 C  
HETATM   13  O   UNL     1      -5.867   8.389  69.532  1.00  0.00    -0.030 OA 
HETATM   14  C   UNL     1      -6.798   7.828  70.485  1.00  0.00    -0.042 C  
HETATM   15  H   UNL     1      -6.958  11.360  71.617  1.00  0.00     0.000 HD 
HETATM   16  C   UNL     1      -7.769   8.939  70.876  1.00  0.00    -0.122 C  
HETATM   17  H   UNL     1      -8.305   9.886  72.528  1.00  0.00     0.000 HD 
HETATM   18  C   UNL     1      -7.309  10.146  70.065  1.00  0.00    -0.165 C  
HETATM   19  O   UNL     1      -7.700   9.195  72.285  1.00  0.00    -0.304 OA 
HETATM   20  O   UNL     1      -6.464  10.975  70.902  1.00  0.00    -0.277 OA 
BRANCH  14  21
HETATM   21  C   UNL     1      -7.519   6.614  69.878  1.00  0.00    -0.095 C  
BRANCH  21  22
HETATM   22  O   UNL     1      -6.669   5.474  69.848  1.00  0.00    -0.047 OA 
BRANCH  22  23
HETATM   23  P   UNL     1      -7.109   4.180  70.674  1.00  0.00    -0.038 P  
HETATM   24  O   UNL     1      -7.482   2.966  69.891  1.00  0.00    -0.044 OA 
HETATM   25  O   UNL     1      -5.774   3.863  71.513  1.00  0.00    -0.008 OA 
BRANCH  23  26
HETATM   26  O   UNL     1      -8.112   4.651  71.800  1.00  0.00    -0.099 OA 
BRANCH  26  27
HETATM   27  P   UNL     1      -9.037   3.692  72.652  1.00  0.00    -0.107 P  
HETATM   28  O   UNL     1      -8.014   3.076  73.728  1.00  0.00    -0.063 OA 
HETATM   29  O   UNL     1      -9.740   2.585  71.943  1.00  0.00    -0.130 OA 
BRANCH  27  30
HETATM   30  O   UNL     1      -9.986   4.620  73.553  1.00  0.00    -0.140 OA 
BRANCH  30  31
HETATM   31  C   UNL     1      -9.795   6.030  73.601  1.00  0.00    -0.178 C  
BRANCH  31  32
HETATM   32  C   UNL     1     -11.013   6.824  73.140  1.00  0.00    -0.246 C  
HETATM   33  O   UNL     1     -10.625   8.000  72.404  1.00  0.00    -0.257 OA 
HETATM   34  C   UNL     1     -11.834   8.405  71.735  1.00  0.00    -0.316 C  
HETATM   35  H   UNL     1     -13.450   4.803  72.300  1.00  0.00     0.000 HD 
HETATM   36  C   UNL     1     -12.490   7.098  71.261  1.00  0.00    -0.386 C  
HETATM   37  C   UNL     1     -11.902   6.031  72.188  1.00  0.00    -0.247 C  
HETATM   38  H   UNL     1     -14.324   6.302  71.048  1.00  0.00     0.000 HD 
HETATM   39  O   UNL     1     -13.919   7.109  71.341  1.00  0.00    -0.370 OA 
HETATM   40  O   UNL     1     -12.896   5.297  72.893  1.00  0.00     0.254 OA 
BRANCH  34  41
HETATM   41  N   UNL     1     -11.538   9.322  70.653  1.00  0.00    -0.267 NA 
HETATM   42  C   UNL     1     -10.860   9.067  69.494  1.00  0.00    -0.166 A  
HETATM   43  N   UNL     1     -10.813  10.126  68.710  1.00  0.00    -0.217 NA 
HETATM   44  C   UNL     1     -11.468  11.117  69.412  1.00  0.00    -0.298 A  
HETATM   45  C   UNL     1     -11.764  12.458  69.117  1.00  0.00    -0.322 A  
HETATM   46  N   UNL     1     -11.443  13.060  67.909  1.00  0.00    -0.290 NA 
HETATM   47  N   UNL     1     -12.392  13.202  70.058  1.00  0.00    -0.224 NA 
HETATM   48  H1  UNL     1     -11.658  14.034  67.695  1.00  0.00     0.000 HD 
HETATM   49  C   UNL     1     -12.747  12.608  71.217  1.00  0.00    -0.257 A  
HETATM   50  H2  UNL     1     -11.850  12.490  67.167  1.00  0.00     0.000 HD 
HETATM   51  N   UNL     1     -12.566  11.321  71.594  1.00  0.00    -0.303 NA 
HETATM   52  C   UNL     1     -11.903  10.642  70.638  1.00  0.00    -0.363 A  
ENDBRANCH  34  41
ENDBRANCH  31  32
ENDBRANCH  30  31
ENDBRANCH  27  30
ENDBRANCH  26  27
ENDBRANCH  23  26
ENDBRANCH  22  23
ENDBRANCH  21  22
ENDBRANCH  14  21
ENDBRANCH   8  12
ENDBRANCH   4   6
TORSDOF 11
ENDMDL
MODEL      248
REMARK 921   NORMALIZED FREE ENERGY PREDICTED BY IDOCK:   -3.41 KCAL/MOL
REMARK 922        TOTAL FREE ENERGY PREDICTED BY IDOCK:   -7.81 KCAL/MOL
REMARK 923 INTER-LIGAND FREE ENERGY PREDICTED BY IDOCK:   -7.73 KCAL/MOL
REMARK 924 INTRA-LIGAND FREE ENERGY PREDICTED BY IDOCK:   -0.07 KCAL/MOL
REMARK 927      BINDING AFFINITY PREDICTED BY RF-SCORE:    0.00 PKD
ROOT
HETATM    1  N   UNL     1     -10.209  11.439  62.766  1.00  0.00    -0.629 N  
HETATM    2  H1  UNL     1      -9.735  12.165  62.230  1.00  0.00     0.000 HD 
HETATM    3  H2  UNL     1     -10.075  10.458  62.518  1.00  0.00     0.000 HD 
HETATM    4  C   UNL     1     -11.013  11.760  63.804  1.00  0.00    -0.429 C  
HETATM    5  O   UNL     1     -11.586  10.884  64.452  1.00  0.00     0.380 OA 
ENDROOT
BRANCH   4   6
HETATM    6  C   UNL     1     -11.172  13.202  64.100  1.00  0.00    -0.433 C  
HETATM    7  C   UNL     1     -10.244  13.754  64.903  1.00  0.00    -0.348 C  
HETATM    8  N   UNL     1     -10.211  15.108  65.229  1.00  0.00    -0.370 NA 
HETATM    9  C   UNL     1     -12.260  14.040  63.485  1.00  0.00    -0.021 C  
HETATM   10  C   UNL     1     -11.292  15.895  64.815  1.00  0.00    -0.309 C  
HETATM   11  C   UNL     1     -12.270  15.454  64.010  1.00  0.00     0.031 C  
BRANCH   8  12
HETATM   12  C   UNL     1      -9.047  15.789  65.837  1.00  0.00    -0.265 C  
HETATM   13  O   UNL     1      -8.479  14.925  66.846  1.00  0.00    -0.228 OA 
HETATM   14  C   UNL     1      -9.133  15.226  68.099  1.00  0.00    -0.174 C  
HETATM   15  H   UNL     1      -8.189  18.691  67.160  1.00  0.00     0.000 HD 
HETATM   16  C   UNL     1      -9.673  16.650  67.997  1.00  0.00    -0.241 C  
HETATM   17  H   UNL     1      -9.426  18.369  68.944  1.00  0.00     0.000 HD 
HETATM   18  C   UNL     1      -9.273  17.106  66.597  1.00  0.00    -0.260 C  
HETATM   19  O   UNL     1      -9.090  17.482  69.007  1.00  0.00    -0.186 OA 
HETATM   20  O   UNL     1      -8.049  17.877  66.689  1.00  0.00    -0.231 OA 
BRANCH  14  21
HETATM   21  C   UNL     1     -10.244  14.203  68.381  1.00  0.00    -0.247 C  
BRANCH  21  22
HETATM   22  O   UNL     1     -10.137  13.076  67.519  1.00  0.00    -0.214 OA 
BRANCH  22  23
HETATM   23  P   UNL     1      -9.378  11.779  68.059  1.00  0.00    -0.192 P  
HETATM   24  O   UNL     1      -7.889  11.841  68.131  1.00  0.00    -0.119 OA 
HETATM   25  O   UNL     1      -9.963  11.660  69.552  1.00  0.00     0.267 OA 
BRANCH  23  26
HETATM   26  O   UNL     1     -10.017  10.522  67.345  1.00  0.00    -0.170 OA 
BRANCH  26  27
HETATM   27  P   UNL     1      -9.207   9.279  66.799  1.00  0.00    -0.166 P  
HETATM   28  O   UNL     1      -7.679   9.739  66.991  1.00  0.00    -0.095 OA 
HETATM   29  O   UNL     1      -9.429   8.865  65.384  1.00  0.00    -0.172 OA 
BRANCH  27  30
HETATM   30  O   UNL     1      -9.362   8.098  67.874  1.00  0.00    -0.134 OA 
BRANCH  30  31
HETATM   31  C   UNL     1     -10.499   7.242  67.860  1.00  0.00    -0.209 C  
BRANCH  31  32
HETATM   32  C   UNL     1     -11.164   7.092  69.224  1.00  0.00    -0.070 C  
HETATM   33  O   UNL     1     -10.674   5.930  69.922  1.00  0.00    -0.274 OA 
HETATM   34  C   UNL     1     -11.089   6.144  71.284  1.00  0.00    -0.291 C  
HETATM   35  H   UNL     1     -11.665  10.028  70.586  1.00  0.00     0.000 HD 
HETATM   36  C   UNL     1     -10.859   7.642  71.547  1.00  0.00    -0.227 C  
HETATM   37  C   UNL     1     -10.872   8.268  70.150  1.00  0.00    -0.237 C  
HETATM   38  H   UNL     1     -11.714   9.164  72.543  1.00  0.00     0.000 HD 
HETATM   39  O   UNL     1     -11.856   8.239  72.381  1.00  0.00    -0.364 OA 
HETATM   40  O   UNL     1     -11.846   9.295  70.010  1.00  0.00    -0.006 OA 
BRANCH  34  41
HETATM   41  N   UNL     1     -10.348   5.285  72.185  1.00  0.00    -0.206 NA 
HETATM   42  C   UNL     1     -10.805   4.640  73.300  1.00  0.00    -0.272 A  
HETATM   43  N   UNL     1      -9.866   3.902  73.860  1.00  0.00    -0.108 NA 
HETATM   44  C   UNL     1      -8.744   4.104  73.081  1.00  0.00    -0.095 A  
HETATM   45  C   UNL     1      -7.436   3.596  73.143  1.00  0.00    -0.064 A  
HETATM   46  N   UNL     1      -7.026   2.665  74.086  1.00  0.00    -0.034 NA 
HETATM   47  N   UNL     1      -6.529   4.038  72.240  1.00  0.00    -0.020 NA 
HETATM   48  H1  UNL     1      -6.075   2.296  74.130  1.00  0.00     0.000 HD 
HETATM   49  C   UNL     1      -6.936   4.911  71.294  1.00  0.00    -0.047 A  
HETATM   50  H2  UNL     1      -7.658   1.866  74.019  1.00  0.00     0.000 HD 
HETATM   51  N   UNL     1      -8.172   5.428  71.100  1.00  0.00    -0.117 NA 
HETATM   52  C   UNL     1      -9.018   4.986  72.048  1.00  0.00    -0.132 A  
ENDBRANCH  34  41
ENDBRANCH  31  32
ENDBRANCH  30  31
ENDBRANCH  27  30
ENDBRANCH  26  27
ENDBRANCH  23  26
ENDBRANCH  22  23
ENDBRANCH  21  22
ENDBRANCH  14  21
ENDBRANCH   8  12
ENDBRANCH   4   6
TORSDOF 11
ENDMDL
MODEL      249
REMARK 921   NORMALIZED FREE ENERGY PREDICTED BY IDOCK:   -3.35 KCAL/MOL
REMARK 922        TOTAL FREE ENERGY PREDICTED BY IDOCK:   -7.71 KCAL/MOL
REMARK 923 INTER-LIGAND FREE ENERGY PREDICTED BY IDOCK:   -7.85 KCAL/MOL
REMARK 924 INTRA-LIGAND FREE ENERGY PREDICTED BY IDOCK:    0.14 KCAL/MOL
REMARK 927      BINDING AFFINITY PREDICTED BY RF-SCORE:    0.00 PKD
ROOT
HETATM    1  N   UNL     1      -6.063  17.474  67.993  1.00  0.00    -0.150 N  
HETATM    2  H1  UNL     1      -6.147  17.397  66.979  1.00  0.00     0.000 HD 
HETATM    3  H2  UNL     1      -5.561  18.264  68.399  1.00  0.00     0.000 HD 
HETATM    4  C   UNL     1      -6.609  16.542  68.805  1.00  0.00    -0.161 C  
HETATM    5  O   UNL     1      -6.508  16.636  70.028  1.00  0.00    -0.133 OA 
ENDROOT
BRANCH   4   6
HETATM    6  C   UNL     1      -7.311  15.417  68.147  1.00  0.00    -0.122 C  
HETATM    7  C   UNL     1      -8.629  15.581  67.925  1.00  0.00    -0.155 C  
HETATM    8  N   UNL     1      -9.422  14.648  67.262  1.00  0.00    -0.214 NA 
HETATM    9  C   UNL     1      -6.596  14.181  67.676  1.00  0.00    -0.173 C  
HETATM   10  C   UNL     1      -8.839  13.415  66.949  1.00  0.00    -0.176 C  
HETATM   11  C   UNL     1      -7.537  13.141  67.121  1.00  0.00    -0.008 C  
BRANCH   8  12
HETATM   12  C   UNL     1     -10.774  14.933  66.732  1.00  0.00    -0.312 C  
HETATM   13  O   UNL     1     -11.754  14.471  67.688  1.00  0.00    -0.356 OA 
HETATM   14  C   UNL     1     -12.068  13.098  67.364  1.00  0.00    -0.263 C  
HETATM   15  H   UNL     1     -12.573  14.557  63.989  1.00  0.00     0.000 HD 
HETATM   16  C   UNL     1     -11.739  12.894  65.888  1.00  0.00    -0.399 C  
HETATM   17  H   UNL     1     -12.705  12.381  64.240  1.00  0.00     0.000 HD 
HETATM   18  C   UNL     1     -11.216  14.252  65.427  1.00  0.00    -0.329 C  
HETATM   19  O   UNL     1     -12.910  12.508  65.160  1.00  0.00    -0.685 OA 
HETATM   20  O   UNL     1     -12.299  14.978  64.796  1.00  0.00    -0.297 OA 
BRANCH  14  21
HETATM   21  C   UNL     1     -11.279  12.141  68.272  1.00  0.00    -0.268 C  
BRANCH  21  22
HETATM   22  O   UNL     1     -11.549  12.396  69.645  1.00  0.00    -0.285 OA 
BRANCH  22  23
HETATM   23  P   UNL     1     -12.245  11.246  70.507  1.00  0.00    -0.340 P  
HETATM   24  O   UNL     1     -13.275  11.669  71.501  1.00  0.00    -0.363 OA 
HETATM   25  O   UNL     1     -12.961  10.373  69.362  1.00  0.00     0.106 OA 
BRANCH  23  26
HETATM   26  O   UNL     1     -11.107  10.274  71.012  1.00  0.00    -0.276 OA 
BRANCH  26  27
HETATM   27  P   UNL     1     -10.010   9.604  70.092  1.00  0.00    -0.250 P  
HETATM   28  O   UNL     1      -9.404   8.456  71.038  1.00  0.00    -0.153 OA 
HETATM   29  O   UNL     1      -8.904  10.464  69.582  1.00  0.00    -0.142 OA 
BRANCH  27  30
HETATM   30  O   UNL     1     -10.781   8.766  68.962  1.00  0.00    -0.203 OA 
BRANCH  30  31
HETATM   31  C   UNL     1     -10.172   8.508  67.701  1.00  0.00    -0.236 C  
BRANCH  31  32
HETATM   32  C   UNL     1      -9.541   7.123  67.604  1.00  0.00    -0.130 C  
HETATM   33  O   UNL     1      -8.623   6.886  68.689  1.00  0.00    -0.123 OA 
HETATM   34  C   UNL     1      -8.424   5.460  68.669  1.00  0.00    -0.093 C  
HETATM   35  H   UNL     1     -11.715   4.949  66.476  1.00  0.00     0.000 HD 
HETATM   36  C   UNL     1      -9.812   4.863  68.383  1.00  0.00    -0.136 C  
HETATM   37  C   UNL     1     -10.571   6.003  67.700  1.00  0.00    -0.264 C  
HETATM   38  H   UNL     1     -10.634   3.333  67.370  1.00  0.00     0.000 HD 
HETATM   39  O   UNL     1      -9.777   3.702  67.547  1.00  0.00    -0.184 OA 
HETATM   40  O   UNL     1     -11.074   5.646  66.417  1.00  0.00    -0.160 OA 
BRANCH  34  41
HETATM   41  N   UNL     1      -7.853   5.007  69.921  1.00  0.00    -0.070 NA 
HETATM   42  C   UNL     1      -7.963   5.583  71.155  1.00  0.00    -0.111 A  
HETATM   43  N   UNL     1      -7.351   4.875  72.084  1.00  0.00    -0.080 NA 
HETATM   44  C   UNL     1      -6.797   3.806  71.409  1.00  0.00    -0.031 A  
HETATM   45  C   UNL     1      -6.039   2.701  71.830  1.00  0.00    -0.014 A  
HETATM   46  N   UNL     1      -5.726   2.455  73.159  1.00  0.00     0.000 NA 
HETATM   47  N   UNL     1      -5.590   1.832  70.894  1.00  0.00    -0.012 NA 
HETATM   48  H1  UNL     1      -5.177   1.652  73.465  1.00  0.00     0.000 HD 
HETATM   49  C   UNL     1      -5.930   2.043  69.604  1.00  0.00    -0.023 A  
HETATM   50  H2  UNL     1      -6.604   2.438  73.680  1.00  0.00     0.000 HD 
HETATM   51  N   UNL     1      -6.693   3.034  69.085  1.00  0.00    -0.036 NA 
HETATM   52  C   UNL     1      -7.075   3.886  70.054  1.00  0.00    -0.042 A  
ENDBRANCH  34  41
ENDBRANCH  31  32
ENDBRANCH  30  31
ENDBRANCH  27  30
ENDBRANCH  26  27
ENDBRANCH  23  26
ENDBRANCH  22  23
ENDBRANCH  21  22
ENDBRANCH  14  21
ENDBRANCH   8  12
ENDBRANCH   4   6
TORSDOF 11
ENDMDL
MODEL      250
REMARK 921   NORMALIZED FREE ENERGY PREDICTED BY IDOCK:   -3.34 KCAL/MOL
REMARK 922        TOTAL FREE ENERGY PREDICTED BY IDOCK:   -7.68 KCAL/MOL
REMARK 923 INTER-LIGAND FREE ENERGY PREDICTED BY IDOCK:   -7.37 KCAL/MOL
REMARK 924 INTRA-LIGAND FREE ENERGY PREDICTED BY IDOCK:   -0.31 KCAL/MOL
REMARK 927      BINDING AFFINITY PREDICTED BY RF-SCORE:    0.00 PKD
ROOT
HETATM    1  N   UNL     1      -9.214   3.787  63.204  1.00  0.00    -0.103 N  
HETATM    2  H1  UNL     1      -8.204   3.682  63.107  1.00  0.00     0.000 HD 
HETATM    3  H2  UNL     1      -9.801   3.813  62.371  1.00  0.00     0.000 HD 
HETATM    4  C   UNL     1      -9.783   3.894  64.425  1.00  0.00    -0.181 C  
HETATM    5  O   UNL     1     -11.002   4.021  64.543  1.00  0.00    -0.269 OA 
ENDROOT
BRANCH   4   6
HETATM    6  C   UNL     1      -8.870   3.863  65.590  1.00  0.00    -0.124 C  
HETATM    7  C   UNL     1      -9.448   3.774  66.802  1.00  0.00    -0.194 C  
HETATM    8  N   UNL     1      -8.733   3.672  67.993  1.00  0.00    -0.099 NA 
HETATM    9  C   UNL     1      -7.372   3.852  65.445  1.00  0.00    -0.072 C  
HETATM   10  C   UNL     1      -7.343   3.820  67.924  1.00  0.00    -0.062 C  
HETATM   11  C   UNL     1      -6.660   3.910  66.773  1.00  0.00    -0.046 C  
BRANCH   8  12
HETATM   12  C   UNL     1      -9.325   3.261  69.285  1.00  0.00    -0.163 C  
HETATM   13  O   UNL     1     -10.393   4.176  69.618  1.00  0.00     0.195 OA 
HETATM   14  C   UNL     1      -9.819   5.259  70.384  1.00  0.00    -0.213 C  
HETATM   15  H   UNL     1      -8.433   2.436  72.356  1.00  0.00     0.000 HD 
HETATM   16  C   UNL     1      -8.536   4.733  71.021  1.00  0.00    -0.111 C  
HETATM   17  H   UNL     1      -7.814   4.484  72.845  1.00  0.00     0.000 HD 
HETATM   18  C   UNL     1      -8.444   3.286  70.544  1.00  0.00    -0.060 C  
HETATM   19  O   UNL     1      -8.614   4.812  72.449  1.00  0.00    -0.117 OA 
HETATM   20  O   UNL     1      -8.978   2.421  71.577  1.00  0.00    -0.072 OA 
BRANCH  14  21
HETATM   21  C   UNL     1      -9.562   6.475  69.480  1.00  0.00    -0.145 C  
BRANCH  21  22
HETATM   22  O   UNL     1      -8.980   7.546  70.213  1.00  0.00    -0.146 OA 
BRANCH  22  23
HETATM   23  P   UNL     1      -9.243   9.039  69.711  1.00  0.00    -0.189 P  
HETATM   24  O   UNL     1     -10.654   9.416  69.406  1.00  0.00    -0.213 OA 
HETATM   25  O   UNL     1      -8.740   9.898  70.975  1.00  0.00     0.062 OA 
BRANCH  23  26
HETATM   26  O   UNL     1      -8.151   9.374  68.619  1.00  0.00    -0.101 OA 
BRANCH  26  27
HETATM   27  P   UNL     1      -7.690   8.395  67.466  1.00  0.00    -0.099 P  
HETATM   28  O   UNL     1      -9.085   7.862  66.874  1.00  0.00    -0.131 OA 
HETATM   29  O   UNL     1      -6.830   7.234  67.835  1.00  0.00    -0.065 OA 
BRANCH  27  30
HETATM   30  O   UNL     1      -7.117   9.300  66.272  1.00  0.00    -0.085 OA 
BRANCH  30  31
HETATM   31  C   UNL     1      -7.417  10.689  66.201  1.00  0.00    -0.138 C  
BRANCH  31  32
HETATM   32  C   UNL     1      -8.881  11.011  66.487  1.00  0.00    -0.169 C  
HETATM   33  O   UNL     1      -9.008  12.002  67.524  1.00  0.00    -0.163 OA 
HETATM   34  C   UNL     1     -10.368  12.458  67.402  1.00  0.00    -0.207 C  
HETATM   35  H   UNL     1     -10.629  10.954  63.718  1.00  0.00     0.000 HD 
HETATM   36  C   UNL     1     -10.629  12.551  65.890  1.00  0.00    -0.265 C  
HETATM   37  C   UNL     1      -9.596  11.602  65.277  1.00  0.00    -0.197 C  
HETATM   38  H   UNL     1     -12.117  12.229  64.577  1.00  0.00     0.000 HD 
HETATM   39  O   UNL     1     -11.956  12.172  65.511  1.00  0.00    -0.461 OA 
HETATM   40  O   UNL     1     -10.183  10.586  64.471  1.00  0.00    -0.348 OA 
BRANCH  34  41
HETATM   41  N   UNL     1     -10.549  13.719  68.093  1.00  0.00    -0.247 NA 
HETATM   42  C   UNL     1     -11.212  13.950  69.265  1.00  0.00    -0.251 A  
HETATM   43  N   UNL     1     -11.140  15.215  69.629  1.00  0.00    -0.255 NA 
HETATM   44  C   UNL     1     -10.419  15.832  68.627  1.00  0.00    -0.231 A  
HETATM   45  C   UNL     1      -9.995  17.158  68.434  1.00  0.00    -0.310 A  
HETATM   46  N   UNL     1     -10.225  18.171  69.354  1.00  0.00    -0.301 NA 
HETATM   47  N   UNL     1      -9.331  17.463  67.295  1.00  0.00    -0.236 NA 
HETATM   48  H1  UNL     1      -9.917  19.133  69.214  1.00  0.00     0.000 HD 
HETATM   49  C   UNL     1      -9.066  16.471  66.418  1.00  0.00    -0.297 A  
HETATM   50  H2  UNL     1      -9.849  17.859  70.250  1.00  0.00     0.000 HD 
HETATM   51  N   UNL     1      -9.373  15.157  66.516  1.00  0.00    -0.261 NA 
HETATM   52  C   UNL     1     -10.066  14.920  67.646  1.00  0.00    -0.227 A  
ENDBRANCH  34  41
ENDBRANCH  31  32
ENDBRANCH  30  31
ENDBRANCH  27  30
ENDBRANCH  26  27
ENDBRANCH  23  26
ENDBRANCH  22  23
ENDBRANCH  21  22
ENDBRANCH  14  21
ENDBRANCH   8  12
ENDBRANCH   4   6
TORSDOF 11
ENDMDL
MODEL      251
REMARK 921   NORMALIZED FREE ENERGY PREDICTED BY IDOCK:   -3.25 KCAL/MOL
REMARK 922        TOTAL FREE ENERGY PREDICTED BY IDOCK:   -7.54 KCAL/MOL
REMARK 923 INTER-LIGAND FREE ENERGY PREDICTED BY IDOCK:   -5.89 KCAL/MOL
REMARK 924 INTRA-LIGAND FREE ENERGY PREDICTED BY IDOCK:   -1.65 KCAL/MOL
REMARK 927      BINDING AFFINITY PREDICTED BY RF-SCORE:    0.00 PKD
ROOT
HETATM    1  N   UNL     1      -6.207   9.056  70.674  1.00  0.00    -0.038 N  
HETATM    2  H1  UNL     1      -6.383   8.386  69.926  1.00  0.00     0.000 HD 
HETATM    3  H2  UNL     1      -6.260   8.752  71.647  1.00  0.00     0.000 HD 
HETATM    4  C   UNL     1      -5.905  10.343  70.393  1.00  0.00    -0.094 C  
HETATM    5  O   UNL     1      -5.693  11.152  71.296  1.00  0.00    -0.348 OA 
ENDROOT
BRANCH   4   6
HETATM    6  C   UNL     1      -5.859  10.717  68.961  1.00  0.00    -0.040 C  
HETATM    7  C   UNL     1      -6.524   9.913  68.110  1.00  0.00    -0.055 C  
HETATM    8  N   UNL     1      -6.633  10.157  66.744  1.00  0.00    -0.071 NA 
HETATM    9  C   UNL     1      -5.179  11.967  68.472  1.00  0.00    -0.045 C  
HETATM   10  C   UNL     1      -5.883  11.215  66.217  1.00  0.00    -0.139 C  
HETATM   11  C   UNL     1      -5.189  12.083  66.968  1.00  0.00    -0.079 C  
BRANCH   8  12
HETATM   12  C   UNL     1      -7.601   9.480  65.853  1.00  0.00    -0.100 C  
HETATM   13  O   UNL     1      -8.240  10.474  65.021  1.00  0.00    -0.161 OA 
HETATM   14  C   UNL     1      -9.418  10.937  65.719  1.00  0.00    -0.211 C  
HETATM   15  H   UNL     1     -10.072   7.291  65.959  1.00  0.00     0.000 HD 
HETATM   16  C   UNL     1      -9.830   9.836  66.691  1.00  0.00    -0.215 C  
HETATM   17  H   UNL     1     -11.410   8.686  66.999  1.00  0.00     0.000 HD 
HETATM   18  C   UNL     1      -8.792   8.738  66.481  1.00  0.00    -0.131 C  
HETATM   19  O   UNL     1     -11.153   9.372  66.393  1.00  0.00     0.346 OA 
HETATM   20  O   UNL     1      -9.336   7.750  65.571  1.00  0.00     0.120 OA 
BRANCH  14  21
HETATM   21  C   UNL     1      -9.126  12.265  66.436  1.00  0.00    -0.158 C  
BRANCH  21  22
HETATM   22  O   UNL     1     -10.249  12.696  67.196  1.00  0.00    -0.223 OA 
BRANCH  22  23
HETATM   23  P   UNL     1     -11.217  13.795  66.561  1.00  0.00    -0.331 P  
HETATM   24  O   UNL     1     -10.831  14.360  65.235  1.00  0.00    -0.319 OA 
HETATM   25  O   UNL     1     -12.583  12.962  66.390  1.00  0.00    -0.343 OA 
BRANCH  23  26
HETATM   26  O   UNL     1     -11.588  14.820  67.705  1.00  0.00    -0.335 OA 
BRANCH  26  27
HETATM   27  P   UNL     1     -10.941  14.845  69.147  1.00  0.00    -0.284 P  
HETATM   28  O   UNL     1     -11.910  15.841  69.955  1.00  0.00    -0.342 OA 
HETATM   29  O   UNL     1      -9.530  15.312  69.274  1.00  0.00    -0.224 OA 
BRANCH  27  30
HETATM   30  O   UNL     1     -11.239  13.424  69.829  1.00  0.00    -0.128 OA 
BRANCH  30  31
HETATM   31  C   UNL     1     -12.484  13.170  70.471  1.00  0.00    -0.248 C  
BRANCH  31  32
HETATM   32  C   UNL     1     -12.812  11.686  70.595  1.00  0.00    -0.040 C  
HETATM   33  O   UNL     1     -11.725  10.866  70.124  1.00  0.00    -0.288 OA 
HETATM   34  C   UNL     1     -12.023   9.560  70.651  1.00  0.00    -0.197 C  
HETATM   35  H   UNL     1     -14.551  11.118  73.312  1.00  0.00     0.000 HD 
HETATM   36  C   UNL     1     -12.546   9.808  72.075  1.00  0.00    -0.347 C  
HETATM   37  C   UNL     1     -13.040  11.256  72.040  1.00  0.00    -0.326 C  
HETATM   38  H   UNL     1     -13.922   9.073  73.344  1.00  0.00     0.000 HD 
HETATM   39  O   UNL     1     -13.598   8.920  72.464  1.00  0.00    -0.441 OA 
HETATM   40  O   UNL     1     -14.408  11.386  72.412  1.00  0.00     0.720 OA 
BRANCH  34  41
HETATM   41  N   UNL     1     -10.848   8.713  70.612  1.00  0.00    -0.223 NA 
HETATM   42  C   UNL     1     -10.263   8.133  69.521  1.00  0.00    -0.213 A  
HETATM   43  N   UNL     1      -9.176   7.461  69.846  1.00  0.00    -0.145 NA 
HETATM   44  C   UNL     1      -9.073   7.592  71.216  1.00  0.00    -0.141 A  
HETATM   45  C   UNL     1      -8.136   7.123  72.152  1.00  0.00    -0.095 A  
HETATM   46  N   UNL     1      -7.005   6.402  71.799  1.00  0.00    -0.075 NA 
HETATM   47  N   UNL     1      -8.348   7.385  73.463  1.00  0.00    -0.130 NA 
HETATM   48  H1  UNL     1      -6.324   6.062  72.479  1.00  0.00     0.000 HD 
HETATM   49  C   UNL     1      -9.424   8.125  73.806  1.00  0.00     0.238 A  
HETATM   50  H2  UNL     1      -6.495   6.956  71.110  1.00  0.00     0.000 HD 
HETATM   51  N   UNL     1     -10.362   8.673  72.999  1.00  0.00     0.259 NA 
HETATM   52  C   UNL     1     -10.123   8.346  71.715  1.00  0.00    -0.247 A  
ENDBRANCH  34  41
ENDBRANCH  31  32
ENDBRANCH  30  31
ENDBRANCH  27  30
ENDBRANCH  26  27
ENDBRANCH  23  26
ENDBRANCH  22  23
ENDBRANCH  21  22
ENDBRANCH  14  21
ENDBRANCH   8  12
ENDBRANCH   4   6
TORSDOF 11
ENDMDL
MODEL      252
REMARK 921   NORMALIZED FREE ENERGY PREDICTED BY IDOCK:   -3.23 KCAL/MOL
REMARK 922        TOTAL FREE ENERGY PREDICTED BY IDOCK:   -7.50 KCAL/MOL
REMARK 923 INTER-LIGAND FREE ENERGY PREDICTED BY IDOCK:   -6.95 KCAL/MOL
REMARK 924 INTRA-LIGAND FREE ENERGY PREDICTED BY IDOCK:   -0.55 KCAL/MOL
REMARK 927      BINDING AFFINITY PREDICTED BY RF-SCORE:    0.00 PKD
ROOT
HETATM    1  N   UNL     1      -7.678   9.352  69.649  1.00  0.00    -0.088 N  
HETATM    2  H1  UNL     1      -7.011   9.178  68.896  1.00  0.00     0.000 HD 
HETATM    3  H2  UNL     1      -8.127  10.265  69.724  1.00  0.00     0.000 HD 
HETATM    4  C   UNL     1      -7.974   8.386  70.546  1.00  0.00    -0.098 C  
HETATM    5  O   UNL     1      -8.779   8.595  71.454  1.00  0.00    -0.169 OA 
ENDROOT
BRANCH   4   6
HETATM    6  C   UNL     1      -7.275   7.091  70.384  1.00  0.00    -0.075 C  
HETATM    7  C   UNL     1      -7.857   6.195  69.565  1.00  0.00    -0.100 C  
HETATM    8  N   UNL     1      -7.300   4.957  69.255  1.00  0.00    -0.056 NA 
HETATM    9  C   UNL     1      -5.948   6.801  71.030  1.00  0.00    -0.032 C  
HETATM   10  C   UNL     1      -6.150   4.575  69.955  1.00  0.00    -0.018 C  
HETATM   11  C   UNL     1      -5.484   5.386  70.791  1.00  0.00    -0.008 C  
BRANCH   8  12
HETATM   12  C   UNL     1      -7.748   4.101  68.134  1.00  0.00    -0.071 C  
HETATM   13  O   UNL     1      -6.972   4.430  66.960  1.00  0.00    -0.060 OA 
HETATM   14  C   UNL     1      -7.670   5.480  66.254  1.00  0.00    -0.099 C  
HETATM   15  H   UNL     1     -10.512   3.119  66.616  1.00  0.00     0.000 HD 
HETATM   16  C   UNL     1      -9.140   5.396  66.656  1.00  0.00    -0.124 C  
HETATM   17  H   UNL     1     -10.878   5.105  65.758  1.00  0.00     0.000 HD 
HETATM   18  C   UNL     1      -9.197   4.229  67.638  1.00  0.00    -0.149 C  
HETATM   19  O   UNL     1      -9.963   5.157  65.508  1.00  0.00    -0.067 OA 
HETATM   20  O   UNL     1      -9.616   3.039  66.923  1.00  0.00    -0.103 OA 
BRANCH  14  21
HETATM   21  C   UNL     1      -7.055   6.848  66.587  1.00  0.00    -0.071 C  
BRANCH  21  22
HETATM   22  O   UNL     1      -6.769   7.584  65.403  1.00  0.00    -0.044 OA 
BRANCH  22  23
HETATM   23  P   UNL     1      -7.723   8.806  65.022  1.00  0.00    -0.117 P  
HETATM   24  O   UNL     1      -7.243   9.740  63.962  1.00  0.00    -0.118 OA 
HETATM   25  O   UNL     1      -9.029   8.040  64.482  1.00  0.00     0.304 OA 
BRANCH  23  26
HETATM   26  O   UNL     1      -8.240   9.446  66.371  1.00  0.00    -0.110 OA 
BRANCH  26  27
HETATM   27  P   UNL     1      -9.759   9.698  66.732  1.00  0.00    -0.227 P  
HETATM   28  O   UNL     1      -9.664  10.704  67.982  1.00  0.00    -0.153 OA 
HETATM   29  O   UNL     1     -10.595   8.521  67.102  1.00  0.00    -0.303 OA 
BRANCH  27  30
HETATM   30  O   UNL     1     -10.377  10.623  65.576  1.00  0.00    -0.266 OA 
BRANCH  30  31
HETATM   31  C   UNL     1      -9.869  11.931  65.337  1.00  0.00    -0.233 C  
BRANCH  31  32
HETATM   32  C   UNL     1     -10.105  12.895  66.495  1.00  0.00    -0.261 C  
HETATM   33  O   UNL     1      -9.181  14.000  66.455  1.00  0.00    -0.246 OA 
HETATM   34  C   UNL     1      -9.765  14.973  67.341  1.00  0.00    -0.216 C  
HETATM   35  H   UNL     1     -13.305  13.146  67.145  1.00  0.00     0.000 HD 
HETATM   36  C   UNL     1     -11.276  14.919  67.061  1.00  0.00    -0.344 C  
HETATM   37  C   UNL     1     -11.490  13.530  66.454  1.00  0.00    -0.331 C  
HETATM   38  H   UNL     1     -13.018  15.061  68.055  1.00  0.00     0.000 HD 
HETATM   39  O   UNL     1     -12.084  15.095  68.228  1.00  0.00    -0.226 OA 
HETATM   40  O   UNL     1     -12.442  12.751  67.171  1.00  0.00    -0.239 OA 
BRANCH  34  41
HETATM   41  N   UNL     1      -9.187  16.282  67.117  1.00  0.00    -0.210 NA 
HETATM   42  C   UNL     1      -8.204  16.629  66.233  1.00  0.00    -0.330 A  
HETATM   43  N   UNL     1      -7.952  17.923  66.262  1.00  0.00    -0.397 NA 
HETATM   44  C   UNL     1      -8.795  18.427  67.231  1.00  0.00    -0.259 A  
HETATM   45  C   UNL     1      -9.014  19.725  67.722  1.00  0.00    -0.325 A  
HETATM   46  N   UNL     1      -8.372  20.847  67.220  1.00  0.00    -0.500 NA 
HETATM   47  N   UNL     1      -9.896  19.890  68.737  1.00  0.00    -0.359 NA 
HETATM   48  H1  UNL     1      -8.532  21.789  67.577  1.00  0.00     0.000 HD 
HETATM   49  C   UNL     1     -10.556  18.806  69.198  1.00  0.00     0.554 A  
HETATM   50  H2  UNL     1      -8.543  20.870  66.214  1.00  0.00     0.000 HD 
HETATM   51  N   UNL     1     -10.471  17.524  68.774  1.00  0.00    -0.348 NA 
HETATM   52  C   UNL     1      -9.553  17.415  67.795  1.00  0.00    -0.264 A  
ENDBRANCH  34  41
ENDBRANCH  31  32
ENDBRANCH  30  31
ENDBRANCH  27  30
ENDBRANCH  26  27
ENDBRANCH  23  26
ENDBRANCH  22  23
ENDBRANCH  21  22
ENDBRANCH  14  21
ENDBRANCH   8  12
ENDBRANCH   4   6
TORSDOF 11
ENDMDL
MODEL      253
REMARK 921   NORMALIZED FREE ENERGY PREDICTED BY IDOCK:   -3.21 KCAL/MOL
REMARK 922        TOTAL FREE ENERGY PREDICTED BY IDOCK:   -7.47 KCAL/MOL
REMARK 923 INTER-LIGAND FREE ENERGY PREDICTED BY IDOCK:   -6.31 KCAL/MOL
REMARK 924 INTRA-LIGAND FREE ENERGY PREDICTED BY IDOCK:   -1.15 KCAL/MOL
REMARK 927      BINDING AFFINITY PREDICTED BY RF-SCORE:    0.00 PKD
ROOT
HETATM    1  N   UNL     1     -11.428  16.955  72.067  1.00  0.00    -0.205 N  
HETATM    2  H1  UNL     1     -11.191  17.788  71.528  1.00  0.00     0.000 HD 
HETATM    3  H2  UNL     1     -11.597  17.035  73.070  1.00  0.00     0.000 HD 
HETATM    4  C   UNL     1     -11.521  15.748  71.468  1.00  0.00    -0.429 C  
HETATM    5  O   UNL     1     -11.806  14.742  72.119  1.00  0.00    -0.327 OA 
ENDROOT
BRANCH   4   6
HETATM    6  C   UNL     1     -11.249  15.704  70.013  1.00  0.00    -0.332 C  
HETATM    7  C   UNL     1     -10.026  16.107  69.621  1.00  0.00    -0.179 C  
HETATM    8  N   UNL     1      -9.589  16.069  68.299  1.00  0.00    -0.208 NA 
HETATM    9  C   UNL     1     -12.244  15.170  69.019  1.00  0.00    -0.158 C  
HETATM   10  C   UNL     1     -10.530  15.734  67.319  1.00  0.00    -0.308 C  
HETATM   11  C   UNL     1     -11.774  15.314  67.593  1.00  0.00    -0.181 C  
BRANCH   8  12
HETATM   12  C   UNL     1      -8.174  16.201  67.888  1.00  0.00    -0.153 C  
HETATM   13  O   UNL     1      -7.796  15.023  67.140  1.00  0.00    -0.199 OA 
HETATM   14  C   UNL     1      -7.286  14.052  68.082  1.00  0.00    -0.128 C  
HETATM   15  H   UNL     1      -5.208  16.941  69.138  1.00  0.00     0.000 HD 
HETATM   16  C   UNL     1      -6.804  14.821  69.309  1.00  0.00    -0.144 C  
HETATM   17  H   UNL     1      -5.105  15.075  70.290  1.00  0.00     0.000 HD 
HETATM   18  C   UNL     1      -7.091  16.282  68.976  1.00  0.00    -0.196 C  
HETATM   19  O   UNL     1      -5.405  14.596  69.526  1.00  0.00    -0.091 OA 
HETATM   20  O   UNL     1      -5.878  16.890  68.466  1.00  0.00    -0.131 OA 
BRANCH  14  21
HETATM   21  C   UNL     1      -8.375  13.025  68.432  1.00  0.00    -0.118 C  
BRANCH  21  22
HETATM   22  O   UNL     1      -9.216  12.767  67.315  1.00  0.00    -0.189 OA 
BRANCH  22  23
HETATM   23  P   UNL     1      -8.815  11.582  66.322  1.00  0.00    -0.109 P  
HETATM   24  O   UNL     1      -8.830  11.884  64.861  1.00  0.00     0.347 OA 
HETATM   25  O   UNL     1      -7.301  11.282  66.772  1.00  0.00    -0.137 OA 
BRANCH  23  26
HETATM   26  O   UNL     1      -9.574  10.281  66.801  1.00  0.00    -0.163 OA 
BRANCH  26  27
HETATM   27  P   UNL     1     -10.678  10.239  67.932  1.00  0.00    -0.289 P  
HETATM   28  O   UNL     1     -11.269   8.751  67.796  1.00  0.00     0.170 OA 
HETATM   29  O   UNL     1     -11.793  11.226  67.861  1.00  0.00    -0.597 OA 
BRANCH  27  30
HETATM   30  O   UNL     1      -9.914  10.192  69.342  1.00  0.00    -0.204 OA 
BRANCH  30  31
HETATM   31  C   UNL     1      -9.998   9.045  70.180  1.00  0.00    -0.189 C  
BRANCH  31  32
HETATM   32  C   UNL     1      -8.669   8.313  70.343  1.00  0.00    -0.139 C  
HETATM   33  O   UNL     1      -8.728   7.351  71.414  1.00  0.00    -0.124 OA 
HETATM   34  C   UNL     1      -7.579   6.511  71.187  1.00  0.00    -0.090 C  
HETATM   35  H   UNL     1      -7.283   7.791  67.422  1.00  0.00     0.000 HD 
HETATM   36  C   UNL     1      -7.518   6.313  69.664  1.00  0.00    -0.085 C  
HETATM   37  C   UNL     1      -8.289   7.510  69.103  1.00  0.00    -0.135 C  
HETATM   38  H   UNL     1      -6.148   6.153  68.201  1.00  0.00     0.000 HD 
HETATM   39  O   UNL     1      -6.186   6.275  69.142  1.00  0.00    -0.030 OA 
HETATM   40  O   UNL     1      -7.520   8.290  68.194  1.00  0.00    -0.093 OA 
BRANCH  34  41
HETATM   41  N   UNL     1      -7.701   5.269  71.922  1.00  0.00    -0.107 NA 
HETATM   42  C   UNL     1      -6.701   4.463  72.387  1.00  0.00    -0.046 A  
HETATM   43  N   UNL     1      -7.173   3.430  73.057  1.00  0.00    -0.045 NA 
HETATM   44  C   UNL     1      -8.545   3.564  72.995  1.00  0.00    -0.086 A  
HETATM   45  C   UNL     1      -9.603   2.801  73.517  1.00  0.00    -0.091 A  
HETATM   46  N   UNL     1      -9.412   1.679  74.311  1.00  0.00    -0.067 NA 
HETATM   47  N   UNL     1     -10.872   3.177  73.232  1.00  0.00    -0.187 NA 
HETATM   48  H1  UNL     1     -10.180   1.125  74.690  1.00  0.00     0.000 HD 
HETATM   49  C   UNL     1     -11.062   4.294  72.498  1.00  0.00     0.170 A  
HETATM   50  H2  UNL     1      -8.822   1.959  75.096  1.00  0.00     0.000 HD 
HETATM   51  N   UNL     1     -10.133   5.135  71.987  1.00  0.00    -0.190 NA 
HETATM   52  C   UNL     1      -8.894   4.690  72.268  1.00  0.00    -0.122 A  
ENDBRANCH  34  41
ENDBRANCH  31  32
ENDBRANCH  30  31
ENDBRANCH  27  30
ENDBRANCH  26  27
ENDBRANCH  23  26
ENDBRANCH  22  23
ENDBRANCH  21  22
ENDBRANCH  14  21
ENDBRANCH   8  12
ENDBRANCH   4   6
TORSDOF 11
ENDMDL
MODEL      254
REMARK 921   NORMALIZED FREE ENERGY PREDICTED BY IDOCK:   -3.20 KCAL/MOL
REMARK 922        TOTAL FREE ENERGY PREDICTED BY IDOCK:   -7.46 KCAL/MOL
REMARK 923 INTER-LIGAND FREE ENERGY PREDICTED BY IDOCK:   -8.13 KCAL/MOL
REMARK 924 INTRA-LIGAND FREE ENERGY PREDICTED BY IDOCK:    0.67 KCAL/MOL
REMARK 927      BINDING AFFINITY PREDICTED BY RF-SCORE:    0.00 PKD
ROOT
HETATM    1  N   UNL     1      -8.868  19.307  67.977  1.00  0.00    -0.307 N  
HETATM    2  H1  UNL     1      -9.794  19.114  67.595  1.00  0.00     0.000 HD 
HETATM    3  H2  UNL     1      -8.662  20.231  68.357  1.00  0.00     0.000 HD 
HETATM    4  C   UNL     1      -7.911  18.353  67.985  1.00  0.00    -0.276 C  
HETATM    5  O   UNL     1      -6.794  18.586  68.445  1.00  0.00    -0.237 OA 
ENDROOT
BRANCH   4   6
HETATM    6  C   UNL     1      -8.276  17.040  67.404  1.00  0.00    -0.199 C  
HETATM    7  C   UNL     1      -9.573  16.864  67.092  1.00  0.00    -0.244 C  
HETATM    8  N   UNL     1     -10.070  15.715  66.482  1.00  0.00    -0.270 NA 
HETATM    9  C   UNL     1      -7.255  15.978  67.100  1.00  0.00    -0.257 C  
HETATM   10  C   UNL     1      -9.192  14.636  66.328  1.00  0.00    -0.222 C  
HETATM   11  C   UNL     1      -7.880  14.700  66.599  1.00  0.00     0.502 C  
BRANCH   8  12
HETATM   12  C   UNL     1     -11.405  15.620  65.851  1.00  0.00     0.044 C  
HETATM   13  O   UNL     1     -12.162  14.585  66.517  1.00  0.00    -0.381 OA 
HETATM   14  C   UNL     1     -11.901  13.341  65.829  1.00  0.00    -0.387 C  
HETATM   15  H   UNL     1     -12.812  15.392  62.872  1.00  0.00     0.000 HD 
HETATM   16  C   UNL     1     -11.464  13.692  64.409  1.00  0.00    -0.386 C  
HETATM   17  H   UNL     1     -12.091  13.342  62.566  1.00  0.00     0.000 HD 
HETATM   18  C   UNL     1     -11.497  15.217  64.370  1.00  0.00    -0.239 C  
HETATM   19  O   UNL     1     -12.364  13.123  63.450  1.00  0.00    -0.705 OA 
HETATM   20  O   UNL     1     -12.754  15.641  63.787  1.00  0.00    -0.611 OA 
BRANCH  14  21
HETATM   21  C   UNL     1     -10.836  12.527  66.579  1.00  0.00    -0.256 C  
BRANCH  21  22
HETATM   22  O   UNL     1     -11.071  12.542  67.982  1.00  0.00    -0.220 OA 
BRANCH  22  23
HETATM   23  P   UNL     1     -11.295  11.148  68.728  1.00  0.00    -0.337 P  
HETATM   24  O   UNL     1     -12.556  10.989  69.509  1.00  0.00    -0.289 OA 
HETATM   25  O   UNL     1     -11.321  10.120  67.491  1.00  0.00    -0.275 OA 
BRANCH  23  26
HETATM   26  O   UNL     1      -9.942  10.772  69.452  1.00  0.00    -0.198 OA 
BRANCH  26  27
HETATM   27  P   UNL     1      -8.498  10.976  68.841  1.00  0.00    -0.016 P  
HETATM   28  O   UNL     1      -7.558  10.193  69.883  1.00  0.00    -0.152 OA 
HETATM   29  O   UNL     1      -8.000  12.370  68.670  1.00  0.00    -0.122 OA 
BRANCH  27  30
HETATM   30  O   UNL     1      -8.405  10.066  67.523  1.00  0.00    -0.117 OA 
BRANCH  30  31
HETATM   31  C   UNL     1      -7.982  10.620  66.282  1.00  0.00    -0.149 C  
BRANCH  31  32
HETATM   32  C   UNL     1      -7.058   9.701  65.489  1.00  0.00    -0.098 C  
HETATM   33  O   UNL     1      -7.158   8.337  65.943  1.00  0.00    -0.069 OA 
HETATM   34  C   UNL     1      -6.549   7.575  64.883  1.00  0.00    -0.047 C  
HETATM   35  H   UNL     1      -6.927  10.634  62.353  1.00  0.00     0.000 HD 
HETATM   36  C   UNL     1      -7.029   8.237  63.581  1.00  0.00    -0.084 C  
HETATM   37  C   UNL     1      -7.408   9.658  64.006  1.00  0.00    -0.121 C  
HETATM   38  H   UNL     1      -6.336   8.669  61.745  1.00  0.00     0.000 HD 
HETATM   39  O   UNL     1      -6.039   8.261  62.549  1.00  0.00    -0.084 OA 
HETATM   40  O   UNL     1      -6.710  10.661  63.277  1.00  0.00    -0.036 OA 
BRANCH  34  41
HETATM   41  N   UNL     1      -6.914   6.177  64.984  1.00  0.00    -0.054 NA 
HETATM   42  C   UNL     1      -6.203   5.088  64.565  1.00  0.00    -0.030 A  
HETATM   43  N   UNL     1      -6.817   3.958  64.858  1.00  0.00    -0.048 NA 
HETATM   44  C   UNL     1      -7.993   4.341  65.470  1.00  0.00    -0.094 A  
HETATM   45  C   UNL     1      -9.063   3.616  66.020  1.00  0.00    -0.155 A  
HETATM   46  N   UNL     1      -9.090   2.230  66.081  1.00  0.00    -0.264 NA 
HETATM   47  N   UNL     1     -10.121   4.301  66.515  1.00  0.00    -0.196 NA 
HETATM   48  H1  UNL     1      -9.867   1.703  66.480  1.00  0.00     0.000 HD 
HETATM   49  C   UNL     1     -10.078   5.651  66.498  1.00  0.00    -0.185 A  
HETATM   50  H2  UNL     1      -8.241   1.930  66.561  1.00  0.00     0.000 HD 
HETATM   51  N   UNL     1      -9.088   6.457  66.048  1.00  0.00    -0.135 NA 
HETATM   52  C   UNL     1      -8.084   5.722  65.533  1.00  0.00    -0.128 A  
ENDBRANCH  34  41
ENDBRANCH  31  32
ENDBRANCH  30  31
ENDBRANCH  27  30
ENDBRANCH  26  27
ENDBRANCH  23  26
ENDBRANCH  22  23
ENDBRANCH  21  22
ENDBRANCH  14  21
ENDBRANCH   8  12
ENDBRANCH   4   6
TORSDOF 11
ENDMDL
MODEL      255
REMARK 921   NORMALIZED FREE ENERGY PREDICTED BY IDOCK:   -3.16 KCAL/MOL
REMARK 922        TOTAL FREE ENERGY PREDICTED BY IDOCK:   -7.39 KCAL/MOL
REMARK 923 INTER-LIGAND FREE ENERGY PREDICTED BY IDOCK:   -6.75 KCAL/MOL
REMARK 924 INTRA-LIGAND FREE ENERGY PREDICTED BY IDOCK:   -0.64 KCAL/MOL
REMARK 927      BINDING AFFINITY PREDICTED BY RF-SCORE:    0.00 PKD
ROOT
HETATM    1  N   UNL     1     -11.651  12.253  63.330  1.00  0.00    -0.661 N  
HETATM    2  H1  UNL     1     -10.942  12.727  62.771  1.00  0.00     0.000 HD 
HETATM    3  H2  UNL     1     -12.006  11.345  63.030  1.00  0.00     0.000 HD 
HETATM    4  C   UNL     1     -12.125  12.813  64.465  1.00  0.00    -0.414 C  
HETATM    5  O   UNL     1     -12.981  12.241  65.139  1.00  0.00    -0.464 OA 
ENDROOT
BRANCH   4   6
HETATM    6  C   UNL     1     -11.575  14.138  64.833  1.00  0.00    -0.379 C  
HETATM    7  C   UNL     1     -10.446  14.134  65.565  1.00  0.00    -0.339 C  
HETATM    8  N   UNL     1      -9.766  15.290  65.941  1.00  0.00    -0.335 NA 
HETATM    9  C   UNL     1     -12.186  15.428  64.360  1.00  0.00    -0.161 C  
HETATM   10  C   UNL     1     -10.380  16.516  65.664  1.00  0.00    -0.322 C  
HETATM   11  C   UNL     1     -11.501  16.641  64.939  1.00  0.00     0.212 C  
BRANCH   8  12
HETATM   12  C   UNL     1      -8.381  15.307  66.462  1.00  0.00    -0.089 C  
HETATM   13  O   UNL     1      -8.109  14.039  67.100  1.00  0.00    -0.174 OA 
HETATM   14  C   UNL     1      -8.485  14.159  68.490  1.00  0.00    -0.157 C  
HETATM   15  H   UNL     1      -6.353  17.190  68.265  1.00  0.00     0.000 HD 
HETATM   16  C   UNL     1      -8.436  15.643  68.846  1.00  0.00    -0.213 C  
HETATM   17  H   UNL     1      -7.461  16.801  70.119  1.00  0.00     0.000 HD 
HETATM   18  C   UNL     1      -8.012  16.328  67.550  1.00  0.00    -0.151 C  
HETATM   19  O   UNL     1      -7.491  15.877  69.898  1.00  0.00    -0.035 OA 
HETATM   20  O   UNL     1      -6.582  16.559  67.592  1.00  0.00    -0.126 OA 
BRANCH  14  21
HETATM   21  C   UNL     1      -9.879  13.553  68.721  1.00  0.00    -0.042 C  
BRANCH  21  22
HETATM   22  O   UNL     1     -10.097  12.430  67.876  1.00  0.00    -0.198 OA 
BRANCH  22  23
HETATM   23  P   UNL     1      -9.913  10.970  68.495  1.00  0.00    -0.202 P  
HETATM   24  O   UNL     1      -8.714  10.739  69.352  1.00  0.00    -0.095 OA 
HETATM   25  O   UNL     1     -11.232  10.835  69.405  1.00  0.00    -0.233 OA 
BRANCH  23  26
HETATM   26  O   UNL     1     -10.190   9.925  67.341  1.00  0.00    -0.194 OA 
BRANCH  26  27
HETATM   27  P   UNL     1      -9.171   8.818  66.855  1.00  0.00    -0.179 P  
HETATM   28  O   UNL     1      -7.744   9.504  67.128  1.00  0.00    -0.091 OA 
HETATM   29  O   UNL     1      -9.247   8.372  65.435  1.00  0.00    -0.074 OA 
BRANCH  27  30
HETATM   30  O   UNL     1      -9.208   7.630  67.933  1.00  0.00    -0.137 OA 
BRANCH  30  31
HETATM   31  C   UNL     1      -8.122   7.423  68.829  1.00  0.00    -0.128 C  
BRANCH  31  32
HETATM   32  C   UNL     1      -7.576   5.999  68.805  1.00  0.00    -0.091 C  
HETATM   33  O   UNL     1      -8.427   5.124  68.039  1.00  0.00    -0.101 OA 
HETATM   34  C   UNL     1      -7.604   3.967  67.798  1.00  0.00    -0.067 C  
HETATM   35  H   UNL     1      -4.304   6.027  68.674  1.00  0.00     0.000 HD 
HETATM   36  C   UNL     1      -6.203   4.523  67.493  1.00  0.00    -0.036 C  
HETATM   37  C   UNL     1      -6.206   5.909  68.141  1.00  0.00    -0.032 C  
HETATM   38  H   UNL     1      -4.274   4.063  67.825  1.00  0.00     0.000 HD 
HETATM   39  O   UNL     1      -5.140   3.720  68.013  1.00  0.00    -0.007 OA 
HETATM   40  O   UNL     1      -5.157   6.083  69.087  1.00  0.00    -0.004 OA 
BRANCH  34  41
HETATM   41  N   UNL     1      -8.150   3.167  66.720  1.00  0.00    -0.080 NA 
HETATM   42  C   UNL     1      -8.570   1.867  66.765  1.00  0.00    -0.110 A  
HETATM   43  N   UNL     1      -9.055   1.468  65.606  1.00  0.00    -0.107 NA 
HETATM   44  C   UNL     1      -8.914   2.556  64.768  1.00  0.00    -0.125 A  
HETATM   45  C   UNL     1      -9.248   2.772  63.421  1.00  0.00    -0.095 A  
HETATM   46  N   UNL     1      -9.891   1.826  62.635  1.00  0.00    -0.088 NA 
HETATM   47  N   UNL     1      -8.927   3.961  62.859  1.00  0.00    -0.101 NA 
HETATM   48  H1  UNL     1     -10.134   1.984  61.657  1.00  0.00     0.000 HD 
HETATM   49  C   UNL     1      -8.342   4.901  63.633  1.00  0.00    -0.126 A  
HETATM   50  H2  UNL     1     -10.748   1.559  63.122  1.00  0.00     0.000 HD 
HETATM   51  N   UNL     1      -8.021   4.831  64.946  1.00  0.00    -0.095 NA 
HETATM   52  C   UNL     1      -8.325   3.616  65.438  1.00  0.00    -0.105 A  
ENDBRANCH  34  41
ENDBRANCH  31  32
ENDBRANCH  30  31
ENDBRANCH  27  30
ENDBRANCH  26  27
ENDBRANCH  23  26
ENDBRANCH  22  23
ENDBRANCH  21  22
ENDBRANCH  14  21
ENDBRANCH   8  12
ENDBRANCH   4   6
TORSDOF 11
ENDMDL
MODEL      256
REMARK 921   NORMALIZED FREE ENERGY PREDICTED BY IDOCK:   -3.14 KCAL/MOL
REMARK 922        TOTAL FREE ENERGY PREDICTED BY IDOCK:   -7.37 KCAL/MOL
REMARK 923 INTER-LIGAND FREE ENERGY PREDICTED BY IDOCK:   -7.26 KCAL/MOL
REMARK 924 INTRA-LIGAND FREE ENERGY PREDICTED BY IDOCK:   -0.11 KCAL/MOL
REMARK 927      BINDING AFFINITY PREDICTED BY RF-SCORE:    0.00 PKD
ROOT
HETATM    1  N   UNL     1      -8.699   6.230  63.444  1.00  0.00    -0.215 N  
HETATM    2  H1  UNL     1      -8.716   7.047  62.833  1.00  0.00     0.000 HD 
HETATM    3  H2  UNL     1      -9.226   5.396  63.186  1.00  0.00     0.000 HD 
HETATM    4  C   UNL     1      -7.986   6.241  64.592  1.00  0.00    -0.120 C  
HETATM    5  O   UNL     1      -7.966   5.256  65.330  1.00  0.00    -0.098 OA 
ENDROOT
BRANCH   4   6
HETATM    6  C   UNL     1      -7.257   7.490  64.911  1.00  0.00    -0.070 C  
HETATM    7  C   UNL     1      -6.977   7.704  66.210  1.00  0.00    -0.066 C  
HETATM    8  N   UNL     1      -6.245   8.795  66.671  1.00  0.00    -0.057 NA 
HETATM    9  C   UNL     1      -6.780   8.442  63.849  1.00  0.00    -0.075 C  
HETATM   10  C   UNL     1      -5.918   9.791  65.743  1.00  0.00    -0.063 C  
HETATM   11  C   UNL     1      -6.144   9.682  64.425  1.00  0.00    -0.089 C  
BRANCH   8  12
HETATM   12  C   UNL     1      -5.660   8.890  68.027  1.00  0.00    -0.035 C  
HETATM   13  O   UNL     1      -6.013   7.702  68.769  1.00  0.00    -0.029 OA 
HETATM   14  C   UNL     1      -7.265   7.962  69.443  1.00  0.00    -0.079 C  
HETATM   15  H   UNL     1      -5.429  10.986  70.569  1.00  0.00     0.000 HD 
HETATM   16  C   UNL     1      -7.389   9.476  69.597  1.00  0.00    -0.084 C  
HETATM   17  H   UNL     1      -7.554  10.777  71.077  1.00  0.00     0.000 HD 
HETATM   18  C   UNL     1      -6.120  10.027  68.954  1.00  0.00    -0.040 C  
HETATM   19  O   UNL     1      -7.476   9.835  70.981  1.00  0.00    -0.318 OA 
HETATM   20  O   UNL     1      -5.144  10.283  69.995  1.00  0.00    -0.037 OA 
BRANCH  14  21
HETATM   21  C   UNL     1      -8.435   7.362  68.648  1.00  0.00    -0.129 C  
BRANCH  21  22
HETATM   22  O   UNL     1      -9.063   8.346  67.835  1.00  0.00    -0.133 OA 
BRANCH  22  23
HETATM   23  P   UNL     1     -10.539   8.817  68.221  1.00  0.00    -0.013 P  
HETATM   24  O   UNL     1     -11.555   8.836  67.128  1.00  0.00     1.393 OA 
HETATM   25  O   UNL     1     -10.963   7.702  69.300  1.00  0.00    -0.149 OA 
BRANCH  23  26
HETATM   26  O   UNL     1     -10.408  10.116  69.111  1.00  0.00    -0.193 OA 
BRANCH  26  27
HETATM   27  P   UNL     1     -11.623  10.959  69.672  1.00  0.00    -0.375 P  
HETATM   28  O   UNL     1     -11.569  10.653  71.248  1.00  0.00    -0.202 OA 
HETATM   29  O   UNL     1     -12.986  10.654  69.151  1.00  0.00     0.099 OA 
BRANCH  27  30
HETATM   30  O   UNL     1     -11.207  12.506  69.593  1.00  0.00    -0.154 OA 
BRANCH  30  31
HETATM   31  C   UNL     1     -12.138  13.491  69.159  1.00  0.00    -0.288 C  
BRANCH  31  32
HETATM   32  C   UNL     1     -11.875  13.993  67.742  1.00  0.00    -0.384 C  
HETATM   33  O   UNL     1     -11.142  15.233  67.752  1.00  0.00    -0.300 OA 
HETATM   34  C   UNL     1     -10.658  15.359  66.402  1.00  0.00    -0.307 C  
HETATM   35  H   UNL     1     -11.287  11.479  65.727  1.00  0.00     0.000 HD 
HETATM   36  C   UNL     1     -10.223  13.941  65.995  1.00  0.00    -0.310 C  
HETATM   37  C   UNL     1     -11.018  13.028  66.930  1.00  0.00    -0.265 C  
HETATM   38  H   UNL     1     -10.224  12.752  64.374  1.00  0.00     0.000 HD 
HETATM   39  O   UNL     1     -10.493  13.628  64.625  1.00  0.00    -0.411 OA 
HETATM   40  O   UNL     1     -11.820  12.080  66.233  1.00  0.00    -0.563 OA 
BRANCH  34  41
HETATM   41  N   UNL     1      -9.584  16.330  66.332  1.00  0.00    -0.271 NA 
HETATM   42  C   UNL     1      -8.259  16.104  66.090  1.00  0.00    -0.108 A  
HETATM   43  N   UNL     1      -7.568  17.227  66.053  1.00  0.00    -0.444 NA 
HETATM   44  C   UNL     1      -8.491  18.220  66.313  1.00  0.00    -0.191 A  
HETATM   45  C   UNL     1      -8.388  19.618  66.398  1.00  0.00    -0.353 A  
HETATM   46  N   UNL     1      -7.209  20.310  66.165  1.00  0.00    -0.365 NA 
HETATM   47  N   UNL     1      -9.494  20.327  66.727  1.00  0.00    -0.391 NA 
HETATM   48  H1  UNL     1      -7.135  21.326  66.227  1.00  0.00     0.000 HD 
HETATM   49  C   UNL     1     -10.655  19.661  66.911  1.00  0.00    -0.484 A  
HETATM   50  H2  UNL     1      -6.875  20.038  65.240  1.00  0.00     0.000 HD 
HETATM   51  N   UNL     1     -10.889  18.332  66.805  1.00  0.00    -0.193 NA 
HETATM   52  C   UNL     1      -9.749  17.677  66.518  1.00  0.00    -0.304 A  
ENDBRANCH  34  41
ENDBRANCH  31  32
ENDBRANCH  30  31
ENDBRANCH  27  30
ENDBRANCH  26  27
ENDBRANCH  23  26
ENDBRANCH  22  23
ENDBRANCH  21  22
ENDBRANCH  14  21
ENDBRANCH   8  12
ENDBRANCH   4   6
TORSDOF 11
ENDMDL
MODEL      257
REMARK 921   NORMALIZED FREE ENERGY PREDICTED BY IDOCK:   -3.05 KCAL/MOL
REMARK 922        TOTAL FREE ENERGY PREDICTED BY IDOCK:   -7.22 KCAL/MOL
REMARK 923 INTER-LIGAND FREE ENERGY PREDICTED BY IDOCK:   -7.18 KCAL/MOL
REMARK 924 INTRA-LIGAND FREE ENERGY PREDICTED BY IDOCK:   -0.04 KCAL/MOL
REMARK 927      BINDING AFFINITY PREDICTED BY RF-SCORE:    0.00 PKD
ROOT
HETATM    1  N   UNL     1      -7.143  18.967  69.260  1.00  0.00    -0.284 N  
HETATM    2  H1  UNL     1      -7.335  19.923  68.959  1.00  0.00     0.000 HD 
HETATM    3  H2  UNL     1      -6.440  18.797  69.980  1.00  0.00     0.000 HD 
HETATM    4  C   UNL     1      -7.808  17.924  68.717  1.00  0.00    -0.253 C  
HETATM    5  O   UNL     1      -7.576  16.771  69.081  1.00  0.00    -0.240 OA 
ENDROOT
BRANCH   4   6
HETATM    6  C   UNL     1      -8.804  18.243  67.669  1.00  0.00    -0.261 C  
HETATM    7  C   UNL     1      -9.505  17.206  67.173  1.00  0.00    -0.248 C  
HETATM    8  N   UNL     1     -10.520  17.342  66.230  1.00  0.00    -0.307 NA 
HETATM    9  C   UNL     1      -9.088  19.652  67.224  1.00  0.00    -0.396 C  
HETATM   10  C   UNL     1     -10.710  18.609  65.667  1.00  0.00    -0.086 C  
HETATM   11  C   UNL     1     -10.074  19.713  66.085  1.00  0.00    -0.574 C  
BRANCH   8  12
HETATM   12  C   UNL     1     -11.502  16.283  65.909  1.00  0.00     0.588 C  
HETATM   13  O   UNL     1     -11.366  15.215  66.872  1.00  0.00    -0.333 OA 
HETATM   14  C   UNL     1     -10.395  14.278  66.353  1.00  0.00    -0.286 C  
HETATM   15  H   UNL     1     -12.575  14.483  63.356  1.00  0.00     0.000 HD 
HETATM   16  C   UNL     1     -10.367  14.449  64.837  1.00  0.00    -0.389 C  
HETATM   17  H   UNL     1     -10.711  13.331  63.241  1.00  0.00     0.000 HD 
HETATM   18  C   UNL     1     -11.387  15.550  64.562  1.00  0.00    -0.314 C  
HETATM   19  O   UNL     1     -10.728  13.224  64.186  1.00  0.00    -0.405 OA 
HETATM   20  O   UNL     1     -12.646  14.937  64.188  1.00  0.00    -0.785 OA 
BRANCH  14  21
HETATM   21  C   UNL     1      -9.018  14.526  66.990  1.00  0.00    -0.240 C  
BRANCH  21  22
HETATM   22  O   UNL     1      -8.130  13.447  66.730  1.00  0.00     0.029 OA 
BRANCH  22  23
HETATM   23  P   UNL     1      -8.390  12.056  67.470  1.00  0.00    -0.188 P  
HETATM   24  O   UNL     1      -9.089  12.105  68.787  1.00  0.00    -0.048 OA 
HETATM   25  O   UNL     1      -9.334  11.298  66.411  1.00  0.00    -0.181 OA 
BRANCH  23  26
HETATM   26  O   UNL     1      -7.053  11.216  67.390  1.00  0.00    -0.091 OA 
BRANCH  26  27
HETATM   27  P   UNL     1      -6.968   9.638  67.441  1.00  0.00    -0.085 P  
HETATM   28  O   UNL     1      -5.467   9.381  67.955  1.00  0.00    -0.037 OA 
HETATM   29  O   UNL     1      -7.198   8.883  66.176  1.00  0.00    -0.087 OA 
BRANCH  27  30
HETATM   30  O   UNL     1      -7.859   9.152  68.683  1.00  0.00    -0.094 OA 
BRANCH  30  31
HETATM   31  C   UNL     1      -9.045   8.392  68.477  1.00  0.00    -0.136 C  
BRANCH  31  32
HETATM   32  C   UNL     1      -8.784   6.904  68.268  1.00  0.00    -0.123 C  
HETATM   33  O   UNL     1      -8.376   6.264  69.493  1.00  0.00    -0.115 OA 
HETATM   34  C   UNL     1      -8.545   4.860  69.223  1.00  0.00    -0.087 C  
HETATM   35  H   UNL     1     -10.919   5.657  66.119  1.00  0.00     0.000 HD 
HETATM   36  C   UNL     1      -9.856   4.756  68.427  1.00  0.00    -0.121 C  
HETATM   37  C   UNL     1     -10.031   6.149  67.818  1.00  0.00    -0.127 C  
HETATM   38  H   UNL     1     -10.641   3.690  66.914  1.00  0.00     0.000 HD 
HETATM   39  O   UNL     1      -9.831   3.754  67.406  1.00  0.00    -0.156 OA 
HETATM   40  O   UNL     1     -10.143   6.127  66.399  1.00  0.00    -0.145 OA 
BRANCH  34  41
HETATM   41  N   UNL     1      -8.562   4.101  70.457  1.00  0.00    -0.076 NA 
HETATM   42  C   UNL     1      -9.512   3.220  70.891  1.00  0.00    -0.164 A  
HETATM   43  N   UNL     1      -9.183   2.673  72.045  1.00  0.00    -0.088 NA 
HETATM   44  C   UNL     1      -7.976   3.251  72.381  1.00  0.00    -0.063 A  
HETATM   45  C   UNL     1      -7.110   3.084  73.474  1.00  0.00    -0.041 A  
HETATM   46  N   UNL     1      -7.336   2.168  74.491  1.00  0.00    -0.035 NA 
HETATM   47  N   UNL     1      -5.998   3.855  73.541  1.00  0.00    -0.007 NA 
HETATM   48  H1  UNL     1      -6.707   2.046  75.285  1.00  0.00     0.000 HD 
HETATM   49  C   UNL     1      -5.751   4.716  72.530  1.00  0.00    -0.012 A  
HETATM   50  H2  UNL     1      -7.455   1.253  74.055  1.00  0.00     0.000 HD 
HETATM   51  N   UNL     1      -6.477   4.928  71.408  1.00  0.00    -0.026 NA 
HETATM   52  C   UNL     1      -7.586   4.166  71.416  1.00  0.00    -0.064 A  
ENDBRANCH  34  41
ENDBRANCH  31  32
ENDBRANCH  30  31
ENDBRANCH  27  30
ENDBRANCH  26  27
ENDBRANCH  23  26
ENDBRANCH  22  23
ENDBRANCH  21  22
ENDBRANCH  14  21
ENDBRANCH   8  12
ENDBRANCH   4   6
TORSDOF 11
ENDMDL
MODEL      258
REMARK 921   NORMALIZED FREE ENERGY PREDICTED BY IDOCK:   -2.98 KCAL/MOL
REMARK 922        TOTAL FREE ENERGY PREDICTED BY IDOCK:   -7.11 KCAL/MOL
REMARK 923 INTER-LIGAND FREE ENERGY PREDICTED BY IDOCK:   -6.41 KCAL/MOL
REMARK 924 INTRA-LIGAND FREE ENERGY PREDICTED BY IDOCK:   -0.70 KCAL/MOL
REMARK 927      BINDING AFFINITY PREDICTED BY RF-SCORE:    0.00 PKD
ROOT
HETATM    1  N   UNL     1     -10.550   6.263  66.373  1.00  0.00    -0.490 N  
HETATM    2  H1  UNL     1     -10.788   7.241  66.204  1.00  0.00     0.000 HD 
HETATM    3  H2  UNL     1     -11.102   5.527  65.932  1.00  0.00     0.000 HD 
HETATM    4  C   UNL     1      -9.513   5.932  67.174  1.00  0.00    -0.117 C  
HETATM    5  O   UNL     1      -9.227   4.753  67.377  1.00  0.00    -0.120 OA 
ENDROOT
BRANCH   4   6
HETATM    6  C   UNL     1      -8.766   7.051  67.790  1.00  0.00    -0.121 C  
HETATM    7  C   UNL     1      -8.328   6.857  69.048  1.00  0.00    -0.125 C  
HETATM    8  N   UNL     1      -7.558   7.782  69.749  1.00  0.00    -0.089 NA 
HETATM    9  C   UNL     1      -8.435   8.314  67.043  1.00  0.00    -0.122 C  
HETATM   10  C   UNL     1      -7.361   9.035  69.158  1.00  0.00    -0.072 C  
HETATM   11  C   UNL     1      -7.748   9.339  67.910  1.00  0.00    -0.088 C  
BRANCH   8  12
HETATM   12  C   UNL     1      -6.809   7.472  70.987  1.00  0.00    -0.050 C  
HETATM   13  O   UNL     1      -7.332   6.249  71.552  1.00  0.00    -0.085 OA 
HETATM   14  C   UNL     1      -8.404   6.606  72.454  1.00  0.00    -0.106 C  
HETATM   15  H   UNL     1      -5.810   8.900  73.793  1.00  0.00     0.000 HD 
HETATM   16  C   UNL     1      -8.163   8.047  72.895  1.00  0.00    -0.167 C  
HETATM   17  H   UNL     1      -7.851   9.016  74.591  1.00  0.00     0.000 HD 
HETATM   18  C   UNL     1      -6.887   8.457  72.165  1.00  0.00    -0.086 C  
HETATM   19  O   UNL     1      -8.001   8.119  74.317  1.00  0.00    -0.221 OA 
HETATM   20  O   UNL     1      -5.762   8.291  73.064  1.00  0.00    -0.052 OA 
BRANCH  14  21
HETATM   21  C   UNL     1      -9.765   6.430  71.764  1.00  0.00    -0.159 C  
BRANCH  21  22
HETATM   22  O   UNL     1     -10.121   7.593  71.026  1.00  0.00    -0.190 OA 
BRANCH  22  23
HETATM   23  P   UNL     1     -11.541   8.266  71.312  1.00  0.00    -0.293 P  
HETATM   24  O   UNL     1     -12.751   7.526  70.850  1.00  0.00    -0.203 OA 
HETATM   25  O   UNL     1     -11.553   8.325  72.919  1.00  0.00    -0.351 OA 
BRANCH  23  26
HETATM   26  O   UNL     1     -11.432   9.793  70.919  1.00  0.00    -0.309 OA 
BRANCH  26  27
HETATM   27  P   UNL     1     -12.650  10.715  70.511  1.00  0.00    -0.254 P  
HETATM   28  O   UNL     1     -12.961  11.515  71.869  1.00  0.00    -0.440 OA 
HETATM   29  O   UNL     1     -13.895  10.055  70.025  1.00  0.00     0.482 OA 
BRANCH  27  30
HETATM   30  O   UNL     1     -12.078  11.861  69.544  1.00  0.00    -0.282 OA 
BRANCH  30  31
HETATM   31  C   UNL     1     -12.753  12.202  68.338  1.00  0.00     1.769 C  
BRANCH  31  32
HETATM   32  C   UNL     1     -11.810  12.492  67.175  1.00  0.00    -0.316 C  
HETATM   33  O   UNL     1     -11.247  13.815  67.273  1.00  0.00    -0.293 OA 
HETATM   34  C   UNL     1     -10.132  13.784  66.361  1.00  0.00    -0.295 C  
HETATM   35  H   UNL     1     -10.141   9.797  66.352  1.00  0.00     0.000 HD 
HETATM   36  C   UNL     1      -9.486  12.404  66.559  1.00  0.00    -0.242 C  
HETATM   37  C   UNL     1     -10.612  11.548  67.144  1.00  0.00    -0.237 C  
HETATM   38  H   UNL     1      -8.585  10.972  65.471  1.00  0.00     0.000 HD 
HETATM   39  O   UNL     1      -8.984  11.826  65.350  1.00  0.00    -0.027 OA 
HETATM   40  O   UNL     1     -10.886  10.385  66.372  1.00  0.00    -0.119 OA 
BRANCH  34  41
HETATM   41  N   UNL     1      -9.226  14.884  66.625  1.00  0.00    -0.261 NA 
HETATM   42  C   UNL     1      -7.990  14.836  67.205  1.00  0.00    -0.205 A  
HETATM   43  N   UNL     1      -7.422  16.026  67.249  1.00  0.00    -0.180 NA 
HETATM   44  C   UNL     1      -8.351  16.883  66.695  1.00  0.00    -0.253 A  
HETATM   45  C   UNL     1      -8.343  18.266  66.446  1.00  0.00    -0.243 A  
HETATM   46  N   UNL     1      -7.251  19.080  66.710  1.00  0.00    -0.205 NA 
HETATM   47  N   UNL     1      -9.456  18.834  65.925  1.00  0.00    -0.433 NA 
HETATM   48  H1  UNL     1      -7.246  20.084  66.529  1.00  0.00     0.000 HD 
HETATM   49  C   UNL     1     -10.504  18.037  65.625  1.00  0.00    -0.097 A  
HETATM   50  H2  UNL     1      -6.449  18.679  66.223  1.00  0.00     0.000 HD 
HETATM   51  N   UNL     1     -10.611  16.696  65.768  1.00  0.00    -0.345 NA 
HETATM   52  C   UNL     1      -9.494  16.194  66.326  1.00  0.00    -0.316 A  
ENDBRANCH  34  41
ENDBRANCH  31  32
ENDBRANCH  30  31
ENDBRANCH  27  30
ENDBRANCH  26  27
ENDBRANCH  23  26
ENDBRANCH  22  23
ENDBRANCH  21  22
ENDBRANCH  14  21
ENDBRANCH   8  12
ENDBRANCH   4   6
TORSDOF 11
ENDMDL
MODEL      259
REMARK 921   NORMALIZED FREE ENERGY PREDICTED BY IDOCK:   -2.96 KCAL/MOL
REMARK 922        TOTAL FREE ENERGY PREDICTED BY IDOCK:   -7.07 KCAL/MOL
REMARK 923 INTER-LIGAND FREE ENERGY PREDICTED BY IDOCK:   -8.08 KCAL/MOL
REMARK 924 INTRA-LIGAND FREE ENERGY PREDICTED BY IDOCK:    1.02 KCAL/MOL
REMARK 927      BINDING AFFINITY PREDICTED BY RF-SCORE:    0.00 PKD
ROOT
HETATM    1  N   UNL     1      -7.294  18.266  67.723  1.00  0.00    -0.214 N  
HETATM    2  H1  UNL     1      -7.722  18.242  66.797  1.00  0.00     0.000 HD 
HETATM    3  H2  UNL     1      -6.898  19.138  68.073  1.00  0.00     0.000 HD 
HETATM    4  C   UNL     1      -7.245  17.155  68.491  1.00  0.00    -0.220 C  
HETATM    5  O   UNL     1      -6.728  17.184  69.608  1.00  0.00    -0.201 OA 
ENDROOT
BRANCH   4   6
HETATM    6  C   UNL     1      -7.826  15.921  67.914  1.00  0.00    -0.148 C  
HETATM    7  C   UNL     1      -9.130  15.972  67.583  1.00  0.00    -0.199 C  
HETATM    8  N   UNL     1      -9.813  14.922  66.973  1.00  0.00    -0.233 NA 
HETATM    9  C   UNL     1      -7.004  14.693  67.633  1.00  0.00    -0.205 C  
HETATM   10  C   UNL     1      -9.135  13.705  66.840  1.00  0.00    -0.240 C  
HETATM   11  C   UNL     1      -7.836  13.540  67.131  1.00  0.00    -0.025 C  
BRANCH   8  12
HETATM   12  C   UNL     1     -11.134  15.057  66.322  1.00  0.00    -0.334 C  
HETATM   13  O   UNL     1     -12.060  14.148  66.957  1.00  0.00    -0.427 OA 
HETATM   14  C   UNL     1     -11.994  12.890  66.248  1.00  0.00    -0.408 C  
HETATM   15  H   UNL     1     -12.509  15.112  63.320  1.00  0.00     0.000 HD 
HETATM   16  C   UNL     1     -11.482  13.189  64.842  1.00  0.00    -0.309 C  
HETATM   17  H   UNL     1     -12.127  12.977  62.984  1.00  0.00     0.000 HD 
HETATM   18  C   UNL     1     -11.266  14.700  64.833  1.00  0.00    -0.396 C  
HETATM   19  O   UNL     1     -12.446  12.790  63.860  1.00  0.00    -0.584 OA 
HETATM   20  O   UNL     1     -12.427  15.333  64.240  1.00  0.00    -0.554 OA 
BRANCH  14  21
HETATM   21  C   UNL     1     -11.088  11.900  66.998  1.00  0.00    -0.302 C  
BRANCH  21  22
HETATM   22  O   UNL     1     -11.198  12.068  68.406  1.00  0.00    -0.221 OA 
BRANCH  22  23
HETATM   23  P   UNL     1     -11.465  10.775  69.304  1.00  0.00    -0.312 P  
HETATM   24  O   UNL     1     -12.787  10.681  69.988  1.00  0.00    -0.235 OA 
HETATM   25  O   UNL     1     -11.363   9.597  68.213  1.00  0.00    -0.033 OA 
BRANCH  23  26
HETATM   26  O   UNL     1     -10.175  10.532  70.185  1.00  0.00    -0.110 OA 
BRANCH  26  27
HETATM   27  P   UNL     1      -8.737  10.202  69.616  1.00  0.00    -0.026 P  
HETATM   28  O   UNL     1      -8.267   8.968  70.534  1.00  0.00    -0.130 OA 
HETATM   29  O   UNL     1      -7.704  11.276  69.658  1.00  0.00     0.082 OA 
BRANCH  27  30
HETATM   30  O   UNL     1      -8.937   9.521  68.178  1.00  0.00    -0.124 OA 
BRANCH  30  31
HETATM   31  C   UNL     1      -7.960   9.678  67.154  1.00  0.00    -0.106 C  
BRANCH  31  32
HETATM   32  C   UNL     1      -7.635   8.382  66.419  1.00  0.00    -0.084 C  
HETATM   33  O   UNL     1      -7.632   7.256  67.318  1.00  0.00    -0.100 OA 
HETATM   34  C   UNL     1      -7.696   6.114  66.442  1.00  0.00    -0.102 C  
HETATM   35  H   UNL     1      -8.970   8.393  63.428  1.00  0.00     0.000 HD 
HETATM   36  C   UNL     1      -8.686   6.509  65.335  1.00  0.00    -0.008 C  
HETATM   37  C   UNL     1      -8.670   8.039  65.352  1.00  0.00    -0.068 C  
HETATM   38  H   UNL     1      -8.944   6.254  63.357  1.00  0.00     0.000 HD 
HETATM   39  O   UNL     1      -8.332   6.010  64.042  1.00  0.00    -0.085 OA 
HETATM   40  O   UNL     1      -8.326   8.606  64.093  1.00  0.00    -0.168 OA 
BRANCH  34  41
HETATM   41  N   UNL     1      -8.097   4.930  67.175  1.00  0.00    -0.106 NA 
HETATM   42  C   UNL     1      -7.978   3.623  66.795  1.00  0.00    -0.091 A  
HETATM   43  N   UNL     1      -8.407   2.798  67.730  1.00  0.00    -0.079 NA 
HETATM   44  C   UNL     1      -8.850   3.617  68.749  1.00  0.00    -0.112 A  
HETATM   45  C   UNL     1      -9.404   3.352  70.012  1.00  0.00    -0.171 A  
HETATM   46  N   UNL     1      -9.574   2.070  70.515  1.00  0.00    -0.097 NA 
HETATM   47  N   UNL     1      -9.792   4.398  70.779  1.00  0.00    -0.203 NA 
HETATM   48  H1  UNL     1      -9.977   1.878  71.432  1.00  0.00     0.000 HD 
HETATM   49  C   UNL     1      -9.587   5.649  70.312  1.00  0.00    -0.168 A  
HETATM   50  H2  UNL     1      -8.666   1.606  70.478  1.00  0.00     0.000 HD 
HETATM   51  N   UNL     1      -9.019   6.030  69.144  1.00  0.00    -0.124 NA 
HETATM   52  C   UNL     1      -8.691   4.950  68.410  1.00  0.00    -0.101 A  
ENDBRANCH  34  41
ENDBRANCH  31  32
ENDBRANCH  30  31
ENDBRANCH  27  30
ENDBRANCH  26  27
ENDBRANCH  23  26
ENDBRANCH  22  23
ENDBRANCH  21  22
ENDBRANCH  14  21
ENDBRANCH   8  12
ENDBRANCH   4   6
TORSDOF 11
ENDMDL
MODEL      260
REMARK 921   NORMALIZED FREE ENERGY PREDICTED BY IDOCK:   -2.92 KCAL/MOL
REMARK 922        TOTAL FREE ENERGY PREDICTED BY IDOCK:   -7.01 KCAL/MOL
REMARK 923 INTER-LIGAND FREE ENERGY PREDICTED BY IDOCK:   -5.74 KCAL/MOL
REMARK 924 INTRA-LIGAND FREE ENERGY PREDICTED BY IDOCK:   -1.27 KCAL/MOL
REMARK 927      BINDING AFFINITY PREDICTED BY RF-SCORE:    0.00 PKD
ROOT
HETATM    1  N   UNL     1     -11.915  14.783  63.934  1.00  0.00    -0.871 N  
HETATM    2  H1  UNL     1     -11.758  15.741  64.249  1.00  0.00     0.000 HD 
HETATM    3  H2  UNL     1     -12.358  14.616  63.031  1.00  0.00     0.000 HD 
HETATM    4  C   UNL     1     -11.544  13.734  64.701  1.00  0.00    -0.378 C  
HETATM    5  O   UNL     1     -11.734  12.579  64.321  1.00  0.00    -0.336 OA 
ENDROOT
BRANCH   4   6
HETATM    6  C   UNL     1     -10.920  14.052  66.005  1.00  0.00    -0.298 C  
HETATM    7  C   UNL     1      -9.703  13.522  66.231  1.00  0.00    -0.277 C  
HETATM    8  N   UNL     1      -8.953  13.772  67.378  1.00  0.00    -0.213 NA 
HETATM    9  C   UNL     1     -11.559  14.976  67.005  1.00  0.00    -0.248 C  
HETATM   10  C   UNL     1      -9.571  14.493  68.406  1.00  0.00    -0.213 C  
HETATM   11  C   UNL     1     -10.776  15.070  68.291  1.00  0.00    -0.253 C  
BRANCH   8  12
HETATM   12  C   UNL     1      -7.511  13.468  67.511  1.00  0.00    -0.167 C  
HETATM   13  O   UNL     1      -7.215  12.280  66.743  1.00  0.00    -0.019 OA 
HETATM   14  C   UNL     1      -7.393  11.140  67.613  1.00  0.00    -0.095 C  
HETATM   15  H   UNL     1      -5.173  13.137  69.819  1.00  0.00     0.000 HD 
HETATM   16  C   UNL     1      -7.227  11.636  69.048  1.00  0.00    -0.094 C  
HETATM   17  H   UNL     1      -6.036  11.269  70.583  1.00  0.00     0.000 HD 
HETATM   18  C   UNL     1      -6.951  13.129  68.902  1.00  0.00    -0.093 C  
HETATM   19  O   UNL     1      -6.139  10.960  69.690  1.00  0.00    -0.055 OA 
HETATM   20  O   UNL     1      -5.519  13.346  68.959  1.00  0.00    -0.072 OA 
BRANCH  14  21
HETATM   21  C   UNL     1      -8.769  10.497  67.377  1.00  0.00    -0.125 C  
BRANCH  21  22
HETATM   22  O   UNL     1      -8.839   9.203  67.964  1.00  0.00    -0.129 OA 
BRANCH  22  23
HETATM   23  P   UNL     1      -8.643   7.931  67.018  1.00  0.00    -0.134 P  
HETATM   24  O   UNL     1      -9.255   6.647  67.469  1.00  0.00    -0.116 OA 
HETATM   25  O   UNL     1      -9.383   8.412  65.673  1.00  0.00    -0.126 OA 
BRANCH  23  26
HETATM   26  O   UNL     1      -7.127   7.895  66.575  1.00  0.00    -0.072 OA 
BRANCH  26  27
HETATM   27  P   UNL     1      -6.504   6.863  65.552  1.00  0.00    -0.048 P  
HETATM   28  O   UNL     1      -5.606   7.800  64.605  1.00  0.00    -0.033 OA 
HETATM   29  O   UNL     1      -7.438   6.057  64.715  1.00  0.00    -0.070 OA 
BRANCH  27  30
HETATM   30  O   UNL     1      -5.407   6.005  66.348  1.00  0.00    -0.009 OA 
BRANCH  30  31
HETATM   31  C   UNL     1      -5.276   4.604  66.129  1.00  0.00    -0.009 C  
BRANCH  31  32
HETATM   32  C   UNL     1      -5.798   3.756  67.284  1.00  0.00    -0.023 C  
HETATM   33  O   UNL     1      -5.485   4.354  68.557  1.00  0.00    -0.011 OA 
HETATM   34  C   UNL     1      -6.348   3.667  69.483  1.00  0.00    -0.029 C  
HETATM   35  H   UNL     1      -8.674   2.399  66.503  1.00  0.00     0.000 HD 
HETATM   36  C   UNL     1      -7.691   3.518  68.750  1.00  0.00    -0.052 C  
HETATM   37  C   UNL     1      -7.316   3.618  67.269  1.00  0.00    -0.064 C  
HETATM   38  H   UNL     1      -9.190   2.190  68.570  1.00  0.00     0.000 HD 
HETATM   39  O   UNL     1      -8.360   2.283  69.023  1.00  0.00    -0.051 OA 
HETATM   40  O   UNL     1      -7.728   2.485  66.513  1.00  0.00    -0.070 OA 
BRANCH  34  41
HETATM   41  N   UNL     1      -6.453   4.404  70.726  1.00  0.00    -0.029 NA 
HETATM   42  C   UNL     1      -5.548   4.467  71.748  1.00  0.00    -0.011 A  
HETATM   43  N   UNL     1      -5.950   5.272  72.712  1.00  0.00    -0.026 NA 
HETATM   44  C   UNL     1      -7.187   5.727  72.302  1.00  0.00    -0.089 A  
HETATM   45  C   UNL     1      -8.115   6.613  72.874  1.00  0.00    -0.107 A  
HETATM   46  N   UNL     1      -7.890   7.285  74.066  1.00  0.00    -0.109 NA 
HETATM   47  N   UNL     1      -9.289   6.820  72.232  1.00  0.00    -0.140 NA 
HETATM   48  H1  UNL     1      -8.564   7.928  74.481  1.00  0.00     0.000 HD 
HETATM   49  C   UNL     1      -9.493   6.202  71.048  1.00  0.00    -0.171 A  
HETATM   50  H2  UNL     1      -7.008   7.791  73.968  1.00  0.00     0.000 HD 
HETATM   51  N   UNL     1      -8.660   5.375  70.375  1.00  0.00    -0.122 NA 
HETATM   52  C   UNL     1      -7.530   5.175  71.078  1.00  0.00    -0.078 A  
ENDBRANCH  34  41
ENDBRANCH  31  32
ENDBRANCH  30  31
ENDBRANCH  27  30
ENDBRANCH  26  27
ENDBRANCH  23  26
ENDBRANCH  22  23
ENDBRANCH  21  22
ENDBRANCH  14  21
ENDBRANCH   8  12
ENDBRANCH   4   6
TORSDOF 11
ENDMDL
MODEL      261
REMARK 921   NORMALIZED FREE ENERGY PREDICTED BY IDOCK:   -2.92 KCAL/MOL
REMARK 922        TOTAL FREE ENERGY PREDICTED BY IDOCK:   -7.00 KCAL/MOL
REMARK 923 INTER-LIGAND FREE ENERGY PREDICTED BY IDOCK:   -7.26 KCAL/MOL
REMARK 924 INTRA-LIGAND FREE ENERGY PREDICTED BY IDOCK:    0.26 KCAL/MOL
REMARK 927      BINDING AFFINITY PREDICTED BY RF-SCORE:    0.00 PKD
ROOT
HETATM    1  N   UNL     1      -7.221   2.985  69.601  1.00  0.00    -0.044 N  
HETATM    2  H1  UNL     1      -8.147   2.573  69.719  1.00  0.00     0.000 HD 
HETATM    3  H2  UNL     1      -6.419   2.566  70.072  1.00  0.00     0.000 HD 
HETATM    4  C   UNL     1      -7.046   4.079  68.827  1.00  0.00    -0.054 C  
HETATM    5  O   UNL     1      -5.929   4.576  68.685  1.00  0.00    -0.024 OA 
ENDROOT
BRANCH   4   6
HETATM    6  C   UNL     1      -8.255   4.641  68.185  1.00  0.00    -0.091 C  
HETATM    7  C   UNL     1      -9.238   5.047  69.011  1.00  0.00    -0.114 C  
HETATM    8  N   UNL     1     -10.412   5.654  68.574  1.00  0.00    -0.210 NA 
HETATM    9  C   UNL     1      -8.369   4.829  66.697  1.00  0.00    -0.106 C  
HETATM   10  C   UNL     1     -10.636   5.703  67.193  1.00  0.00    -0.270 C  
HETATM   11  C   UNL     1      -9.728   5.333  66.278  1.00  0.00    -0.185 C  
BRANCH   8  12
HETATM   12  C   UNL     1     -11.349   6.384  69.457  1.00  0.00    -0.393 C  
HETATM   13  O   UNL     1     -11.751   7.606  68.798  1.00  0.00     0.885 OA 
HETATM   14  C   UNL     1     -10.810   8.636  69.177  1.00  0.00    -0.039 C  
HETATM   15  H   UNL     1     -11.639   7.412  72.582  1.00  0.00     0.000 HD 
HETATM   16  C   UNL     1     -10.187   8.214  70.504  1.00  0.00    -0.198 C  
HETATM   17  H   UNL     1     -10.068   8.926  72.346  1.00  0.00     0.000 HD 
HETATM   18  C   UNL     1     -10.847   6.876  70.824  1.00  0.00    -0.245 C  
HETATM   19  O   UNL     1     -10.457   9.189  71.519  1.00  0.00    -0.316 OA 
HETATM   20  O   UNL     1     -11.949   7.107  71.737  1.00  0.00    -0.284 OA 
BRANCH  14  21
HETATM   21  C   UNL     1      -9.756   8.829  68.075  1.00  0.00    -0.157 C  
BRANCH  21  22
HETATM   22  O   UNL     1     -10.312   9.478  66.939  1.00  0.00    -0.240 OA 
BRANCH  22  23
HETATM   23  P   UNL     1     -10.092  11.052  66.782  1.00  0.00    -0.236 P  
HETATM   24  O   UNL     1      -9.451  11.767  67.924  1.00  0.00    -0.178 OA 
HETATM   25  O   UNL     1      -9.106  11.116  65.514  1.00  0.00    -0.206 OA 
BRANCH  23  26
HETATM   26  O   UNL     1     -11.429  11.665  66.202  1.00  0.00    -0.330 OA 
BRANCH  26  27
HETATM   27  P   UNL     1     -11.505  12.822  65.127  1.00  0.00    -0.357 P  
HETATM   28  O   UNL     1     -12.950  13.469  65.404  1.00  0.00    -0.656 OA 
HETATM   29  O   UNL     1     -11.393  12.449  63.688  1.00  0.00    -0.412 OA 
BRANCH  27  30
HETATM   30  O   UNL     1     -10.499  13.979  65.599  1.00  0.00    -0.294 OA 
BRANCH  30  31
HETATM   31  C   UNL     1     -10.971  15.298  65.849  1.00  0.00    -0.325 C  
BRANCH  31  32
HETATM   32  C   UNL     1     -10.084  16.090  66.805  1.00  0.00    -0.268 C  
HETATM   33  O   UNL     1      -9.578  15.255  67.865  1.00  0.00    -0.198 OA 
HETATM   34  C   UNL     1      -8.497  16.024  68.425  1.00  0.00    -0.180 C  
HETATM   35  H   UNL     1      -8.325  18.313  65.164  1.00  0.00     0.000 HD 
HETATM   36  C   UNL     1      -7.782  16.654  67.219  1.00  0.00    -0.169 C  
HETATM   37  C   UNL     1      -8.847  16.659  66.119  1.00  0.00    -0.288 C  
HETATM   38  H   UNL     1      -6.857  18.368  66.720  1.00  0.00     0.000 HD 
HETATM   39  O   UNL     1      -7.299  17.978  67.465  1.00  0.00    -0.202 OA 
HETATM   40  O   UNL     1      -9.096  17.957  65.591  1.00  0.00    -0.344 OA 
BRANCH  34  41
HETATM   41  N   UNL     1      -7.633  15.181  69.227  1.00  0.00    -0.187 NA 
HETATM   42  C   UNL     1      -7.089  15.455  70.450  1.00  0.00     0.415 A  
HETATM   43  N   UNL     1      -6.386  14.440  70.913  1.00  0.00    -0.083 NA 
HETATM   44  C   UNL     1      -6.458  13.478  69.926  1.00  0.00    -0.013 A  
HETATM   45  C   UNL     1      -5.935  12.179  69.819  1.00  0.00    -0.137 A  
HETATM   46  N   UNL     1      -5.211  11.565  70.831  1.00  0.00    -0.124 NA 
HETATM   47  N   UNL     1      -6.146  11.490  68.673  1.00  0.00    -0.046 NA 
HETATM   48  H1  UNL     1      -4.831  10.622  70.754  1.00  0.00     0.000 HD 
HETATM   49  C   UNL     1      -6.889  12.067  67.703  1.00  0.00    -0.115 A  
HETATM   50  H2  UNL     1      -5.784  11.594  71.675  1.00  0.00     0.000 HD 
HETATM   51  N   UNL     1      -7.486  13.281  67.710  1.00  0.00    -0.137 NA 
HETATM   52  C   UNL     1      -7.209  13.933  68.854  1.00  0.00    -0.103 A  
ENDBRANCH  34  41
ENDBRANCH  31  32
ENDBRANCH  30  31
ENDBRANCH  27  30
ENDBRANCH  26  27
ENDBRANCH  23  26
ENDBRANCH  22  23
ENDBRANCH  21  22
ENDBRANCH  14  21
ENDBRANCH   8  12
ENDBRANCH   4   6
TORSDOF 11
ENDMDL
MODEL      262
REMARK 921   NORMALIZED FREE ENERGY PREDICTED BY IDOCK:   -2.87 KCAL/MOL
REMARK 922        TOTAL FREE ENERGY PREDICTED BY IDOCK:   -6.92 KCAL/MOL
REMARK 923 INTER-LIGAND FREE ENERGY PREDICTED BY IDOCK:   -5.56 KCAL/MOL
REMARK 924 INTRA-LIGAND FREE ENERGY PREDICTED BY IDOCK:   -1.36 KCAL/MOL
REMARK 927      BINDING AFFINITY PREDICTED BY RF-SCORE:    0.00 PKD
ROOT
HETATM    1  N   UNL     1      -8.475   9.970  62.468  1.00  0.00    -0.149 N  
HETATM    2  H1  UNL     1      -7.528  10.051  62.096  1.00  0.00     0.000 HD 
HETATM    3  H2  UNL     1      -9.260   9.862  61.826  1.00  0.00     0.000 HD 
HETATM    4  C   UNL     1      -8.700  10.003  63.800  1.00  0.00    -0.217 C  
HETATM    5  O   UNL     1      -9.842   9.905  64.247  1.00  0.00    -0.203 OA 
ENDROOT
BRANCH   4   6
HETATM    6  C   UNL     1      -7.515  10.175  64.670  1.00  0.00    -0.132 C  
HETATM    7  C   UNL     1      -7.691   9.913  65.979  1.00  0.00    -0.108 C  
HETATM    8  N   UNL     1      -6.666   9.965  66.921  1.00  0.00    -0.077 NA 
HETATM    9  C   UNL     1      -6.161  10.547  64.131  1.00  0.00    -0.016 C  
HETATM   10  C   UNL     1      -5.428  10.462  66.498  1.00  0.00    -0.055 C  
HETATM   11  C   UNL     1      -5.138  10.751  65.221  1.00  0.00    -0.142 C  
BRANCH   8  12
HETATM   12  C   UNL     1      -6.756   9.386  68.279  1.00  0.00    -0.059 C  
HETATM   13  O   UNL     1      -7.818  10.052  68.999  1.00  0.00    -0.087 OA 
HETATM   14  C   UNL     1      -7.240  11.192  69.674  1.00  0.00    -0.011 C  
HETATM   15  H   UNL     1      -4.844   8.617  70.860  1.00  0.00     0.000 HD 
HETATM   16  C   UNL     1      -5.752  10.905  69.856  1.00  0.00    -0.067 C  
HETATM   17  H   UNL     1      -4.480  10.723  71.359  1.00  0.00     0.000 HD 
HETATM   18  C   UNL     1      -5.554   9.529  69.226  1.00  0.00    -0.035 C  
HETATM   19  O   UNL     1      -5.406  10.902  71.246  1.00  0.00    -0.188 OA 
HETATM   20  O   UNL     1      -5.587   8.528  70.274  1.00  0.00    -0.022 OA 
BRANCH  14  21
HETATM   21  C   UNL     1      -7.489  12.475  68.865  1.00  0.00     0.011 C  
BRANCH  21  22
HETATM   22  O   UNL     1      -8.880  12.697  68.669  1.00  0.00    -0.089 OA 
BRANCH  22  23
HETATM   23  P   UNL     1      -9.359  14.155  68.226  1.00  0.00    -0.196 P  
HETATM   24  O   UNL     1      -9.298  15.234  69.254  1.00  0.00    -0.223 OA 
HETATM   25  O   UNL     1      -8.312  14.497  67.054  1.00  0.00    -0.206 OA 
BRANCH  23  26
HETATM   26  O   UNL     1     -10.715  13.989  67.430  1.00  0.00    -0.278 OA 
BRANCH  26  27
HETATM   27  P   UNL     1     -11.482  12.623  67.218  1.00  0.00    -0.374 P  
HETATM   28  O   UNL     1     -10.466  11.784  66.298  1.00  0.00    -0.229 OA 
HETATM   29  O   UNL     1     -12.823  12.666  66.569  1.00  0.00     0.218 OA 
BRANCH  27  30
HETATM   30  O   UNL     1     -11.438  11.830  68.612  1.00  0.00    -0.236 OA 
BRANCH  30  31
HETATM   31  C   UNL     1     -12.010  10.532  68.732  1.00  0.00     0.102 C  
BRANCH  31  32
HETATM   32  C   UNL     1     -10.975   9.426  68.911  1.00  0.00    -0.050 C  
HETATM   33  O   UNL     1     -11.138   8.754  70.175  1.00  0.00    -0.251 OA 
HETATM   34  C   UNL     1     -10.375   7.541  70.023  1.00  0.00    -0.221 C  
HETATM   35  H   UNL     1     -10.383   7.936  66.055  1.00  0.00     0.000 HD 
HETATM   36  C   UNL     1     -10.659   7.062  68.590  1.00  0.00    -0.210 C  
HETATM   37  C   UNL     1     -11.100   8.331  67.856  1.00  0.00     0.383 C  
HETATM   38  H   UNL     1      -9.701   6.175  67.061  1.00  0.00     0.000 HD 
HETATM   39  O   UNL     1      -9.526   6.471  67.947  1.00  0.00    -0.122 OA 
HETATM   40  O   UNL     1     -10.305   8.618  66.712  1.00  0.00    -0.286 OA 
BRANCH  34  41
HETATM   41  N   UNL     1     -10.747   6.573  71.035  1.00  0.00    -0.234 NA 
HETATM   42  C   UNL     1     -11.844   6.586  71.850  1.00  0.00    -0.334 A  
HETATM   43  N   UNL     1     -11.892   5.520  72.625  1.00  0.00    -0.210 NA 
HETATM   44  C   UNL     1     -10.755   4.802  72.311  1.00  0.00    -0.115 A  
HETATM   45  C   UNL     1     -10.242   3.579  72.775  1.00  0.00    -0.168 A  
HETATM   46  N   UNL     1     -10.896   2.782  73.703  1.00  0.00    -0.192 NA 
HETATM   47  N   UNL     1      -9.048   3.157  72.295  1.00  0.00    -0.094 NA 
HETATM   48  H1  UNL     1     -10.523   1.894  74.040  1.00  0.00     0.000 HD 
HETATM   49  C   UNL     1      -8.430   3.908  71.358  1.00  0.00    -0.077 A  
HETATM   50  H2  UNL     1     -11.833   2.600  73.341  1.00  0.00     0.000 HD 
HETATM   51  N   UNL     1      -8.846   5.068  70.798  1.00  0.00    -0.128 NA 
HETATM   52  C   UNL     1     -10.014   5.457  71.342  1.00  0.00    -0.184 A  
ENDBRANCH  34  41
ENDBRANCH  31  32
ENDBRANCH  30  31
ENDBRANCH  27  30
ENDBRANCH  26  27
ENDBRANCH  23  26
ENDBRANCH  22  23
ENDBRANCH  21  22
ENDBRANCH  14  21
ENDBRANCH   8  12
ENDBRANCH   4   6
TORSDOF 11
ENDMDL
MODEL      263
REMARK 921   NORMALIZED FREE ENERGY PREDICTED BY IDOCK:   -2.87 KCAL/MOL
REMARK 922        TOTAL FREE ENERGY PREDICTED BY IDOCK:   -6.91 KCAL/MOL
REMARK 923 INTER-LIGAND FREE ENERGY PREDICTED BY IDOCK:   -6.16 KCAL/MOL
REMARK 924 INTRA-LIGAND FREE ENERGY PREDICTED BY IDOCK:   -0.75 KCAL/MOL
REMARK 927      BINDING AFFINITY PREDICTED BY RF-SCORE:    0.00 PKD
ROOT
HETATM    1  N   UNL     1      -9.737   5.063  73.306  1.00  0.00    -0.143 N  
HETATM    2  H1  UNL     1     -10.054   4.634  72.437  1.00  0.00     0.000 HD 
HETATM    3  H2  UNL     1      -9.392   4.473  74.064  1.00  0.00     0.000 HD 
HETATM    4  C   UNL     1      -9.767   6.405  73.466  1.00  0.00    -0.173 C  
HETATM    5  O   UNL     1      -9.384   6.922  74.515  1.00  0.00    -0.216 OA 
ENDROOT
BRANCH   4   6
HETATM    6  C   UNL     1     -10.292   7.198  72.332  1.00  0.00    -0.228 C  
HETATM    7  C   UNL     1     -10.366   6.568  71.145  1.00  0.00    -0.205 C  
HETATM    8  N   UNL     1     -10.893   7.150  69.994  1.00  0.00    -0.248 NA 
HETATM    9  C   UNL     1     -10.792   8.608  72.492  1.00  0.00    -0.210 C  
HETATM   10  C   UNL     1     -11.221   8.509  70.052  1.00  0.00    -0.086 C  
HETATM   11  C   UNL     1     -11.191   9.235  71.180  1.00  0.00    -0.413 C  
BRANCH   8  12
HETATM   12  C   UNL     1     -11.273   6.394  68.780  1.00  0.00    -0.274 C  
HETATM   13  O   UNL     1     -10.671   5.082  68.842  1.00  0.00    -0.004 OA 
HETATM   14  C   UNL     1      -9.372   5.167  68.214  1.00  0.00    -0.122 C  
HETATM   15  H   UNL     1     -11.369   6.717  65.495  1.00  0.00     0.000 HD 
HETATM   16  C   UNL     1      -9.410   6.354  67.256  1.00  0.00    -0.119 C  
HETATM   17  H   UNL     1      -9.182   6.665  65.316  1.00  0.00     0.000 HD 
HETATM   18  C   UNL     1     -10.819   6.919  67.409  1.00  0.00    -0.326 C  
HETATM   19  O   UNL     1      -9.158   5.925  65.912  1.00  0.00    -0.159 OA 
HETATM   20  O   UNL     1     -11.650   6.393  66.343  1.00  0.00     0.495 OA 
BRANCH  14  21
HETATM   21  C   UNL     1      -8.272   5.313  69.277  1.00  0.00    -0.092 C  
BRANCH  21  22
HETATM   22  O   UNL     1      -7.722   4.048  69.624  1.00  0.00    -0.052 OA 
BRANCH  22  23
HETATM   23  P   UNL     1      -6.218   3.732  69.192  1.00  0.00    -0.029 P  
HETATM   24  O   UNL     1      -5.164   3.871  70.240  1.00  0.00    -0.003 OA 
HETATM   25  O   UNL     1      -6.322   2.184  68.768  1.00  0.00    -0.028 OA 
BRANCH  23  26
HETATM   26  O   UNL     1      -5.960   4.445  67.806  1.00  0.00    -0.025 OA 
BRANCH  26  27
HETATM   27  P   UNL     1      -6.124   3.763  66.389  1.00  0.00    -0.029 P  
HETATM   28  O   UNL     1      -7.619   3.176  66.449  1.00  0.00    -0.075 OA 
HETATM   29  O   UNL     1      -5.175   2.674  66.022  1.00  0.00    -0.007 OA 
BRANCH  27  30
HETATM   30  O   UNL     1      -6.245   4.939  65.305  1.00  0.00    -0.032 OA 
BRANCH  30  31
HETATM   31  C   UNL     1      -5.130   5.770  65.002  1.00  0.00    -0.009 C  
BRANCH  31  32
HETATM   32  C   UNL     1      -5.385   7.250  65.268  1.00  0.00    -0.028 C  
HETATM   33  O   UNL     1      -6.244   7.824  64.263  1.00  0.00    -0.051 OA 
HETATM   34  C   UNL     1      -6.683   9.064  64.851  1.00  0.00    -0.069 C  
HETATM   35  H   UNL     1      -5.623   7.813  68.485  1.00  0.00     0.000 HD 
HETATM   36  C   UNL     1      -6.950   8.738  66.329  1.00  0.00    -0.081 C  
HETATM   37  C   UNL     1      -6.102   7.491  66.592  1.00  0.00    -0.044 C  
HETATM   38  H   UNL     1      -6.756   9.594  68.138  1.00  0.00     0.000 HD 
HETATM   39  O   UNL     1      -6.592   9.795  67.224  1.00  0.00    -0.069 OA 
HETATM   40  O   UNL     1      -5.177   7.663  67.660  1.00  0.00    -0.027 OA 
BRANCH  34  41
HETATM   41  N   UNL     1      -7.849   9.573  64.157  1.00  0.00    -0.119 NA 
HETATM   42  C   UNL     1      -8.299   9.242  62.910  1.00  0.00    -0.193 A  
HETATM   43  N   UNL     1      -9.421   9.867  62.610  1.00  0.00    -0.221 NA 
HETATM   44  C   UNL     1      -9.690  10.659  63.708  1.00  0.00    -0.327 A  
HETATM   45  C   UNL     1     -10.737  11.545  64.011  1.00  0.00    -0.384 A  
HETATM   46  N   UNL     1     -11.820  11.758  63.171  1.00  0.00    -0.864 NA 
HETATM   47  N   UNL     1     -10.686  12.228  65.179  1.00  0.00    -0.283 NA 
HETATM   48  H1  UNL     1     -12.581  12.401  63.391  1.00  0.00     0.000 HD 
HETATM   49  C   UNL     1      -9.656  11.990  66.019  1.00  0.00    -0.234 A  
HETATM   50  H2  UNL     1     -12.239  10.847  62.979  1.00  0.00     0.000 HD 
HETATM   51  N   UNL     1      -8.624  11.128  65.864  1.00  0.00    -0.164 NA 
HETATM   52  C   UNL     1      -8.706  10.510  64.671  1.00  0.00    -0.183 A  
ENDBRANCH  34  41
ENDBRANCH  31  32
ENDBRANCH  30  31
ENDBRANCH  27  30
ENDBRANCH  26  27
ENDBRANCH  23  26
ENDBRANCH  22  23
ENDBRANCH  21  22
ENDBRANCH  14  21
ENDBRANCH   8  12
ENDBRANCH   4   6
TORSDOF 11
ENDMDL
MODEL      264
REMARK 921   NORMALIZED FREE ENERGY PREDICTED BY IDOCK:   -2.82 KCAL/MOL
REMARK 922        TOTAL FREE ENERGY PREDICTED BY IDOCK:   -6.84 KCAL/MOL
REMARK 923 INTER-LIGAND FREE ENERGY PREDICTED BY IDOCK:   -5.35 KCAL/MOL
REMARK 924 INTRA-LIGAND FREE ENERGY PREDICTED BY IDOCK:   -1.49 KCAL/MOL
REMARK 927      BINDING AFFINITY PREDICTED BY RF-SCORE:    0.00 PKD
ROOT
HETATM    1  N   UNL     1      -9.827  10.718  69.545  1.00  0.00    -0.433 N  
HETATM    2  H1  UNL     1     -10.663  10.846  68.976  1.00  0.00     0.000 HD 
HETATM    3  H2  UNL     1      -9.538  11.454  70.190  1.00  0.00     0.000 HD 
HETATM    4  C   UNL     1      -9.096   9.585  69.455  1.00  0.00    -0.185 C  
HETATM    5  O   UNL     1      -8.087   9.430  70.142  1.00  0.00    -0.119 OA 
ENDROOT
BRANCH   4   6
HETATM    6  C   UNL     1      -9.566   8.566  68.489  1.00  0.00    -0.158 C  
HETATM    7  C   UNL     1      -8.787   8.360  67.411  1.00  0.00    -0.134 C  
HETATM    8  N   UNL     1      -9.051   7.396  66.441  1.00  0.00    -0.158 NA 
HETATM    9  C   UNL     1     -10.802   7.740  68.720  1.00  0.00    -0.006 C  
HETATM   10  C   UNL     1     -10.272   6.716  66.525  1.00  0.00    -0.059 C  
HETATM   11  C   UNL     1     -11.122   6.837  67.555  1.00  0.00    -0.340 C  
BRANCH   8  12
HETATM   12  C   UNL     1      -8.068   6.938  65.435  1.00  0.00    -0.133 C  
HETATM   13  O   UNL     1      -8.339   5.554  65.118  1.00  0.00    -0.135 OA 
HETATM   14  C   UNL     1      -7.573   4.738  66.033  1.00  0.00    -0.090 C  
HETATM   15  H   UNL     1      -4.816   6.929  64.860  1.00  0.00     0.000 HD 
HETATM   16  C   UNL     1      -6.398   5.582  66.518  1.00  0.00    -0.039 C  
HETATM   17  H   UNL     1      -4.423   5.490  66.470  1.00  0.00     0.000 HD 
HETATM   18  C   UNL     1      -6.577   6.922  65.810  1.00  0.00    -0.051 C  
HETATM   19  O   UNL     1      -5.155   4.964  66.167  1.00  0.00    -0.008 OA 
HETATM   20  O   UNL     1      -5.738   6.939  64.628  1.00  0.00    -0.031 OA 
BRANCH  14  21
HETATM   21  C   UNL     1      -8.461   4.258  67.192  1.00  0.00    -0.100 C  
BRANCH  21  22
HETATM   22  O   UNL     1      -7.703   4.084  68.382  1.00  0.00    -0.065 OA 
BRANCH  22  23
HETATM   23  P   UNL     1      -7.158   2.623  68.727  1.00  0.00    -0.044 P  
HETATM   24  O   UNL     1      -7.346   1.565  67.693  1.00  0.00    -0.051 OA 
HETATM   25  O   UNL     1      -5.583   2.899  68.904  1.00  0.00    -0.020 OA 
BRANCH  23  26
HETATM   26  O   UNL     1      -7.609   2.282  70.203  1.00  0.00    -0.043 OA 
BRANCH  26  27
HETATM   27  P   UNL     1      -7.102   3.028  71.502  1.00  0.00    -0.033 P  
HETATM   28  O   UNL     1      -7.497   4.558  71.210  1.00  0.00    -0.063 OA 
HETATM   29  O   UNL     1      -5.653   2.942  71.838  1.00  0.00    -0.007 OA 
BRANCH  27  30
HETATM   30  O   UNL     1      -8.092   2.626  72.699  1.00  0.00    -0.054 OA 
BRANCH  30  31
HETATM   31  C   UNL     1      -8.175   3.423  73.876  1.00  0.00    -0.074 C  
BRANCH  31  32
HETATM   32  C   UNL     1      -9.545   4.063  74.080  1.00  0.00    -0.108 C  
HETATM   33  O   UNL     1      -9.511   5.476  73.802  1.00  0.00    -0.136 OA 
HETATM   34  C   UNL     1     -10.899   5.835  73.667  1.00  0.00    -0.193 C  
HETATM   35  H   UNL     1     -11.920   2.017  73.131  1.00  0.00     0.000 HD 
HETATM   36  C   UNL     1     -11.542   4.675  72.888  1.00  0.00    -0.024 C  
HETATM   37  C   UNL     1     -10.602   3.494  73.141  1.00  0.00    -0.179 C  
HETATM   38  H   UNL     1     -13.271   3.650  72.833  1.00  0.00     0.000 HD 
HETATM   39  O   UNL     1     -12.873   4.366  73.313  1.00  0.00     0.350 OA 
HETATM   40  O   UNL     1     -11.261   2.372  73.716  1.00  0.00    -0.200 OA 
BRANCH  34  41
HETATM   41  N   UNL     1     -11.033   7.115  73.001  1.00  0.00    -0.315 NA 
HETATM   42  C   UNL     1     -10.061   8.044  72.758  1.00  0.00    -0.308 A  
HETATM   43  N   UNL     1     -10.528   9.079  72.087  1.00  0.00    -0.260 NA 
HETATM   44  C   UNL     1     -11.872   8.815  71.917  1.00  0.00    -0.367 A  
HETATM   45  C   UNL     1     -12.908   9.517  71.279  1.00  0.00    -0.333 A  
HETATM   46  N   UNL     1     -12.713  10.711  70.600  1.00  0.00    -0.364 NA 
HETATM   47  N   UNL     1     -14.161   9.005  71.330  1.00  0.00    -0.212 NA 
HETATM   48  H1  UNL     1     -13.466  11.220  70.137  1.00  0.00     0.000 HD 
HETATM   49  C   UNL     1     -14.347   7.820  71.951  1.00  0.00    -0.422 A  
HETATM   50  H2  UNL     1     -11.984  10.550  69.905  1.00  0.00     0.000 HD 
HETATM   51  N   UNL     1     -13.426   7.030  72.551  1.00  0.00     0.458 NA 
HETATM   52  C   UNL     1     -12.212   7.608  72.505  1.00  0.00    -0.099 A  
ENDBRANCH  34  41
ENDBRANCH  31  32
ENDBRANCH  30  31
ENDBRANCH  27  30
ENDBRANCH  26  27
ENDBRANCH  23  26
ENDBRANCH  22  23
ENDBRANCH  21  22
ENDBRANCH  14  21
ENDBRANCH   8  12
ENDBRANCH   4   6
TORSDOF 11
ENDMDL
MODEL      265
REMARK 921   NORMALIZED FREE ENERGY PREDICTED BY IDOCK:   -2.81 KCAL/MOL
REMARK 922        TOTAL FREE ENERGY PREDICTED BY IDOCK:   -6.82 KCAL/MOL
REMARK 923 INTER-LIGAND FREE ENERGY PREDICTED BY IDOCK:   -5.30 KCAL/MOL
REMARK 924 INTRA-LIGAND FREE ENERGY PREDICTED BY IDOCK:   -1.52 KCAL/MOL
REMARK 927      BINDING AFFINITY PREDICTED BY RF-SCORE:    0.00 PKD
ROOT
HETATM    1  N   UNL     1     -12.021   5.530  72.765  1.00  0.00    -0.486 N  
HETATM    2  H1  UNL     1     -11.041   5.447  73.036  1.00  0.00     0.000 HD 
HETATM    3  H2  UNL     1     -12.684   4.807  73.044  1.00  0.00     0.000 HD 
HETATM    4  C   UNL     1     -12.450   6.587  72.041  1.00  0.00    -0.213 C  
HETATM    5  O   UNL     1     -13.632   6.687  71.713  1.00  0.00    -0.198 OA 
ENDROOT
BRANCH   4   6
HETATM    6  C   UNL     1     -11.430   7.590  71.659  1.00  0.00    -0.292 C  
HETATM    7  C   UNL     1     -11.602   8.196  70.470  1.00  0.00    -0.127 C  
HETATM    8  N   UNL     1     -10.771   9.205  69.990  1.00  0.00    -0.226 NA 
HETATM    9  C   UNL     1     -10.299   7.982  72.570  1.00  0.00    -0.374 C  
HETATM   10  C   UNL     1      -9.615   9.490  70.726  1.00  0.00    -0.192 C  
HETATM   11  C   UNL     1      -9.343   8.953  71.924  1.00  0.00    -0.275 C  
BRANCH   8  12
HETATM   12  C   UNL     1     -11.110  10.092  68.856  1.00  0.00    -0.207 C  
HETATM   13  O   UNL     1     -10.855   9.385  67.621  1.00  0.00    -0.267 OA 
HETATM   14  C   UNL     1      -9.487   9.650  67.239  1.00  0.00    -0.143 C  
HETATM   15  H   UNL     1     -10.570  13.162  67.763  1.00  0.00     0.000 HD 
HETATM   16  C   UNL     1      -9.079  10.964  67.898  1.00  0.00    -0.149 C  
HETATM   17  H   UNL     1      -8.460  12.751  67.318  1.00  0.00     0.000 HD 
HETATM   18  C   UNL     1     -10.319  11.398  68.675  1.00  0.00    -0.203 C  
HETATM   19  O   UNL     1      -8.714  11.933  66.907  1.00  0.00    -0.180 OA 
HETATM   20  O   UNL     1     -11.059  12.354  67.875  1.00  0.00    -0.214 OA 
BRANCH  14  21
HETATM   21  C   UNL     1      -8.579   8.483  67.659  1.00  0.00    -0.133 C  
BRANCH  21  22
HETATM   22  O   UNL     1      -7.702   8.109  66.604  1.00  0.00    -0.091 OA 
BRANCH  22  23
HETATM   23  P   UNL     1      -6.206   8.667  66.628  1.00  0.00    -0.060 P  
HETATM   24  O   UNL     1      -6.018  10.096  67.013  1.00  0.00    -0.050 OA 
HETATM   25  O   UNL     1      -5.532   7.736  67.752  1.00  0.00    -0.030 OA 
BRANCH  23  26
HETATM   26  O   UNL     1      -5.492   8.173  65.307  1.00  0.00    -0.035 OA 
BRANCH  26  27
HETATM   27  P   UNL     1      -6.222   7.501  64.077  1.00  0.00    -0.049 P  
HETATM   28  O   UNL     1      -5.234   7.831  62.854  1.00  0.00    -0.047 OA 
HETATM   29  O   UNL     1      -7.600   7.963  63.743  1.00  0.00    -0.113 OA 
BRANCH  27  30
HETATM   30  O   UNL     1      -6.070   5.913  64.241  1.00  0.00    -0.024 OA 
BRANCH  30  31
HETATM   31  C   UNL     1      -5.126   5.360  65.151  1.00  0.00    -0.009 C  
BRANCH  31  32
HETATM   32  C   UNL     1      -5.738   4.367  66.134  1.00  0.00    -0.022 C  
HETATM   33  O   UNL     1      -5.398   4.697  67.495  1.00  0.00    -0.011 OA 
HETATM   34  C   UNL     1      -6.333   3.933  68.280  1.00  0.00    -0.037 C  
HETATM   35  H   UNL     1      -8.706   3.428  65.115  1.00  0.00     0.000 HD 
HETATM   36  C   UNL     1      -7.670   4.035  67.529  1.00  0.00    -0.075 C  
HETATM   37  C   UNL     1      -7.262   4.367  66.091  1.00  0.00    -0.076 C  
HETATM   38  H   UNL     1      -9.274   2.898  67.109  1.00  0.00     0.000 HD 
HETATM   39  O   UNL     1      -8.447   2.835  67.574  1.00  0.00    -0.081 OA 
HETATM   40  O   UNL     1      -7.756   3.428  65.142  1.00  0.00    -0.079 OA 
BRANCH  34  41
HETATM   41  N   UNL     1      -6.396   4.442  69.636  1.00  0.00    -0.027 NA 
HETATM   42  C   UNL     1      -5.733   5.511  70.166  1.00  0.00    -0.020 A  
HETATM   43  N   UNL     1      -6.063   5.718  71.426  1.00  0.00    -0.029 NA 
HETATM   44  C   UNL     1      -6.962   4.715  71.727  1.00  0.00    -0.051 A  
HETATM   45  C   UNL     1      -7.681   4.397  72.891  1.00  0.00    -0.086 A  
HETATM   46  N   UNL     1      -7.628   5.158  74.050  1.00  0.00    -0.093 NA 
HETATM   47  N   UNL     1      -8.464   3.292  72.884  1.00  0.00    -0.080 NA 
HETATM   48  H1  UNL     1      -8.151   4.926  74.895  1.00  0.00     0.000 HD 
HETATM   49  C   UNL     1      -8.552   2.574  71.743  1.00  0.00    -0.064 A  
HETATM   50  H2  UNL     1      -7.871   6.116  73.796  1.00  0.00     0.000 HD 
HETATM   51  N   UNL     1      -7.955   2.808  70.552  1.00  0.00    -0.042 NA 
HETATM   52  C   UNL     1      -7.161   3.892  70.631  1.00  0.00    -0.034 A  
ENDBRANCH  34  41
ENDBRANCH  31  32
ENDBRANCH  30  31
ENDBRANCH  27  30
ENDBRANCH  26  27
ENDBRANCH  23  26
ENDBRANCH  22  23
ENDBRANCH  21  22
ENDBRANCH  14  21
ENDBRANCH   8  12
ENDBRANCH   4   6
TORSDOF 11
ENDMDL
MODEL      266
REMARK 921   NORMALIZED FREE ENERGY PREDICTED BY IDOCK:   -2.79 KCAL/MOL
REMARK 922        TOTAL FREE ENERGY PREDICTED BY IDOCK:   -6.79 KCAL/MOL
REMARK 923 INTER-LIGAND FREE ENERGY PREDICTED BY IDOCK:   -6.17 KCAL/MOL
REMARK 924 INTRA-LIGAND FREE ENERGY PREDICTED BY IDOCK:   -0.62 KCAL/MOL
REMARK 927      BINDING AFFINITY PREDICTED BY RF-SCORE:    0.00 PKD
ROOT
HETATM    1  N   UNL     1      -6.258  16.974  68.705  1.00  0.00    -0.149 N  
HETATM    2  H1  UNL     1      -7.043  16.337  68.845  1.00  0.00     0.000 HD 
HETATM    3  H2  UNL     1      -5.310  16.601  68.652  1.00  0.00     0.000 HD 
HETATM    4  C   UNL     1      -6.460  18.305  68.589  1.00  0.00    -0.225 C  
HETATM    5  O   UNL     1      -5.512  19.073  68.421  1.00  0.00    -0.191 OA 
ENDROOT
BRANCH   4   6
HETATM    6  C   UNL     1      -7.859  18.777  68.690  1.00  0.00    -0.361 C  
HETATM    7  C   UNL     1      -8.675  18.454  67.669  1.00  0.00    -0.260 C  
HETATM    8  N   UNL     1     -10.032  18.766  67.636  1.00  0.00    -0.329 NA 
HETATM    9  C   UNL     1      -8.382  19.511  69.895  1.00  0.00     0.770 C  
HETATM   10  C   UNL     1     -10.528  19.587  68.655  1.00  0.00    -0.131 C  
HETATM   11  C   UNL     1      -9.810  19.965  69.723  1.00  0.00     0.169 C  
BRANCH   8  12
HETATM   12  C   UNL     1     -11.001  18.161  66.697  1.00  0.00     0.192 C  
HETATM   13  O   UNL     1     -11.637  17.037  67.346  1.00  0.00     0.398 OA 
HETATM   14  C   UNL     1     -10.843  15.862  67.064  1.00  0.00    -0.252 C  
HETATM   15  H   UNL     1     -11.211  17.089  63.580  1.00  0.00     0.000 HD 
HETATM   16  C   UNL     1     -10.063  16.140  65.783  1.00  0.00    -0.363 C  
HETATM   17  H   UNL     1      -9.918  15.359  63.971  1.00  0.00     0.000 HD 
HETATM   18  C   UNL     1     -10.480  17.553  65.385  1.00  0.00     0.052 C  
HETATM   19  O   UNL     1     -10.404  15.186  64.769  1.00  0.00    -0.331 OA 
HETATM   20  O   UNL     1     -11.532  17.465  64.391  1.00  0.00    -0.790 OA 
BRANCH  14  21
HETATM   21  C   UNL     1      -9.918  15.546  68.250  1.00  0.00    -0.213 C  
BRANCH  21  22
HETATM   22  O   UNL     1      -8.739  14.878  67.818  1.00  0.00    -0.158 OA 
BRANCH  22  23
HETATM   23  P   UNL     1      -8.662  13.292  67.986  1.00  0.00    -0.194 P  
HETATM   24  O   UNL     1      -7.328  12.706  68.309  1.00  0.00    -0.099 OA 
HETATM   25  O   UNL     1      -9.648  13.051  69.233  1.00  0.00     0.452 OA 
BRANCH  23  26
HETATM   26  O   UNL     1      -9.466  12.646  66.789  1.00  0.00    -0.224 OA 
BRANCH  26  27
HETATM   27  P   UNL     1     -10.977  12.183  66.855  1.00  0.00    -0.303 P  
HETATM   28  O   UNL     1     -11.534  12.582  65.401  1.00  0.00    -0.316 OA 
HETATM   29  O   UNL     1     -11.848  12.784  67.905  1.00  0.00    -0.351 OA 
BRANCH  27  30
HETATM   30  O   UNL     1     -10.987  10.580  66.814  1.00  0.00    -0.193 OA 
BRANCH  30  31
HETATM   31  C   UNL     1     -10.145   9.822  67.677  1.00  0.00    -0.190 C  
BRANCH  31  32
HETATM   32  C   UNL     1     -10.892   8.756  68.472  1.00  0.00     0.034 C  
HETATM   33  O   UNL     1     -10.210   7.488  68.419  1.00  0.00    -0.176 OA 
HETATM   34  C   UNL     1     -10.805   6.730  69.490  1.00  0.00    -0.273 C  
HETATM   35  H   UNL     1     -12.232  10.058  71.162  1.00  0.00     0.000 HD 
HETATM   36  C   UNL     1     -10.975   7.730  70.646  1.00  0.00    -0.249 C  
HETATM   37  C   UNL     1     -10.994   9.095  69.955  1.00  0.00    -0.204 C  
HETATM   38  H   UNL     1     -12.275   8.146  72.123  1.00  0.00     0.000 HD 
HETATM   39  O   UNL     1     -12.169   7.529  71.408  1.00  0.00    -0.310 OA 
HETATM   40  O   UNL     1     -12.169   9.846  70.238  1.00  0.00    -0.176 OA 
BRANCH  34  41
HETATM   41  N   UNL     1      -9.976   5.593  69.833  1.00  0.00    -0.187 NA 
HETATM   42  C   UNL     1      -9.428   5.285  71.046  1.00  0.00    -0.161 A  
HETATM   43  N   UNL     1      -8.764   4.146  71.011  1.00  0.00    -0.086 NA 
HETATM   44  C   UNL     1      -8.868   3.716  69.704  1.00  0.00    -0.089 A  
HETATM   45  C   UNL     1      -8.392   2.576  69.035  1.00  0.00    -0.056 A  
HETATM   46  N   UNL     1      -7.695   1.557  69.668  1.00  0.00    -0.042 NA 
HETATM   47  N   UNL     1      -8.623   2.465  67.705  1.00  0.00    -0.090 NA 
HETATM   48  H1  UNL     1      -7.350   0.729  69.182  1.00  0.00     0.000 HD 
HETATM   49  C   UNL     1      -9.340   3.432  67.094  1.00  0.00    -0.193 A  
HETATM   50  H2  UNL     1      -8.270   1.234  70.447  1.00  0.00     0.000 HD 
HETATM   51  N   UNL     1      -9.892   4.542  67.637  1.00  0.00    -0.154 NA 
HETATM   52  C   UNL     1      -9.596   4.619  68.947  1.00  0.00    -0.164 A  
ENDBRANCH  34  41
ENDBRANCH  31  32
ENDBRANCH  30  31
ENDBRANCH  27  30
ENDBRANCH  26  27
ENDBRANCH  23  26
ENDBRANCH  22  23
ENDBRANCH  21  22
ENDBRANCH  14  21
ENDBRANCH   8  12
ENDBRANCH   4   6
TORSDOF 11
ENDMDL
MODEL      267
REMARK 921   NORMALIZED FREE ENERGY PREDICTED BY IDOCK:   -2.75 KCAL/MOL
REMARK 922        TOTAL FREE ENERGY PREDICTED BY IDOCK:   -6.73 KCAL/MOL
REMARK 923 INTER-LIGAND FREE ENERGY PREDICTED BY IDOCK:   -5.00 KCAL/MOL
REMARK 924 INTRA-LIGAND FREE ENERGY PREDICTED BY IDOCK:   -1.73 KCAL/MOL
REMARK 927      BINDING AFFINITY PREDICTED BY RF-SCORE:    0.00 PKD
ROOT
HETATM    1  N   UNL     1     -11.058   4.067  73.269  1.00  0.00    -0.219 N  
HETATM    2  H1  UNL     1     -10.040   4.047  73.332  1.00  0.00     0.000 HD 
HETATM    3  H2  UNL     1     -11.590   3.210  73.423  1.00  0.00     0.000 HD 
HETATM    4  C   UNL     1     -11.710   5.215  72.983  1.00  0.00    -0.150 C  
HETATM    5  O   UNL     1     -12.939   5.239  72.907  1.00  0.00     0.277 OA 
ENDROOT
BRANCH   4   6
HETATM    6  C   UNL     1     -10.874   6.417  72.758  1.00  0.00    -0.278 C  
HETATM    7  C   UNL     1     -11.030   7.041  71.575  1.00  0.00    -0.234 C  
HETATM    8  N   UNL     1     -10.369   8.216  71.230  1.00  0.00    -0.195 NA 
HETATM    9  C   UNL     1      -9.952   6.970  73.809  1.00  0.00    -0.367 C  
HETATM   10  C   UNL     1      -9.382   8.681  72.107  1.00  0.00    -0.273 C  
HETATM   11  C   UNL     1      -9.143   8.142  73.312  1.00  0.00    -0.327 C  
BRANCH   8  12
HETATM   12  C   UNL     1     -10.750   9.081  70.091  1.00  0.00    -0.233 C  
HETATM   13  O   UNL     1     -10.462   8.380  68.860  1.00  0.00    -0.218 OA 
HETATM   14  C   UNL     1      -9.108   8.708  68.476  1.00  0.00    -0.138 C  
HETATM   15  H   UNL     1     -10.357  12.167  68.983  1.00  0.00     0.000 HD 
HETATM   16  C   UNL     1      -8.763  10.044  69.129  1.00  0.00    -0.167 C  
HETATM   17  H   UNL     1      -8.230  11.855  68.540  1.00  0.00     0.000 HD 
HETATM   18  C   UNL     1     -10.022  10.422  69.904  1.00  0.00    -0.047 C  
HETATM   19  O   UNL     1      -8.445  11.024  68.133  1.00  0.00    -0.124 OA 
HETATM   20  O   UNL     1     -10.807  11.338  69.100  1.00  0.00    -0.212 OA 
BRANCH  14  21
HETATM   21  C   UNL     1      -8.145   7.588  68.902  1.00  0.00    -0.127 C  
BRANCH  21  22
HETATM   22  O   UNL     1      -7.598   6.923  67.770  1.00  0.00    -0.102 OA 
BRANCH  22  23
HETATM   23  P   UNL     1      -6.273   7.520  67.108  1.00  0.00    -0.055 P  
HETATM   24  O   UNL     1      -5.632   8.680  67.794  1.00  0.00    -0.035 OA 
HETATM   25  O   UNL     1      -5.277   6.260  67.186  1.00  0.00    -0.005 OA 
BRANCH  23  26
HETATM   26  O   UNL     1      -6.533   7.650  65.555  1.00  0.00    -0.041 OA 
BRANCH  26  27
HETATM   27  P   UNL     1      -7.751   7.003  64.781  1.00  0.00    -0.120 P  
HETATM   28  O   UNL     1      -8.389   8.261  64.011  1.00  0.00    -0.132 OA 
HETATM   29  O   UNL     1      -8.807   6.321  65.582  1.00  0.00    -0.147 OA 
BRANCH  27  30
HETATM   30  O   UNL     1      -7.143   6.123  63.585  1.00  0.00    -0.044 OA 
BRANCH  30  31
HETATM   31  C   UNL     1      -6.072   5.215  63.819  1.00  0.00    -0.022 C  
BRANCH  31  32
HETATM   32  C   UNL     1      -6.530   3.851  64.324  1.00  0.00    -0.041 C  
HETATM   33  O   UNL     1      -6.220   3.676  65.720  1.00  0.00    -0.030 OA 
HETATM   34  C   UNL     1      -7.032   2.554  66.116  1.00  0.00    -0.044 C  
HETATM   35  H   UNL     1      -9.354   2.992  62.904  1.00  0.00     0.000 HD 
HETATM   36  C   UNL     1      -8.380   2.759  65.407  1.00  0.00    -0.095 C  
HETATM   37  C   UNL     1      -8.040   3.667  64.222  1.00  0.00    -0.086 C  
HETATM   38  H   UNL     1      -9.819   1.670  64.520  1.00  0.00     0.000 HD 
HETATM   39  O   UNL     1      -8.986   1.543  64.959  1.00  0.00    -0.115 OA 
HETATM   40  O   UNL     1      -8.413   3.107  62.967  1.00  0.00    -0.084 OA 
BRANCH  34  41
HETATM   41  N   UNL     1      -7.147   2.491  67.559  1.00  0.00    -0.048 NA 
HETATM   42  C   UNL     1      -6.348   1.818  68.440  1.00  0.00    -0.025 A  
HETATM   43  N   UNL     1      -6.717   2.018  69.689  1.00  0.00    -0.033 NA 
HETATM   44  C   UNL     1      -7.826   2.836  69.606  1.00  0.00    -0.042 A  
HETATM   45  C   UNL     1      -8.662   3.411  70.577  1.00  0.00    -0.075 A  
HETATM   46  N   UNL     1      -8.457   3.264  71.941  1.00  0.00    -0.072 NA 
HETATM   47  N   UNL     1      -9.723   4.144  70.162  1.00  0.00    -0.206 NA 
HETATM   48  H1  UNL     1      -9.065   3.682  72.646  1.00  0.00     0.000 HD 
HETATM   49  C   UNL     1      -9.900   4.326  68.836  1.00  0.00    -0.061 A  
HETATM   50  H2  UNL     1      -7.505   3.573  72.140  1.00  0.00     0.000 HD 
HETATM   51  N   UNL     1      -9.138   3.872  67.814  1.00  0.00    -0.137 NA 
HETATM   52  C   UNL     1      -8.126   3.119  68.283  1.00  0.00    -0.069 A  
ENDBRANCH  34  41
ENDBRANCH  31  32
ENDBRANCH  30  31
ENDBRANCH  27  30
ENDBRANCH  26  27
ENDBRANCH  23  26
ENDBRANCH  22  23
ENDBRANCH  21  22
ENDBRANCH  14  21
ENDBRANCH   8  12
ENDBRANCH   4   6
TORSDOF 11
ENDMDL
MODEL      268
REMARK 921   NORMALIZED FREE ENERGY PREDICTED BY IDOCK:   -2.74 KCAL/MOL
REMARK 922        TOTAL FREE ENERGY PREDICTED BY IDOCK:   -6.71 KCAL/MOL
REMARK 923 INTER-LIGAND FREE ENERGY PREDICTED BY IDOCK:   -7.19 KCAL/MOL
REMARK 924 INTRA-LIGAND FREE ENERGY PREDICTED BY IDOCK:    0.48 KCAL/MOL
REMARK 927      BINDING AFFINITY PREDICTED BY RF-SCORE:    0.00 PKD
ROOT
HETATM    1  N   UNL     1      -9.860   6.249  65.650  1.00  0.00    -0.162 N  
HETATM    2  H1  UNL     1     -10.017   6.752  64.776  1.00  0.00     0.000 HD 
HETATM    3  H2  UNL     1     -10.639   5.779  66.109  1.00  0.00     0.000 HD 
HETATM    4  C   UNL     1      -8.629   6.200  66.206  1.00  0.00    -0.136 C  
HETATM    5  O   UNL     1      -8.439   5.593  67.260  1.00  0.00    -0.108 OA 
ENDROOT
BRANCH   4   6
HETATM    6  C   UNL     1      -7.547   6.916  65.493  1.00  0.00    -0.091 C  
HETATM    7  C   UNL     1      -7.192   8.114  65.993  1.00  0.00    -0.069 C  
HETATM    8  N   UNL     1      -6.153   8.888  65.481  1.00  0.00    -0.055 NA 
HETATM    9  C   UNL     1      -6.819   6.322  64.319  1.00  0.00    -0.042 C  
HETATM   10  C   UNL     1      -5.554   8.454  64.293  1.00  0.00    -0.059 C  
HETATM   11  C   UNL     1      -5.824   7.278  63.708  1.00  0.00    -0.041 C  
BRANCH   8  12
HETATM   12  C   UNL     1      -5.544  10.035  66.189  1.00  0.00    -0.059 C  
HETATM   13  O   UNL     1      -5.199   9.623  67.530  1.00  0.00    -0.036 OA 
HETATM   14  C   UNL     1      -6.341   9.886  68.376  1.00  0.00    -0.050 C  
HETATM   15  H   UNL     1      -6.078  13.237  66.799  1.00  0.00     0.000 HD 
HETATM   16  C   UNL     1      -7.161  10.982  67.701  1.00  0.00    -0.093 C  
HETATM   17  H   UNL     1      -7.771  12.814  68.130  1.00  0.00     0.000 HD 
HETATM   18  C   UNL     1      -6.391  11.296  66.422  1.00  0.00    -0.091 C  
HETATM   19  O   UNL     1      -7.260  12.132  68.550  1.00  0.00    -0.090 OA 
HETATM   20  O   UNL     1      -5.554  12.457  66.655  1.00  0.00    -0.263 OA 
BRANCH  14  21
HETATM   21  C   UNL     1      -7.155   8.601  68.591  1.00  0.00    -0.068 C  
BRANCH  21  22
HETATM   22  O   UNL     1      -8.545   8.885  68.696  1.00  0.00    -0.130 OA 
BRANCH  22  23
HETATM   23  P   UNL     1      -9.207   8.901  70.150  1.00  0.00    -0.211 P  
HETATM   24  O   UNL     1      -9.094   7.656  70.964  1.00  0.00    -0.146 OA 
HETATM   25  O   UNL     1      -8.370  10.069  70.873  1.00  0.00     0.064 OA 
BRANCH  23  26
HETATM   26  O   UNL     1     -10.642   9.549  70.013  1.00  0.00    -0.211 OA 
BRANCH  26  27
HETATM   27  P   UNL     1     -11.050  10.631  68.934  1.00  0.00    -0.292 P  
HETATM   28  O   UNL     1     -12.639  10.753  69.138  1.00  0.00    -0.312 OA 
HETATM   29  O   UNL     1     -10.753  10.339  67.502  1.00  0.00    -0.255 OA 
BRANCH  27  30
HETATM   30  O   UNL     1     -10.513  12.050  69.453  1.00  0.00     0.033 OA 
BRANCH  30  31
HETATM   31  C   UNL     1     -11.402  13.147  69.631  1.00  0.00    -0.112 C  
BRANCH  31  32
HETATM   32  C   UNL     1     -11.360  14.155  68.487  1.00  0.00    -0.283 C  
HETATM   33  O   UNL     1     -11.065  15.481  68.967  1.00  0.00    -0.235 OA 
HETATM   34  C   UNL     1     -10.690  16.203  67.779  1.00  0.00    -0.325 C  
HETATM   35  H   UNL     1     -10.060  12.795  65.807  1.00  0.00     0.000 HD 
HETATM   36  C   UNL     1      -9.836  15.220  66.961  1.00  0.00    -0.229 C  
HETATM   37  C   UNL     1     -10.265  13.843  67.473  1.00  0.00    -0.245 C  
HETATM   38  H   UNL     1      -9.507  14.716  65.043  1.00  0.00     0.000 HD 
HETATM   39  O   UNL     1     -10.035  15.324  65.548  1.00  0.00    -0.337 OA 
HETATM   40  O   UNL     1     -10.742  12.989  66.439  1.00  0.00    -0.278 OA 
BRANCH  34  41
HETATM   41  N   UNL     1      -9.988  17.423  68.122  1.00  0.00    -0.291 NA 
HETATM   42  C   UNL     1     -10.416  18.712  67.970  1.00  0.00    -0.349 A  
HETATM   43  N   UNL     1      -9.536  19.579  68.433  1.00  0.00    -0.370 NA 
HETATM   44  C   UNL     1      -8.480  18.810  68.879  1.00  0.00    -0.198 A  
HETATM   45  C   UNL     1      -7.254  19.132  69.484  1.00  0.00    -0.091 A  
HETATM   46  N   UNL     1      -6.884  20.429  69.809  1.00  0.00    -0.025 NA 
HETATM   47  N   UNL     1      -6.390  18.128  69.764  1.00  0.00    -0.181 NA 
HETATM   48  H1  UNL     1      -5.994  20.663  70.249  1.00  0.00     0.000 HD 
HETATM   49  C   UNL     1      -6.765  16.860  69.490  1.00  0.00    -0.169 A  
HETATM   50  H2  UNL     1      -7.623  20.818  70.395  1.00  0.00     0.000 HD 
HETATM   51  N   UNL     1      -7.931  16.423  68.961  1.00  0.00    -0.233 NA 
HETATM   52  C   UNL     1      -8.732  17.464  68.668  1.00  0.00    -0.261 A  
ENDBRANCH  34  41
ENDBRANCH  31  32
ENDBRANCH  30  31
ENDBRANCH  27  30
ENDBRANCH  26  27
ENDBRANCH  23  26
ENDBRANCH  22  23
ENDBRANCH  21  22
ENDBRANCH  14  21
ENDBRANCH   8  12
ENDBRANCH   4   6
TORSDOF 11
ENDMDL
MODEL      269
REMARK 921   NORMALIZED FREE ENERGY PREDICTED BY IDOCK:   -2.73 KCAL/MOL
REMARK 922        TOTAL FREE ENERGY PREDICTED BY IDOCK:   -6.69 KCAL/MOL
REMARK 923 INTER-LIGAND FREE ENERGY PREDICTED BY IDOCK:   -7.43 KCAL/MOL
REMARK 924 INTRA-LIGAND FREE ENERGY PREDICTED BY IDOCK:    0.74 KCAL/MOL
REMARK 927      BINDING AFFINITY PREDICTED BY RF-SCORE:    0.00 PKD
ROOT
HETATM    1  N   UNL     1     -14.411  15.359  70.588  1.00  0.00    -0.585 N  
HETATM    2  H1  UNL     1     -14.317  16.185  69.996  1.00  0.00     0.000 HD 
HETATM    3  H2  UNL     1     -15.330  15.093  70.942  1.00  0.00     0.000 HD 
HETATM    4  C   UNL     1     -13.331  14.611  70.906  1.00  0.00    -0.298 C  
HETATM    5  O   UNL     1     -13.444  13.614  71.620  1.00  0.00    -0.353 OA 
ENDROOT
BRANCH   4   6
HETATM    6  C   UNL     1     -12.027  15.063  70.369  1.00  0.00    -0.372 C  
HETATM    7  C   UNL     1     -12.017  15.466  69.085  1.00  0.00    -0.299 C  
HETATM    8  N   UNL     1     -10.890  15.977  68.446  1.00  0.00    -0.294 NA 
HETATM    9  C   UNL     1     -10.788  15.148  71.217  1.00  0.00    -0.028 C  
HETATM   10  C   UNL     1      -9.676  15.925  69.141  1.00  0.00    -0.249 C  
HETATM   11  C   UNL     1      -9.569  15.547  70.423  1.00  0.00     0.582 C  
BRANCH   8  12
HETATM   12  C   UNL     1     -10.924  16.709  67.160  1.00  0.00    -0.023 C  
HETATM   13  O   UNL     1     -10.505  15.814  66.105  1.00  0.00    -0.294 OA 
HETATM   14  C   UNL     1      -9.071  15.932  65.975  1.00  0.00    -0.328 C  
HETATM   15  H   UNL     1      -9.906  19.545  65.808  1.00  0.00     0.000 HD 
HETATM   16  C   UNL     1      -8.677  17.300  66.526  1.00  0.00    -0.262 C  
HETATM   17  H   UNL     1      -7.797  18.939  65.854  1.00  0.00     0.000 HD 
HETATM   18  C   UNL     1      -9.997  17.921  66.974  1.00  0.00    -0.324 C  
HETATM   19  O   UNL     1      -8.043  18.087  65.511  1.00  0.00    -0.320 OA 
HETATM   20  O   UNL     1     -10.480  18.796  65.923  1.00  0.00    -0.508 OA 
BRANCH  14  21
HETATM   21  C   UNL     1      -8.371  14.783  66.718  1.00  0.00    -0.079 C  
BRANCH  21  22
HETATM   22  O   UNL     1      -7.483  15.280  67.713  1.00  0.00    -0.131 OA 
BRANCH  22  23
HETATM   23  P   UNL     1      -6.291  14.338  68.204  1.00  0.00    -0.159 P  
HETATM   24  O   UNL     1      -5.388  13.780  67.156  1.00  0.00    -0.200 OA 
HETATM   25  O   UNL     1      -5.446  15.344  69.132  1.00  0.00    -0.095 OA 
BRANCH  23  26
HETATM   26  O   UNL     1      -6.888  13.325  69.260  1.00  0.00    -0.100 OA 
BRANCH  26  27
HETATM   27  P   UNL     1      -7.109  11.779  69.011  1.00  0.00    -0.026 P  
HETATM   28  O   UNL     1      -5.891  11.400  68.035  1.00  0.00    -0.043 OA 
HETATM   29  O   UNL     1      -8.396  11.346  68.396  1.00  0.00    -0.141 OA 
BRANCH  27  30
HETATM   30  O   UNL     1      -6.728  11.018  70.371  1.00  0.00    -0.263 OA 
BRANCH  30  31
HETATM   31  C   UNL     1      -6.561   9.605  70.394  1.00  0.00    -0.096 C  
BRANCH  31  32
HETATM   32  C   UNL     1      -7.767   8.842  69.854  1.00  0.00    -0.081 C  
HETATM   33  O   UNL     1      -7.361   7.722  69.044  1.00  0.00    -0.084 OA 
HETATM   34  C   UNL     1      -8.551   6.918  68.944  1.00  0.00    -0.131 C  
HETATM   35  H   UNL     1     -10.171   8.777  72.078  1.00  0.00     0.000 HD 
HETATM   36  C   UNL     1      -9.189   6.963  70.342  1.00  0.00    -0.156 C  
HETATM   37  C   UNL     1      -8.625   8.243  70.964  1.00  0.00    -0.144 C  
HETATM   38  H   UNL     1     -11.013   7.024  71.185  1.00  0.00     0.000 HD 
HETATM   39  O   UNL     1     -10.619   6.995  70.321  1.00  0.00    -0.214 OA 
HETATM   40  O   UNL     1      -9.637   9.150  71.387  1.00  0.00    -0.286 OA 
BRANCH  34  41
HETATM   41  N   UNL     1      -8.225   5.575  68.507  1.00  0.00    -0.098 NA 
HETATM   42  C   UNL     1      -7.286   4.726  69.021  1.00  0.00    -0.053 A  
HETATM   43  N   UNL     1      -7.289   3.560  68.405  1.00  0.00    -0.051 NA 
HETATM   44  C   UNL     1      -8.258   3.675  67.430  1.00  0.00    -0.090 A  
HETATM   45  C   UNL     1      -8.746   2.784  66.460  1.00  0.00    -0.121 A  
HETATM   46  N   UNL     1      -8.308   1.473  66.343  1.00  0.00    -0.081 NA 
HETATM   47  N   UNL     1      -9.690   3.225  65.595  1.00  0.00    -0.034 NA 
HETATM   48  H1  UNL     1      -8.663   0.826  65.639  1.00  0.00     0.000 HD 
HETATM   49  C   UNL     1     -10.151   4.487  65.735  1.00  0.00    -0.255 A  
HETATM   50  H2  UNL     1      -8.432   1.029  67.253  1.00  0.00     0.000 HD 
HETATM   51  N   UNL     1      -9.801   5.415  66.655  1.00  0.00    -0.158 NA 
HETATM   52  C   UNL     1      -8.834   4.935  67.459  1.00  0.00    -0.103 A  
ENDBRANCH  34  41
ENDBRANCH  31  32
ENDBRANCH  30  31
ENDBRANCH  27  30
ENDBRANCH  26  27
ENDBRANCH  23  26
ENDBRANCH  22  23
ENDBRANCH  21  22
ENDBRANCH  14  21
ENDBRANCH   8  12
ENDBRANCH   4   6
TORSDOF 11
ENDMDL
MODEL      270
REMARK 921   NORMALIZED FREE ENERGY PREDICTED BY IDOCK:   -2.72 KCAL/MOL
REMARK 922        TOTAL FREE ENERGY PREDICTED BY IDOCK:   -6.66 KCAL/MOL
REMARK 923 INTER-LIGAND FREE ENERGY PREDICTED BY IDOCK:   -5.68 KCAL/MOL
REMARK 924 INTRA-LIGAND FREE ENERGY PREDICTED BY IDOCK:   -0.99 KCAL/MOL
REMARK 927      BINDING AFFINITY PREDICTED BY RF-SCORE:    0.00 PKD
ROOT
HETATM    1  N   UNL     1     -11.100  19.405  69.922  1.00  0.00     1.816 N  
HETATM    2  H1  UNL     1     -10.717  19.003  70.778  1.00  0.00     0.000 HD 
HETATM    3  H2  UNL     1     -12.089  19.650  69.878  1.00  0.00     0.000 HD 
HETATM    4  C   UNL     1     -10.311  19.617  68.845  1.00  0.00    -0.188 C  
HETATM    5  O   UNL     1     -10.773  20.102  67.812  1.00  0.00    -0.254 OA 
ENDROOT
BRANCH   4   6
HETATM    6  C   UNL     1      -8.889  19.224  68.974  1.00  0.00    -0.265 C  
HETATM    7  C   UNL     1      -8.518  18.100  68.334  1.00  0.00    -0.299 C  
HETATM    8  N   UNL     1      -7.209  17.626  68.302  1.00  0.00    -0.218 NA 
HETATM    9  C   UNL     1      -7.882  20.064  69.711  1.00  0.00     0.520 C  
HETATM   10  C   UNL     1      -6.268  18.282  69.105  1.00  0.00    -0.244 C  
HETATM   11  C   UNL     1      -6.523  19.412  69.781  1.00  0.00    -0.296 C  
BRANCH   8  12
HETATM   12  C   UNL     1      -6.722  16.591  67.364  1.00  0.00    -0.164 C  
HETATM   13  O   UNL     1      -7.857  16.015  66.679  1.00  0.00    -0.244 OA 
HETATM   14  C   UNL     1      -8.317  14.891  67.462  1.00  0.00    -0.180 C  
HETATM   15  H   UNL     1      -4.728  13.960  67.274  1.00  0.00     0.000 HD 
HETATM   16  C   UNL     1      -7.137  14.413  68.304  1.00  0.00    -0.112 C  
HETATM   17  H   UNL     1      -6.079  12.755  68.516  1.00  0.00     0.000 HD 
HETATM   18  C   UNL     1      -5.999  15.359  67.932  1.00  0.00    -0.149 C  
HETATM   19  O   UNL     1      -6.814  13.053  67.991  1.00  0.00    -0.085 OA 
HETATM   20  O   UNL     1      -5.175  14.722  66.924  1.00  0.00     0.395 OA 
BRANCH  14  21
HETATM   21  C   UNL     1      -9.520  15.299  68.328  1.00  0.00    -0.205 C  
BRANCH  21  22
HETATM   22  O   UNL     1     -10.729  15.257  67.579  1.00  0.00    -0.272 OA 
BRANCH  22  23
HETATM   23  P   UNL     1     -11.362  13.830  67.243  1.00  0.00    -0.357 P  
HETATM   24  O   UNL     1     -11.865  13.020  68.390  1.00  0.00    -0.323 OA 
HETATM   25  O   UNL     1     -12.610  14.242  66.315  1.00  0.00    -0.416 OA 
BRANCH  23  26
HETATM   26  O   UNL     1     -10.400  13.112  66.216  1.00  0.00    -0.276 OA 
BRANCH  26  27
HETATM   27  P   UNL     1     -10.816  11.923  65.260  1.00  0.00    -0.293 P  
HETATM   28  O   UNL     1     -10.824  12.618  63.811  1.00  0.00    -0.406 OA 
HETATM   29  O   UNL     1     -12.129  11.258  65.500  1.00  0.00     0.308 OA 
BRANCH  27  30
HETATM   30  O   UNL     1      -9.566  10.922  65.170  1.00  0.00    -0.214 OA 
BRANCH  30  31
HETATM   31  C   UNL     1      -8.613  10.848  66.225  1.00  0.00    -0.164 C  
BRANCH  31  32
HETATM   32  C   UNL     1      -8.423   9.437  66.773  1.00  0.00    -0.127 C  
HETATM   33  O   UNL     1      -8.969   9.312  68.101  1.00  0.00    -0.129 OA 
HETATM   34  C   UNL     1      -9.056   7.889  68.305  1.00  0.00    -0.134 C  
HETATM   35  H   UNL     1      -8.764   7.223  64.385  1.00  0.00     0.000 HD 
HETATM   36  C   UNL     1      -9.542   7.316  66.964  1.00  0.00    -0.166 C  
HETATM   37  C   UNL     1      -9.146   8.384  65.941  1.00  0.00    -0.171 C  
HETATM   38  H   UNL     1      -9.258   5.699  65.804  1.00  0.00     0.000 HD 
HETATM   39  O   UNL     1      -8.958   6.053  66.633  1.00  0.00    -0.120 OA 
HETATM   40  O   UNL     1      -8.314   7.879  64.903  1.00  0.00    -0.142 OA 
BRANCH  34  41
HETATM   41  N   UNL     1      -9.941   7.585  69.412  1.00  0.00    -0.174 NA 
HETATM   42  C   UNL     1     -11.052   8.271  69.815  1.00  0.00    -0.052 A  
HETATM   43  N   UNL     1     -11.647   7.686  70.836  1.00  0.00    -0.283 NA 
HETATM   44  C   UNL     1     -10.865   6.585  71.119  1.00  0.00    -0.249 A  
HETATM   45  C   UNL     1     -10.969   5.562  72.076  1.00  0.00    -0.214 A  
HETATM   46  N   UNL     1     -12.026   5.460  72.969  1.00  0.00    -0.524 NA 
HETATM   47  N   UNL     1      -9.989   4.629  72.133  1.00  0.00    -0.175 NA 
HETATM   48  H1  UNL     1     -12.101   4.717  73.664  1.00  0.00     0.000 HD 
HETATM   49  C   UNL     1      -8.981   4.699  71.236  1.00  0.00    -0.127 A  
HETATM   50  H2  UNL     1     -12.887   5.451  72.421  1.00  0.00     0.000 HD 
HETATM   51  N   UNL     1      -8.800   5.598  70.241  1.00  0.00    -0.137 NA 
HETATM   52  C   UNL     1      -9.780   6.521  70.260  1.00  0.00    -0.168 A  
ENDBRANCH  34  41
ENDBRANCH  31  32
ENDBRANCH  30  31
ENDBRANCH  27  30
ENDBRANCH  26  27
ENDBRANCH  23  26
ENDBRANCH  22  23
ENDBRANCH  21  22
ENDBRANCH  14  21
ENDBRANCH   8  12
ENDBRANCH   4   6
TORSDOF 11
ENDMDL
MODEL      271
REMARK 921   NORMALIZED FREE ENERGY PREDICTED BY IDOCK:   -2.67 KCAL/MOL
REMARK 922        TOTAL FREE ENERGY PREDICTED BY IDOCK:   -6.59 KCAL/MOL
REMARK 923 INTER-LIGAND FREE ENERGY PREDICTED BY IDOCK:   -4.93 KCAL/MOL
REMARK 924 INTRA-LIGAND FREE ENERGY PREDICTED BY IDOCK:   -1.66 KCAL/MOL
REMARK 927      BINDING AFFINITY PREDICTED BY RF-SCORE:    0.00 PKD
ROOT
HETATM    1  N   UNL     1     -11.303   3.413  64.205  1.00  0.00     0.001 N  
HETATM    2  H1  UNL     1     -11.645   4.257  64.667  1.00  0.00     0.000 HD 
HETATM    3  H2  UNL     1     -11.964   2.786  63.747  1.00  0.00     0.000 HD 
HETATM    4  C   UNL     1      -9.985   3.117  64.195  1.00  0.00    -0.166 C  
HETATM    5  O   UNL     1      -9.573   2.099  63.639  1.00  0.00    -0.108 OA 
ENDROOT
BRANCH   4   6
HETATM    6  C   UNL     1      -9.085   4.064  64.892  1.00  0.00    -0.140 C  
HETATM    7  C   UNL     1      -9.429   4.403  66.148  1.00  0.00    -0.174 C  
HETATM    8  N   UNL     1      -8.661   5.231  66.962  1.00  0.00    -0.106 NA 
HETATM    9  C   UNL     1      -7.809   4.571  64.276  1.00  0.00    -0.086 C  
HETATM   10  C   UNL     1      -7.552   5.856  66.381  1.00  0.00    -0.091 C  
HETATM   11  C   UNL     1      -7.113   5.591  65.141  1.00  0.00    -0.065 C  
BRANCH   8  12
HETATM   12  C   UNL     1      -8.847   5.364  68.424  1.00  0.00    -0.100 C  
HETATM   13  O   UNL     1     -10.168   5.892  68.678  1.00  0.00    -0.160 OA 
HETATM   14  C   UNL     1     -10.066   7.334  68.701  1.00  0.00    -0.176 C  
HETATM   15  H   UNL     1      -7.328   6.581  71.092  1.00  0.00     0.000 HD 
HETATM   16  C   UNL     1      -8.619   7.680  69.044  1.00  0.00    -0.136 C  
HETATM   17  H   UNL     1      -7.658   8.659  70.468  1.00  0.00     0.000 HD 
HETATM   18  C   UNL     1      -7.934   6.326  69.202  1.00  0.00    -0.110 C  
HETATM   19  O   UNL     1      -8.559   8.444  70.255  1.00  0.00    -0.121 OA 
HETATM   20  O   UNL     1      -7.892   5.986  70.611  1.00  0.00    -0.101 OA 
BRANCH  14  21
HETATM   21  C   UNL     1     -10.498   7.921  67.348  1.00  0.00    -0.290 C  
BRANCH  21  22
HETATM   22  O   UNL     1     -11.304   9.080  67.525  1.00  0.00     0.345 OA 
BRANCH  22  23
HETATM   23  P   UNL     1     -10.811  10.452  66.875  1.00  0.00    -0.013 P  
HETATM   24  O   UNL     1     -10.442  10.428  65.429  1.00  0.00    -0.237 OA 
HETATM   25  O   UNL     1     -12.109  11.383  67.061  1.00  0.00    -0.317 OA 
BRANCH  23  26
HETATM   26  O   UNL     1      -9.778  11.109  67.874  1.00  0.00    -0.168 OA 
BRANCH  26  27
HETATM   27  P   UNL     1      -8.298  11.527  67.506  1.00  0.00    -0.159 P  
HETATM   28  O   UNL     1      -8.505  12.469  66.221  1.00  0.00     0.095 OA 
HETATM   29  O   UNL     1      -7.325  10.446  67.181  1.00  0.00    -0.089 OA 
BRANCH  27  30
HETATM   30  O   UNL     1      -7.801  12.560  68.629  1.00  0.00    -0.120 OA 
BRANCH  30  31
HETATM   31  C   UNL     1      -6.426  12.639  68.990  1.00  0.00    -0.097 C  
BRANCH  31  32
HETATM   32  C   UNL     1      -5.906  14.070  69.090  1.00  0.00    -0.087 C  
HETATM   33  O   UNL     1      -6.520  14.922  68.104  1.00  0.00    -0.108 OA 
HETATM   34  C   UNL     1      -6.228  16.254  68.569  1.00  0.00    -0.116 C  
HETATM   35  H   UNL     1      -5.389  14.885  72.219  1.00  0.00     0.000 HD 
HETATM   36  C   UNL     1      -6.406  16.197  70.095  1.00  0.00     0.014 C  
HETATM   37  C   UNL     1      -6.225  14.715  70.434  1.00  0.00    -0.168 C  
HETATM   38  H   UNL     1      -5.574  16.966  71.756  1.00  0.00     0.000 HD 
HETATM   39  O   UNL     1      -5.465  17.001  70.813  1.00  0.00    -0.201 OA 
HETATM   40  O   UNL     1      -5.190  14.483  71.382  1.00  0.00    -0.130 OA 
BRANCH  34  41
HETATM   41  N   UNL     1      -7.096  17.220  67.927  1.00  0.00    -0.165 NA 
HETATM   42  C   UNL     1      -8.462  17.228  67.883  1.00  0.00    -0.218 A  
HETATM   43  N   UNL     1      -8.927  18.287  67.249  1.00  0.00    -0.256 NA 
HETATM   44  C   UNL     1      -7.804  18.978  66.841  1.00  0.00    -0.245 A  
HETATM   45  C   UNL     1      -7.627  20.181  66.138  1.00  0.00    -0.266 A  
HETATM   46  N   UNL     1      -8.682  20.985  65.730  1.00  0.00     0.605 NA 
HETATM   47  N   UNL     1      -6.367  20.576  65.842  1.00  0.00    -0.220 NA 
HETATM   48  H1  UNL     1      -8.553  21.859  65.219  1.00  0.00     0.000 HD 
HETATM   49  C   UNL     1      -5.336  19.819  66.276  1.00  0.00    -0.164 A  
HETATM   50  H2  UNL     1      -9.241  21.196  66.557  1.00  0.00     0.000 HD 
HETATM   51  N   UNL     1      -5.377  18.678  67.002  1.00  0.00    -0.132 NA 
HETATM   52  C   UNL     1      -6.652  18.314  67.230  1.00  0.00    -0.186 A  
ENDBRANCH  34  41
ENDBRANCH  31  32
ENDBRANCH  30  31
ENDBRANCH  27  30
ENDBRANCH  26  27
ENDBRANCH  23  26
ENDBRANCH  22  23
ENDBRANCH  21  22
ENDBRANCH  14  21
ENDBRANCH   8  12
ENDBRANCH   4   6
TORSDOF 11
ENDMDL
MODEL      272
REMARK 921   NORMALIZED FREE ENERGY PREDICTED BY IDOCK:   -2.64 KCAL/MOL
REMARK 922        TOTAL FREE ENERGY PREDICTED BY IDOCK:   -6.54 KCAL/MOL
REMARK 923 INTER-LIGAND FREE ENERGY PREDICTED BY IDOCK:   -6.56 KCAL/MOL
REMARK 924 INTRA-LIGAND FREE ENERGY PREDICTED BY IDOCK:    0.02 KCAL/MOL
REMARK 927      BINDING AFFINITY PREDICTED BY RF-SCORE:    0.00 PKD
ROOT
HETATM    1  N   UNL     1      -9.861   6.302  65.692  1.00  0.00    -0.162 N  
HETATM    2  H1  UNL     1     -10.032   6.864  64.858  1.00  0.00     0.000 HD 
HETATM    3  H2  UNL     1     -10.606   5.714  66.066  1.00  0.00     0.000 HD 
HETATM    4  C   UNL     1      -8.659   6.329  66.308  1.00  0.00    -0.138 C  
HETATM    5  O   UNL     1      -8.452   5.652  67.315  1.00  0.00    -0.108 OA 
ENDROOT
BRANCH   4   6
HETATM    6  C   UNL     1      -7.629   7.216  65.719  1.00  0.00    -0.094 C  
HETATM    7  C   UNL     1      -7.338   8.335  66.408  1.00  0.00    -0.080 C  
HETATM    8  N   UNL     1      -6.352   9.241  66.027  1.00  0.00    -0.067 NA 
HETATM    9  C   UNL     1      -6.883   6.866  64.461  1.00  0.00    -0.046 C  
HETATM   10  C   UNL     1      -5.743   9.044  64.782  1.00  0.00    -0.063 C  
HETATM   11  C   UNL     1      -5.953   7.965  64.013  1.00  0.00    -0.057 C  
BRANCH   8  12
HETATM   12  C   UNL     1      -5.801  10.291  66.912  1.00  0.00    -0.051 C  
HETATM   13  O   UNL     1      -6.320  10.094  68.246  1.00  0.00    -0.049 OA 
HETATM   14  C   UNL     1      -7.550  10.845  68.352  1.00  0.00    -0.104 C  
HETATM   15  H   UNL     1      -5.391  13.566  67.042  1.00  0.00     0.000 HD 
HETATM   16  C   UNL     1      -7.492  11.959  67.310  1.00  0.00    -0.151 C  
HETATM   17  H   UNL     1      -7.540  13.936  67.291  1.00  0.00     0.000 HD 
HETATM   18  C   UNL     1      -6.145  11.761  66.620  1.00  0.00    -0.033 C  
HETATM   19  O   UNL     1      -7.576  13.243  67.941  1.00  0.00    -0.121 OA 
HETATM   20  O   UNL     1      -5.178  12.657  67.222  1.00  0.00    -0.264 OA 
BRANCH  14  21
HETATM   21  C   UNL     1      -8.761   9.921  68.147  1.00  0.00    -0.122 C  
BRANCH  21  22
HETATM   22  O   UNL     1      -9.876  10.641  67.635  1.00  0.00    -0.163 OA 
BRANCH  22  23
HETATM   23  P   UNL     1     -11.060  11.017  68.639  1.00  0.00    -0.293 P  
HETATM   24  O   UNL     1     -11.792   9.887  69.282  1.00  0.00     0.071 OA 
HETATM   25  O   UNL     1     -10.271  11.835  69.777  1.00  0.00     0.506 OA 
BRANCH  23  26
HETATM   26  O   UNL     1     -11.927  12.145  67.952  1.00  0.00    -0.489 OA 
BRANCH  26  27
HETATM   27  P   UNL     1     -11.358  13.280  67.009  1.00  0.00    -0.346 P  
HETATM   28  O   UNL     1     -12.692  13.976  66.446  1.00  0.00    -0.369 OA 
HETATM   29  O   UNL     1     -10.489  12.873  65.869  1.00  0.00    -0.270 OA 
BRANCH  27  30
HETATM   30  O   UNL     1     -10.734  14.416  67.954  1.00  0.00    -0.241 OA 
BRANCH  30  31
HETATM   31  C   UNL     1     -11.190  15.763  67.875  1.00  0.00    -0.313 C  
BRANCH  31  32
HETATM   32  C   UNL     1     -10.279  16.666  67.049  1.00  0.00    -0.290 C  
HETATM   33  O   UNL     1      -9.832  17.802  67.814  1.00  0.00    -0.276 OA 
HETATM   34  C   UNL     1      -8.722  18.316  67.054  1.00  0.00    -0.263 C  
HETATM   35  H   UNL     1      -8.386  14.877  65.063  1.00  0.00     0.000 HD 
HETATM   36  C   UNL     1      -7.958  17.074  66.564  1.00  0.00    -0.295 C  
HETATM   37  C   UNL     1      -9.004  15.958  66.601  1.00  0.00    -0.268 C  
HETATM   38  H   UNL     1      -6.940  16.450  64.947  1.00  0.00     0.000 HD 
HETATM   39  O   UNL     1      -7.412  17.217  65.250  1.00  0.00     0.365 OA 
HETATM   40  O   UNL     1      -9.179  15.317  65.343  1.00  0.00    -0.024 OA 
BRANCH  34  41
HETATM   41  N   UNL     1      -7.913  19.202  67.866  1.00  0.00    -0.276 NA 
HETATM   42  C   UNL     1      -7.807  20.562  67.779  1.00  0.00    -0.179 A  
HETATM   43  N   UNL     1      -7.012  21.053  68.709  1.00  0.00     0.463 NA 
HETATM   44  C   UNL     1      -6.563  19.952  69.410  1.00  0.00    -0.340 A  
HETATM   45  C   UNL     1      -5.708  19.809  70.515  1.00  0.00    -0.272 A  
HETATM   46  N   UNL     1      -5.146  20.884  71.187  1.00  0.00    -0.500 NA 
HETATM   47  N   UNL     1      -5.417  18.559  70.948  1.00  0.00    -0.226 NA 
HETATM   48  H1  UNL     1      -4.525  20.780  71.990  1.00  0.00     0.000 HD 
HETATM   49  C   UNL     1      -5.998  17.511  70.325  1.00  0.00    -0.024 A  
HETATM   50  H2  UNL     1      -5.910  21.498  71.471  1.00  0.00     0.000 HD 
HETATM   51  N   UNL     1      -6.873  17.524  69.293  1.00  0.00    -0.232 NA 
HETATM   52  C   UNL     1      -7.092  18.786  68.881  1.00  0.00    -0.305 A  
ENDBRANCH  34  41
ENDBRANCH  31  32
ENDBRANCH  30  31
ENDBRANCH  27  30
ENDBRANCH  26  27
ENDBRANCH  23  26
ENDBRANCH  22  23
ENDBRANCH  21  22
ENDBRANCH  14  21
ENDBRANCH   8  12
ENDBRANCH   4   6
TORSDOF 11
ENDMDL
MODEL      273
REMARK 921   NORMALIZED FREE ENERGY PREDICTED BY IDOCK:   -2.63 KCAL/MOL
REMARK 922        TOTAL FREE ENERGY PREDICTED BY IDOCK:   -6.52 KCAL/MOL
REMARK 923 INTER-LIGAND FREE ENERGY PREDICTED BY IDOCK:   -6.08 KCAL/MOL
REMARK 924 INTRA-LIGAND FREE ENERGY PREDICTED BY IDOCK:   -0.44 KCAL/MOL
REMARK 927      BINDING AFFINITY PREDICTED BY RF-SCORE:    0.00 PKD
ROOT
HETATM    1  N   UNL     1     -10.597  19.637  70.940  1.00  0.00     0.694 N  
HETATM    2  H1  UNL     1     -10.083  19.113  71.649  1.00  0.00     0.000 HD 
HETATM    3  H2  UNL     1     -11.584  19.851  71.087  1.00  0.00     0.000 HD 
HETATM    4  C   UNL     1      -9.986  20.049  69.808  1.00  0.00     0.248 C  
HETATM    5  O   UNL     1     -10.607  20.681  68.952  1.00  0.00     0.055 OA 
ENDROOT
BRANCH   4   6
HETATM    6  C   UNL     1      -8.558  19.691  69.654  1.00  0.00     0.490 C  
HETATM    7  C   UNL     1      -8.269  18.774  68.712  1.00  0.00    -0.294 C  
HETATM    8  N   UNL     1      -6.973  18.373  68.397  1.00  0.00    -0.244 NA 
HETATM    9  C   UNL     1      -7.466  20.360  70.443  1.00  0.00     1.124 C  
HETATM   10  C   UNL     1      -5.938  18.845  69.212  1.00  0.00    -0.238 C  
HETATM   11  C   UNL     1      -6.107  19.762  70.175  1.00  0.00    -0.347 C  
BRANCH   8  12
HETATM   12  C   UNL     1      -6.609  17.620  67.177  1.00  0.00    -0.161 C  
HETATM   13  O   UNL     1      -7.822  17.200  66.512  1.00  0.00    -0.233 OA 
HETATM   14  C   UNL     1      -8.182  15.902  67.037  1.00  0.00    -0.221 C  
HETATM   15  H   UNL     1      -4.647  15.156  66.185  1.00  0.00     0.000 HD 
HETATM   16  C   UNL     1      -6.907  15.265  67.581  1.00  0.00    -0.180 C  
HETATM   17  H   UNL     1      -5.833  13.639  67.238  1.00  0.00     0.000 HD 
HETATM   18  C   UNL     1      -5.823  16.307  67.323  1.00  0.00    -0.122 C  
HETATM   19  O   UNL     1      -6.627  14.036  66.899  1.00  0.00     0.200 OA 
HETATM   20  O   UNL     1      -5.133  15.968  66.095  1.00  0.00     0.839 OA 
BRANCH  14  21
HETATM   21  C   UNL     1      -9.266  16.044  68.117  1.00  0.00    -0.195 C  
BRANCH  21  22
HETATM   22  O   UNL     1     -10.565  16.086  67.538  1.00  0.00    -0.302 OA 
BRANCH  22  23
HETATM   23  P   UNL     1     -11.369  14.716  67.380  1.00  0.00    -0.373 P  
HETATM   24  O   UNL     1     -11.845  14.057  68.631  1.00  0.00    -0.326 OA 
HETATM   25  O   UNL     1     -12.647  15.187  66.525  1.00  0.00     0.529 OA 
BRANCH  23  26
HETATM   26  O   UNL     1     -10.582  13.819  66.344  1.00  0.00    -0.279 OA 
BRANCH  26  27
HETATM   27  P   UNL     1     -11.202  12.610  65.535  1.00  0.00    -0.330 P  
HETATM   28  O   UNL     1     -11.059  13.093  64.009  1.00  0.00    -0.384 OA 
HETATM   29  O   UNL     1     -12.619  12.237  65.809  1.00  0.00    -0.455 OA 
BRANCH  27  30
HETATM   30  O   UNL     1     -10.161  11.393  65.623  1.00  0.00    -0.227 OA 
BRANCH  30  31
HETATM   31  C   UNL     1      -9.268  11.274  66.725  1.00  0.00    -0.175 C  
BRANCH  31  32
HETATM   32  C   UNL     1      -9.198   9.864  67.302  1.00  0.00    -0.138 C  
HETATM   33  O   UNL     1      -9.874   9.781  68.571  1.00  0.00    -0.151 OA 
HETATM   34  C   UNL     1     -10.047   8.366  68.779  1.00  0.00    -0.196 C  
HETATM   35  H   UNL     1      -9.412   7.636  64.910  1.00  0.00     0.000 HD 
HETATM   36  C   UNL     1     -10.428   7.799  67.402  1.00  0.00    -0.292 C  
HETATM   37  C   UNL     1      -9.886   8.834  66.413  1.00  0.00    -0.282 C  
HETATM   38  H   UNL     1     -10.110   6.155  66.289  1.00  0.00     0.000 HD 
HETATM   39  O   UNL     1      -9.875   6.506  67.140  1.00  0.00    -0.133 OA 
HETATM   40  O   UNL     1      -8.983   8.277  65.464  1.00  0.00    -0.154 OA 
BRANCH  34  41
HETATM   41  N   UNL     1     -11.047   8.119  69.798  1.00  0.00    -0.127 NA 
HETATM   42  C   UNL     1     -11.484   6.915  70.275  1.00  0.00    -0.323 A  
HETATM   43  N   UNL     1     -12.374   7.061  71.236  1.00  0.00    -0.368 NA 
HETATM   44  C   UNL     1     -12.538   8.426  71.364  1.00  0.00    -0.277 A  
HETATM   45  C   UNL     1     -13.329   9.216  72.213  1.00  0.00    -0.477 A  
HETATM   46  N   UNL     1     -14.138   8.687  73.209  1.00  0.00    -1.007 NA 
HETATM   47  N   UNL     1     -13.304  10.560  72.053  1.00  0.00    -0.401 NA 
HETATM   48  H1  UNL     1     -14.713   9.262  73.826  1.00  0.00     0.000 HD 
HETATM   49  C   UNL     1     -12.484  11.081  71.115  1.00  0.00    -0.397 A  
HETATM   50  H2  UNL     1     -13.548   8.102  73.801  1.00  0.00     0.000 HD 
HETATM   51  N   UNL     1     -11.642  10.432  70.279  1.00  0.00    -0.303 NA 
HETATM   52  C   UNL     1     -11.739   9.101  70.455  1.00  0.00    -0.152 A  
ENDBRANCH  34  41
ENDBRANCH  31  32
ENDBRANCH  30  31
ENDBRANCH  27  30
ENDBRANCH  26  27
ENDBRANCH  23  26
ENDBRANCH  22  23
ENDBRANCH  21  22
ENDBRANCH  14  21
ENDBRANCH   8  12
ENDBRANCH   4   6
TORSDOF 11
ENDMDL
MODEL      274
REMARK 921   NORMALIZED FREE ENERGY PREDICTED BY IDOCK:   -2.58 KCAL/MOL
REMARK 922        TOTAL FREE ENERGY PREDICTED BY IDOCK:   -6.44 KCAL/MOL
REMARK 923 INTER-LIGAND FREE ENERGY PREDICTED BY IDOCK:   -6.64 KCAL/MOL
REMARK 924 INTRA-LIGAND FREE ENERGY PREDICTED BY IDOCK:    0.20 KCAL/MOL
REMARK 927      BINDING AFFINITY PREDICTED BY RF-SCORE:    0.00 PKD
ROOT
HETATM    1  N   UNL     1     -12.803  14.193  66.197  1.00  0.00    -0.456 N  
HETATM    2  H1  UNL     1     -12.587  14.029  65.214  1.00  0.00     0.000 HD 
HETATM    3  H2  UNL     1     -13.590  14.792  66.448  1.00  0.00     0.000 HD 
HETATM    4  C   UNL     1     -12.057  13.627  67.172  1.00  0.00    -0.362 C  
HETATM    5  O   UNL     1     -12.318  13.825  68.359  1.00  0.00    -0.254 OA 
ENDROOT
BRANCH   4   6
HETATM    6  C   UNL     1     -10.922  12.782  66.736  1.00  0.00    -0.301 C  
HETATM    7  C   UNL     1      -9.690  13.235  67.033  1.00  0.00    -0.238 C  
HETATM    8  N   UNL     1      -8.521  12.534  66.750  1.00  0.00    -0.125 NA 
HETATM    9  C   UNL     1     -11.116  11.450  66.065  1.00  0.00    -0.235 C  
HETATM   10  C   UNL     1      -8.639  11.368  65.984  1.00  0.00    -0.094 C  
HETATM   11  C   UNL     1      -9.813  10.822  65.635  1.00  0.00    -0.299 C  
BRANCH   8  12
HETATM   12  C   UNL     1      -7.200  12.849  67.336  1.00  0.00    -0.126 C  
HETATM   13  O   UNL     1      -6.328  11.711  67.155  1.00  0.00    -0.108 OA 
HETATM   14  C   UNL     1      -6.480  10.855  68.309  1.00  0.00    -0.057 C  
HETATM   15  H   UNL     1      -5.852  14.044  70.104  1.00  0.00     0.000 HD 
HETATM   16  C   UNL     1      -6.985  11.727  69.456  1.00  0.00     0.027 C  
HETATM   17  H   UNL     1      -6.372  12.253  71.261  1.00  0.00     0.000 HD 
HETATM   18  C   UNL     1      -7.105  13.121  68.846  1.00  0.00    -0.075 C  
HETATM   19  O   UNL     1      -6.057  11.710  70.548  1.00  0.00    -0.269 OA 
HETATM   20  O   UNL     1      -5.911  13.876  69.170  1.00  0.00    -0.080 OA 
BRANCH  14  21
HETATM   21  C   UNL     1      -7.440   9.698  67.994  1.00  0.00    -0.082 C  
BRANCH  21  22
HETATM   22  O   UNL     1      -6.899   8.452  68.416  1.00  0.00    -0.063 OA 
BRANCH  22  23
HETATM   23  P   UNL     1      -6.185   7.528  67.326  1.00  0.00    -0.055 P  
HETATM   24  O   UNL     1      -5.353   8.212  66.294  1.00  0.00    -0.025 OA 
HETATM   25  O   UNL     1      -5.225   6.625  68.247  1.00  0.00    -0.010 OA 
BRANCH  23  26
HETATM   26  O   UNL     1      -7.252   6.479  66.818  1.00  0.00    -0.074 OA 
BRANCH  26  27
HETATM   27  P   UNL     1      -7.161   5.679  65.457  1.00  0.00    -0.070 P  
HETATM   28  O   UNL     1      -5.943   4.665  65.721  1.00  0.00    -0.022 OA 
HETATM   29  O   UNL     1      -6.906   6.450  64.207  1.00  0.00    -0.037 OA 
BRANCH  27  30
HETATM   30  O   UNL     1      -8.432   4.701  65.393  1.00  0.00    -0.119 OA 
BRANCH  30  31
HETATM   31  C   UNL     1      -8.637   3.705  66.389  1.00  0.00    -0.115 C  
BRANCH  31  32
HETATM   32  C   UNL     1      -9.596   4.139  67.494  1.00  0.00    -0.171 C  
HETATM   33  O   UNL     1      -8.953   4.125  68.783  1.00  0.00    -0.098 OA 
HETATM   34  C   UNL     1      -9.834   4.900  69.617  1.00  0.00    -0.218 C  
HETATM   35  H   UNL     1     -11.592   6.502  66.416  1.00  0.00     0.000 HD 
HETATM   36  C   UNL     1     -10.292   6.076  68.739  1.00  0.00    -0.214 C  
HETATM   37  C   UNL     1     -10.091   5.569  67.309  1.00  0.00    -0.183 C  
HETATM   38  H   UNL     1     -11.936   7.186  68.415  1.00  0.00     0.000 HD 
HETATM   39  O   UNL     1     -11.653   6.460  68.957  1.00  0.00    -0.276 OA 
HETATM   40  O   UNL     1     -11.283   5.611  66.532  1.00  0.00    -0.098 OA 
BRANCH  34  41
HETATM   41  N   UNL     1      -9.155   5.318  70.827  1.00  0.00    -0.134 NA 
HETATM   42  C   UNL     1      -8.251   4.615  71.572  1.00  0.00    -0.103 A  
HETATM   43  N   UNL     1      -7.798   5.321  72.589  1.00  0.00    -0.098 NA 
HETATM   44  C   UNL     1      -8.464   6.527  72.510  1.00  0.00    -0.121 A  
HETATM   45  C   UNL     1      -8.416   7.697  73.286  1.00  0.00    -0.160 A  
HETATM   46  N   UNL     1      -7.555   7.861  74.361  1.00  0.00    -0.171 NA 
HETATM   47  N   UNL     1      -9.252   8.715  72.972  1.00  0.00    -0.240 NA 
HETATM   48  H1  UNL     1      -7.520   8.711  74.924  1.00  0.00     0.000 HD 
HETATM   49  C   UNL     1     -10.060   8.576  71.898  1.00  0.00    -0.297 A  
HETATM   50  H2  UNL     1      -6.609   7.682  74.022  1.00  0.00     0.000 HD 
HETATM   51  N   UNL     1     -10.159   7.527  71.048  1.00  0.00    -0.187 NA 
HETATM   52  C   UNL     1      -9.336   6.534  71.433  1.00  0.00    -0.151 A  
ENDBRANCH  34  41
ENDBRANCH  31  32
ENDBRANCH  30  31
ENDBRANCH  27  30
ENDBRANCH  26  27
ENDBRANCH  23  26
ENDBRANCH  22  23
ENDBRANCH  21  22
ENDBRANCH  14  21
ENDBRANCH   8  12
ENDBRANCH   4   6
TORSDOF 11
ENDMDL
MODEL      275
REMARK 921   NORMALIZED FREE ENERGY PREDICTED BY IDOCK:   -2.55 KCAL/MOL
REMARK 922        TOTAL FREE ENERGY PREDICTED BY IDOCK:   -6.40 KCAL/MOL
REMARK 923 INTER-LIGAND FREE ENERGY PREDICTED BY IDOCK:   -6.31 KCAL/MOL
REMARK 924 INTRA-LIGAND FREE ENERGY PREDICTED BY IDOCK:   -0.09 KCAL/MOL
REMARK 927      BINDING AFFINITY PREDICTED BY RF-SCORE:    0.00 PKD
ROOT
HETATM    1  N   UNL     1     -11.444  11.574  64.425  1.00  0.00    -0.223 N  
HETATM    2  H1  UNL     1     -10.999  11.932  63.579  1.00  0.00     0.000 HD 
HETATM    3  H2  UNL     1     -11.531  10.567  64.561  1.00  0.00     0.000 HD 
HETATM    4  C   UNL     1     -11.920  12.419  65.366  1.00  0.00    -0.398 C  
HETATM    5  O   UNL     1     -12.457  11.987  66.386  1.00  0.00    -0.118 OA 
ENDROOT
BRANCH   4   6
HETATM    6  C   UNL     1     -11.773  13.867  65.096  1.00  0.00    -0.357 C  
HETATM    7  C   UNL     1     -10.761  14.494  65.724  1.00  0.00    -0.315 C  
HETATM    8  N   UNL     1     -10.446  15.836  65.532  1.00  0.00    -0.379 NA 
HETATM    9  C   UNL     1     -12.647  14.601  64.117  1.00  0.00    -0.018 C  
HETATM   10  C   UNL     1     -11.327  16.600  64.757  1.00  0.00     0.023 C  
HETATM   11  C   UNL     1     -12.364  16.082  64.082  1.00  0.00     0.566 C  
BRANCH   8  12
HETATM   12  C   UNL     1      -9.173  16.461  65.955  1.00  0.00    -0.293 C  
HETATM   13  O   UNL     1      -8.930  16.128  67.341  1.00  0.00    -0.188 OA 
HETATM   14  C   UNL     1      -9.543  17.157  68.151  1.00  0.00    -0.270 C  
HETATM   15  H   UNL     1      -7.604  19.366  65.883  1.00  0.00     0.000 HD 
HETATM   16  C   UNL     1      -9.650  18.410  67.286  1.00  0.00    -0.288 C  
HETATM   17  H   UNL     1      -8.981  20.270  67.334  1.00  0.00     0.000 HD 
HETATM   18  C   UNL     1      -9.059  17.993  65.942  1.00  0.00     0.189 C  
HETATM   19  O   UNL     1      -8.914  19.490  67.872  1.00  0.00    -0.308 OA 
HETATM   20  O   UNL     1      -7.674  18.418  65.891  1.00  0.00    -0.470 OA 
BRANCH  14  21
HETATM   21  C   UNL     1     -10.913  16.687  68.665  1.00  0.00    -0.328 C  
BRANCH  21  22
HETATM   22  O   UNL     1     -11.107  15.300  68.416  1.00  0.00    -0.261 OA 
BRANCH  22  23
HETATM   23  P   UNL     1     -10.520  14.252  69.468  1.00  0.00     0.267 P  
HETATM   24  O   UNL     1      -9.278  14.641  70.197  1.00  0.00     0.549 OA 
HETATM   25  O   UNL     1     -11.727  14.145  70.525  1.00  0.00    -0.279 OA 
BRANCH  23  26
HETATM   26  O   UNL     1     -10.543  12.827  68.784  1.00  0.00    -0.240 OA 
BRANCH  26  27
HETATM   27  P   UNL     1      -9.267  12.049  68.266  1.00  0.00    -0.133 P  
HETATM   28  O   UNL     1      -8.055  12.956  68.805  1.00  0.00    -0.053 OA 
HETATM   29  O   UNL     1      -9.121  11.843  66.797  1.00  0.00    -0.186 OA 
BRANCH  27  30
HETATM   30  O   UNL     1      -9.133  10.714  69.145  1.00  0.00    -0.181 OA 
BRANCH  30  31
HETATM   31  C   UNL     1     -10.258  10.177  69.832  1.00  0.00    -0.237 C  
BRANCH  31  32
HETATM   32  C   UNL     1      -9.988   8.818  70.471  1.00  0.00    -0.189 C  
HETATM   33  O   UNL     1     -10.152   7.748  69.520  1.00  0.00    -0.185 OA 
HETATM   34  C   UNL     1      -9.508   6.625  70.149  1.00  0.00    -0.158 C  
HETATM   35  H   UNL     1      -7.552   9.039  72.648  1.00  0.00     0.000 HD 
HETATM   36  C   UNL     1      -8.240   7.199  70.803  1.00  0.00    -0.120 C  
HETATM   37  C   UNL     1      -8.557   8.686  70.981  1.00  0.00    -0.173 C  
HETATM   38  H   UNL     1      -7.133   6.949  72.462  1.00  0.00     0.000 HD 
HETATM   39  O   UNL     1      -7.916   6.594  72.058  1.00  0.00    -0.101 OA 
HETATM   40  O   UNL     1      -8.443   9.121  72.331  1.00  0.00    -0.253 OA 
BRANCH  34  41
HETATM   41  N   UNL     1      -9.231   5.585  69.178  1.00  0.00    -0.114 NA 
HETATM   42  C   UNL     1      -9.223   4.232  69.371  1.00  0.00    -0.137 A  
HETATM   43  N   UNL     1      -8.974   3.578  68.254  1.00  0.00    -0.119 NA 
HETATM   44  C   UNL     1      -8.785   4.560  67.302  1.00  0.00    -0.104 A  
HETATM   45  C   UNL     1      -8.503   4.513  65.927  1.00  0.00    -0.114 A  
HETATM   46  N   UNL     1      -8.400   3.330  65.211  1.00  0.00    -0.097 NA 
HETATM   47  N   UNL     1      -8.322   5.681  65.266  1.00  0.00    -0.141 NA 
HETATM   48  H1  UNL     1      -8.196   3.296  64.212  1.00  0.00     0.000 HD 
HETATM   49  C   UNL     1      -8.466   6.837  65.950  1.00  0.00    -0.144 A  
HETATM   50  H2  UNL     1      -9.264   2.807  65.362  1.00  0.00     0.000 HD 
HETATM   51  N   UNL     1      -8.786   7.010  67.253  1.00  0.00    -0.120 NA 
HETATM   52  C   UNL     1      -8.914   5.819  67.866  1.00  0.00    -0.111 A  
ENDBRANCH  34  41
ENDBRANCH  31  32
ENDBRANCH  30  31
ENDBRANCH  27  30
ENDBRANCH  26  27
ENDBRANCH  23  26
ENDBRANCH  22  23
ENDBRANCH  21  22
ENDBRANCH  14  21
ENDBRANCH   8  12
ENDBRANCH   4   6
TORSDOF 11
ENDMDL
MODEL      276
REMARK 921   NORMALIZED FREE ENERGY PREDICTED BY IDOCK:   -2.52 KCAL/MOL
REMARK 922        TOTAL FREE ENERGY PREDICTED BY IDOCK:   -6.34 KCAL/MOL
REMARK 923 INTER-LIGAND FREE ENERGY PREDICTED BY IDOCK:   -7.37 KCAL/MOL
REMARK 924 INTRA-LIGAND FREE ENERGY PREDICTED BY IDOCK:    1.03 KCAL/MOL
REMARK 927      BINDING AFFINITY PREDICTED BY RF-SCORE:    0.00 PKD
ROOT
HETATM    1  N   UNL     1      -8.343   9.010  64.866  1.00  0.00    -0.160 N  
HETATM    2  H1  UNL     1      -8.321   9.520  65.749  1.00  0.00     0.000 HD 
HETATM    3  H2  UNL     1      -7.804   8.149  64.767  1.00  0.00     0.000 HD 
HETATM    4  C   UNL     1      -9.078   9.460  63.825  1.00  0.00    -0.026 C  
HETATM    5  O   UNL     1      -9.104   8.845  62.760  1.00  0.00    -0.028 OA 
ENDROOT
BRANCH   4   6
HETATM    6  C   UNL     1      -9.824  10.722  64.035  1.00  0.00    -0.390 C  
HETATM    7  C   UNL     1      -9.528  11.414  65.151  1.00  0.00    -0.199 C  
HETATM    8  N   UNL     1     -10.091  12.648  65.466  1.00  0.00    -0.274 NA 
HETATM    9  C   UNL     1     -10.808  11.258  63.031  1.00  0.00     0.027 C  
HETATM   10  C   UNL     1     -11.128  13.110  64.648  1.00  0.00    -0.345 C  
HETATM   11  C   UNL     1     -11.504  12.507  63.510  1.00  0.00    -0.570 C  
BRANCH   8  12
HETATM   12  C   UNL     1      -9.562  13.563  66.502  1.00  0.00    -0.277 C  
HETATM   13  O   UNL     1      -9.629  12.901  67.785  1.00  0.00    -0.198 OA 
HETATM   14  C   UNL     1     -10.915  13.208  68.369  1.00  0.00    -0.262 C  
HETATM   15  H   UNL     1      -9.871  16.677  67.558  1.00  0.00     0.000 HD 
HETATM   16  C   UNL     1     -11.401  14.509  67.736  1.00  0.00    -0.317 C  
HETATM   17  H   UNL     1     -11.890  16.327  68.344  1.00  0.00     0.000 HD 
HETATM   18  C   UNL     1     -10.292  14.891  66.759  1.00  0.00    -0.269 C  
HETATM   19  O   UNL     1     -11.588  15.516  68.738  1.00  0.00    -0.342 OA 
HETATM   20  O   UNL     1      -9.420  15.856  67.399  1.00  0.00    -0.216 OA 
BRANCH  14  21
HETATM   21  C   UNL     1     -11.898  12.049  68.138  1.00  0.00    -0.286 C  
BRANCH  21  22
HETATM   22  O   UNL     1     -11.212  10.862  67.757  1.00  0.00    -0.289 OA 
BRANCH  22  23
HETATM   23  P   UNL     1     -10.398  10.065  68.875  1.00  0.00    -0.228 P  
HETATM   24  O   UNL     1      -9.024   9.604  68.520  1.00  0.00    -0.123 OA 
HETATM   25  O   UNL     1     -10.286  11.168  70.041  1.00  0.00     0.232 OA 
BRANCH  23  26
HETATM   26  O   UNL     1     -11.378   9.000  69.510  1.00  0.00    -0.016 OA 
BRANCH  26  27
HETATM   27  P   UNL     1     -11.092   8.177  70.830  1.00  0.00    -0.253 P  
HETATM   28  O   UNL     1     -10.980   6.668  70.289  1.00  0.00    -0.258 OA 
HETATM   29  O   UNL     1     -12.100   8.239  71.926  1.00  0.00    -0.295 OA 
BRANCH  27  30
HETATM   30  O   UNL     1      -9.589   8.507  71.282  1.00  0.00    -0.169 OA 
BRANCH  30  31
HETATM   31  C   UNL     1      -8.910   7.677  72.219  1.00  0.00    -0.131 C  
BRANCH  31  32
HETATM   32  C   UNL     1      -7.914   6.720  71.572  1.00  0.00    -0.102 C  
HETATM   33  O   UNL     1      -8.583   5.602  70.958  1.00  0.00    -0.124 OA 
HETATM   34  C   UNL     1      -7.580   5.030  70.096  1.00  0.00    -0.060 C  
HETATM   35  H   UNL     1      -5.424   8.381  70.243  1.00  0.00     0.000 HD 
HETATM   36  C   UNL     1      -6.854   6.231  69.469  1.00  0.00    -0.065 C  
HETATM   37  C   UNL     1      -7.116   7.376  70.450  1.00  0.00    -0.064 C  
HETATM   38  H   UNL     1      -5.000   6.766  68.904  1.00  0.00     0.000 HD 
HETATM   39  O   UNL     1      -5.449   6.024  69.291  1.00  0.00    -0.004 OA 
HETATM   40  O   UNL     1      -5.921   7.973  70.941  1.00  0.00    -0.033 OA 
BRANCH  34  41
HETATM   41  N   UNL     1      -8.189   4.153  69.116  1.00  0.00    -0.069 NA 
HETATM   42  C   UNL     1      -9.169   3.221  69.313  1.00  0.00    -0.149 A  
HETATM   43  N   UNL     1      -9.519   2.631  68.187  1.00  0.00    -0.202 NA 
HETATM   44  C   UNL     1      -8.704   3.192  67.224  1.00  0.00    -0.123 A  
HETATM   45  C   UNL     1      -8.596   3.000  65.837  1.00  0.00    -0.117 A  
HETATM   46  N   UNL     1      -9.419   2.143  65.120  1.00  0.00    -0.321 NA 
HETATM   47  N   UNL     1      -7.640   3.683  65.164  1.00  0.00    -0.077 NA 
HETATM   48  H1  UNL     1      -9.340   2.004  64.113  1.00  0.00     0.000 HD 
HETATM   49  C   UNL     1      -6.866   4.552  65.850  1.00  0.00    -0.058 A  
HETATM   50  H2  UNL     1     -10.383   2.416  65.315  1.00  0.00     0.000 HD 
HETATM   51  N   UNL     1      -6.910   4.860  67.167  1.00  0.00    -0.055 NA 
HETATM   52  C   UNL     1      -7.849   4.123  67.789  1.00  0.00    -0.086 A  
ENDBRANCH  34  41
ENDBRANCH  31  32
ENDBRANCH  30  31
ENDBRANCH  27  30
ENDBRANCH  26  27
ENDBRANCH  23  26
ENDBRANCH  22  23
ENDBRANCH  21  22
ENDBRANCH  14  21
ENDBRANCH   8  12
ENDBRANCH   4   6
TORSDOF 11
ENDMDL
MODEL      277
REMARK 921   NORMALIZED FREE ENERGY PREDICTED BY IDOCK:   -2.47 KCAL/MOL
REMARK 922        TOTAL FREE ENERGY PREDICTED BY IDOCK:   -6.26 KCAL/MOL
REMARK 923 INTER-LIGAND FREE ENERGY PREDICTED BY IDOCK:   -5.45 KCAL/MOL
REMARK 924 INTRA-LIGAND FREE ENERGY PREDICTED BY IDOCK:   -0.81 KCAL/MOL
REMARK 927      BINDING AFFINITY PREDICTED BY RF-SCORE:    0.00 PKD
ROOT
HETATM    1  N   UNL     1      -7.932  15.842  66.301  1.00  0.00    -0.221 N  
HETATM    2  H1  UNL     1      -7.755  15.104  65.620  1.00  0.00     0.000 HD 
HETATM    3  H2  UNL     1      -7.679  16.805  66.079  1.00  0.00     0.000 HD 
HETATM    4  C   UNL     1      -8.497  15.559  67.496  1.00  0.00    -0.173 C  
HETATM    5  O   UNL     1      -8.709  16.450  68.318  1.00  0.00    -0.190 OA 
ENDROOT
BRANCH   4   6
HETATM    6  C   UNL     1      -8.825  14.139  67.757  1.00  0.00    -0.185 C  
HETATM    7  C   UNL     1      -7.860  13.398  68.333  1.00  0.00    -0.138 C  
HETATM    8  N   UNL     1      -8.027  12.066  68.702  1.00  0.00    -0.119 NA 
HETATM    9  C   UNL     1     -10.182  13.556  67.472  1.00  0.00    -0.234 C  
HETATM   10  C   UNL     1      -9.214  11.434  68.312  1.00  0.00    -0.183 C  
HETATM   11  C   UNL     1     -10.243  12.073  67.737  1.00  0.00    -0.211 C  
BRANCH   8  12
HETATM   12  C   UNL     1      -7.114  11.333  69.607  1.00  0.00    -0.007 C  
HETATM   13  O   UNL     1      -5.817  11.236  68.978  1.00  0.00    -0.040 OA 
HETATM   14  C   UNL     1      -5.798  10.018  68.199  1.00  0.00    -0.042 C  
HETATM   15  H   UNL     1      -6.977   8.567  71.406  1.00  0.00     0.000 HD 
HETATM   16  C   UNL     1      -6.841   9.080  68.801  1.00  0.00    -0.061 C  
HETATM   17  H   UNL     1      -6.875   7.284  69.628  1.00  0.00     0.000 HD 
HETATM   18  C   UNL     1      -7.437   9.872  69.961  1.00  0.00    -0.168 C  
HETATM   19  O   UNL     1      -6.226   7.868  69.254  1.00  0.00    -0.034 OA 
HETATM   20  O   UNL     1      -6.777   9.470  71.187  1.00  0.00    -0.220 OA 
BRANCH  14  21
HETATM   21  C   UNL     1      -6.079  10.325  66.720  1.00  0.00    -0.062 C  
BRANCH  21  22
HETATM   22  O   UNL     1      -6.596   9.183  66.047  1.00  0.00    -0.067 OA 
BRANCH  22  23
HETATM   23  P   UNL     1      -6.463   9.115  64.458  1.00  0.00    -0.079 P  
HETATM   24  O   UNL     1      -6.169  10.392  63.743  1.00  0.00    -0.132 OA 
HETATM   25  O   UNL     1      -5.208   8.124  64.281  1.00  0.00    -0.039 OA 
BRANCH  23  26
HETATM   26  O   UNL     1      -7.663   8.241  63.915  1.00  0.00    -0.125 OA 
BRANCH  26  27
HETATM   27  P   UNL     1      -7.530   6.773  63.343  1.00  0.00    -0.093 P  
HETATM   28  O   UNL     1      -6.117   6.815  62.581  1.00  0.00    -0.038 OA 
HETATM   29  O   UNL     1      -8.586   6.287  62.410  1.00  0.00    -0.044 OA 
BRANCH  27  30
HETATM   30  O   UNL     1      -7.237   5.801  64.586  1.00  0.00    -0.058 OA 
BRANCH  30  31
HETATM   31  C   UNL     1      -8.022   5.874  65.771  1.00  0.00    -0.111 C  
BRANCH  31  32
HETATM   32  C   UNL     1      -7.568   4.909  66.861  1.00  0.00    -0.088 C  
HETATM   33  O   UNL     1      -8.189   5.215  68.125  1.00  0.00    -0.097 OA 
HETATM   34  C   UNL     1      -7.969   4.030  68.914  1.00  0.00    -0.067 C  
HETATM   35  H   UNL     1      -7.180   1.896  65.639  1.00  0.00     0.000 HD 
HETATM   36  C   UNL     1      -8.189   2.855  67.947  1.00  0.00    -0.078 C  
HETATM   37  C   UNL     1      -7.955   3.465  66.563  1.00  0.00    -0.084 C  
HETATM   38  H   UNL     1      -7.442   1.026  67.576  1.00  0.00     0.000 HD 
HETATM   39  O   UNL     1      -7.306   1.752  68.173  1.00  0.00    -0.043 OA 
HETATM   40  O   UNL     1      -6.939   2.795  65.825  1.00  0.00    -0.047 OA 
BRANCH  34  41
HETATM   41  N   UNL     1      -8.858   4.006  70.058  1.00  0.00    -0.074 NA 
HETATM   42  C   UNL     1      -9.379   2.916  70.697  1.00  0.00    -0.150 A  
HETATM   43  N   UNL     1     -10.118   3.261  71.733  1.00  0.00    -0.116 NA 
HETATM   44  C   UNL     1     -10.093   4.641  71.743  1.00  0.00    -0.191 A  
HETATM   45  C   UNL     1     -10.668   5.599  72.594  1.00  0.00    -0.242 A  
HETATM   46  N   UNL     1     -11.407   5.270  73.721  1.00  0.00    -0.419 NA 
HETATM   47  N   UNL     1     -10.495   6.910  72.300  1.00  0.00    -0.204 NA 
HETATM   48  H1  UNL     1     -11.824   5.966  74.339  1.00  0.00     0.000 HD 
HETATM   49  C   UNL     1      -9.739   7.235  71.229  1.00  0.00    -0.166 A  
HETATM   50  H2  UNL     1     -10.825   4.661  74.298  1.00  0.00     0.000 HD 
HETATM   51  N   UNL     1      -9.095   6.410  70.372  1.00  0.00    -0.154 NA 
HETATM   52  C   UNL     1      -9.335   5.124  70.689  1.00  0.00    -0.159 A  
ENDBRANCH  34  41
ENDBRANCH  31  32
ENDBRANCH  30  31
ENDBRANCH  27  30
ENDBRANCH  26  27
ENDBRANCH  23  26
ENDBRANCH  22  23
ENDBRANCH  21  22
ENDBRANCH  14  21
ENDBRANCH   8  12
ENDBRANCH   4   6
TORSDOF 11
ENDMDL
MODEL      278
REMARK 921   NORMALIZED FREE ENERGY PREDICTED BY IDOCK:   -2.34 KCAL/MOL
REMARK 922        TOTAL FREE ENERGY PREDICTED BY IDOCK:   -6.04 KCAL/MOL
REMARK 923 INTER-LIGAND FREE ENERGY PREDICTED BY IDOCK:   -6.05 KCAL/MOL
REMARK 924 INTRA-LIGAND FREE ENERGY PREDICTED BY IDOCK:    0.01 KCAL/MOL
REMARK 927      BINDING AFFINITY PREDICTED BY RF-SCORE:    0.00 PKD
ROOT
HETATM    1  N   UNL     1      -5.857  16.137  69.097  1.00  0.00    -0.118 N  
HETATM    2  H1  UNL     1      -5.808  16.397  68.111  1.00  0.00     0.000 HD 
HETATM    3  H2  UNL     1      -5.389  16.715  69.795  1.00  0.00     0.000 HD 
HETATM    4  C   UNL     1      -6.537  15.037  69.488  1.00  0.00    -0.155 C  
HETATM    5  O   UNL     1      -6.597  14.723  70.677  1.00  0.00    -0.085 OA 
ENDROOT
BRANCH   4   6
HETATM    6  C   UNL     1      -7.181  14.238  68.420  1.00  0.00    -0.113 C  
HETATM    7  C   UNL     1      -8.469  14.526  68.152  1.00  0.00    -0.157 C  
HETATM    8  N   UNL     1      -9.201  13.913  67.138  1.00  0.00    -0.229 NA 
HETATM    9  C   UNL     1      -6.434  13.211  67.614  1.00  0.00    -0.166 C  
HETATM   10  C   UNL     1      -8.602  12.840  66.469  1.00  0.00     0.090 C  
HETATM   11  C   UNL     1      -7.326  12.468  66.651  1.00  0.00     0.461 C  
BRANCH   8  12
HETATM   12  C   UNL     1     -10.491  14.421  66.621  1.00  0.00    -0.274 C  
HETATM   13  O   UNL     1     -11.497  14.262  67.647  1.00  0.00    -0.309 OA 
HETATM   14  C   UNL     1     -12.099  12.960  67.472  1.00  0.00    -0.192 C  
HETATM   15  H   UNL     1     -12.462  14.174  63.983  1.00  0.00     0.000 HD 
HETATM   16  C   UNL     1     -11.890  12.557  66.014  1.00  0.00    -0.418 C  
HETATM   17  H   UNL     1     -13.020  12.105  64.455  1.00  0.00     0.000 HD 
HETATM   18  C   UNL     1     -11.126  13.729  65.405  1.00  0.00    -0.302 C  
HETATM   19  O   UNL     1     -13.150  12.356  65.363  1.00  0.00    -0.220 OA 
HETATM   20  O   UNL     1     -12.069  14.602  64.735  1.00  0.00    -0.421 OA 
BRANCH  14  21
HETATM   21  C   UNL     1     -11.477  11.948  68.448  1.00  0.00    -0.299 C  
BRANCH  21  22
HETATM   22  O   UNL     1     -11.633  12.373  69.796  1.00  0.00    -0.284 OA 
BRANCH  22  23
HETATM   23  P   UNL     1     -12.322  11.371  70.831  1.00  0.00    -0.247 P  
HETATM   24  O   UNL     1     -13.229  11.967  71.855  1.00  0.00    -0.482 OA 
HETATM   25  O   UNL     1     -13.192  10.440  69.850  1.00  0.00     0.001 OA 
BRANCH  23  26
HETATM   26  O   UNL     1     -11.208  10.374  71.343  1.00  0.00    -0.021 OA 
BRANCH  26  27
HETATM   27  P   UNL     1     -10.159   9.634  70.420  1.00  0.00    -0.203 P  
HETATM   28  O   UNL     1      -9.529   8.535  71.409  1.00  0.00    -0.173 OA 
HETATM   29  O   UNL     1      -9.065  10.444  69.813  1.00  0.00    -0.125 OA 
BRANCH  27  30
HETATM   30  O   UNL     1     -10.988   8.740  69.376  1.00  0.00    -0.163 OA 
BRANCH  30  31
HETATM   31  C   UNL     1     -10.438   8.401  68.108  1.00  0.00    -0.174 C  
BRANCH  31  32
HETATM   32  C   UNL     1      -9.469   7.224  68.161  1.00  0.00    -0.133 C  
HETATM   33  O   UNL     1      -9.932   6.126  67.351  1.00  0.00    -0.123 OA 
HETATM   34  C   UNL     1      -8.768   5.291  67.203  1.00  0.00    -0.107 C  
HETATM   35  H   UNL     1      -6.376   8.291  68.289  1.00  0.00     0.000 HD 
HETATM   36  C   UNL     1      -7.596   6.264  66.997  1.00  0.00    -0.095 C  
HETATM   37  C   UNL     1      -8.092   7.576  67.610  1.00  0.00    -0.118 C  
HETATM   38  H   UNL     1      -5.655   6.441  67.491  1.00  0.00     0.000 HD 
HETATM   39  O   UNL     1      -6.379   5.839  67.618  1.00  0.00    -0.035 OA 
HETATM   40  O   UNL     1      -7.234   8.072  68.632  1.00  0.00    -0.077 OA 
BRANCH  34  41
HETATM   41  N   UNL     1      -8.941   4.362  66.104  1.00  0.00    -0.118 NA 
HETATM   42  C   UNL     1     -10.098   3.780  65.668  1.00  0.00     0.029 A  
HETATM   43  N   UNL     1      -9.896   3.019  64.611  1.00  0.00    -0.110 NA 
HETATM   44  C   UNL     1      -8.539   3.094  64.373  1.00  0.00    -0.094 A  
HETATM   45  C   UNL     1      -7.709   2.524  63.393  1.00  0.00    -0.064 A  
HETATM   46  N   UNL     1      -8.187   1.736  62.357  1.00  0.00    -0.059 NA 
HETATM   47  N   UNL     1      -6.377   2.755  63.462  1.00  0.00    -0.018 NA 
HETATM   48  H1  UNL     1      -7.584   1.322  61.645  1.00  0.00     0.000 HD 
HETATM   49  C   UNL     1      -5.913   3.559  64.443  1.00  0.00    -0.018 A  
HETATM   50  H2  UNL     1      -8.905   2.274  61.871  1.00  0.00     0.000 HD 
HETATM   51  N   UNL     1      -6.613   4.203  65.406  1.00  0.00    -0.043 NA 
HETATM   52  C   UNL     1      -7.922   3.905  65.312  1.00  0.00    -0.097 A  
ENDBRANCH  34  41
ENDBRANCH  31  32
ENDBRANCH  30  31
ENDBRANCH  27  30
ENDBRANCH  26  27
ENDBRANCH  23  26
ENDBRANCH  22  23
ENDBRANCH  21  22
ENDBRANCH  14  21
ENDBRANCH   8  12
ENDBRANCH   4   6
TORSDOF 11
ENDMDL
MODEL      279
REMARK 921   NORMALIZED FREE ENERGY PREDICTED BY IDOCK:   -2.28 KCAL/MOL
REMARK 922        TOTAL FREE ENERGY PREDICTED BY IDOCK:   -5.95 KCAL/MOL
REMARK 923 INTER-LIGAND FREE ENERGY PREDICTED BY IDOCK:   -6.42 KCAL/MOL
REMARK 924 INTRA-LIGAND FREE ENERGY PREDICTED BY IDOCK:    0.47 KCAL/MOL
REMARK 927      BINDING AFFINITY PREDICTED BY RF-SCORE:    0.00 PKD
ROOT
HETATM    1  N   UNL     1     -11.054  12.241  63.307  1.00  0.00    -0.675 N  
HETATM    2  H1  UNL     1     -10.501  12.796  62.654  1.00  0.00     0.000 HD 
HETATM    3  H2  UNL     1     -11.216  11.252  63.117  1.00  0.00     0.000 HD 
HETATM    4  C   UNL     1     -11.575  12.801  64.422  1.00  0.00    -0.361 C  
HETATM    5  O   UNL     1     -12.242  12.131  65.210  1.00  0.00    -0.484 OA 
ENDROOT
BRANCH   4   6
HETATM    6  C   UNL     1     -11.312  14.243  64.627  1.00  0.00    -0.375 C  
HETATM    7  C   UNL     1     -10.207  14.556  65.329  1.00  0.00    -0.402 C  
HETATM    8  N   UNL     1      -9.782  15.862  65.558  1.00  0.00    -0.414 NA 
HETATM    9  C   UNL     1     -12.176  15.317  64.026  1.00  0.00    -0.018 C  
HETATM   10  C   UNL     1     -10.637  16.896  65.159  1.00  0.00    -0.069 C  
HETATM   11  C   UNL     1     -11.759  16.703  64.451  1.00  0.00     0.552 C  
BRANCH   8  12
HETATM   12  C   UNL     1      -8.432  16.225  66.042  1.00  0.00    -0.150 C  
HETATM   13  O   UNL     1      -8.051  15.302  67.088  1.00  0.00    -0.184 OA 
HETATM   14  C   UNL     1      -8.499  15.857  68.345  1.00  0.00    -0.176 C  
HETATM   15  H   UNL     1      -6.703  18.845  67.069  1.00  0.00     0.000 HD 
HETATM   16  C   UNL     1      -8.628  17.366  68.154  1.00  0.00    -0.248 C  
HETATM   17  H   UNL     1      -7.842  19.003  68.938  1.00  0.00     0.000 HD 
HETATM   18  C   UNL     1      -8.225  17.598  66.701  1.00  0.00    -0.260 C  
HETATM   19  O   UNL     1      -7.762  18.063  69.058  1.00  0.00    -0.226 OA 
HETATM   20  O   UNL     1      -6.832  17.996  66.662  1.00  0.00    -0.179 OA 
BRANCH  14  21
HETATM   21  C   UNL     1      -9.826  15.210  68.772  1.00  0.00    -0.223 C  
BRANCH  21  22
HETATM   22  O   UNL     1     -10.114  14.061  67.985  1.00  0.00    -0.227 OA 
BRANCH  22  23
HETATM   23  P   UNL     1      -9.656  12.633  68.534  1.00  0.00     0.043 P  
HETATM   24  O   UNL     1      -8.304  12.545  69.160  1.00  0.00     0.318 OA 
HETATM   25  O   UNL     1     -10.767  12.349  69.663  1.00  0.00     0.155 OA 
BRANCH  23  26
HETATM   26  O   UNL     1     -10.015  11.561  67.430  1.00  0.00    -0.188 OA 
BRANCH  26  27
HETATM   27  P   UNL     1      -8.961  10.773  66.553  1.00  0.00    -0.166 P  
HETATM   28  O   UNL     1      -7.570  11.101  67.290  1.00  0.00    -0.113 OA 
HETATM   29  O   UNL     1      -8.853  11.120  65.108  1.00  0.00    -0.155 OA 
BRANCH  27  30
HETATM   30  O   UNL     1      -9.163   9.210  66.853  1.00  0.00    -0.140 OA 
BRANCH  30  31
HETATM   31  C   UNL     1     -10.448   8.689  67.175  1.00  0.00    -0.289 C  
BRANCH  31  32
HETATM   32  C   UNL     1     -10.482   7.928  68.497  1.00  0.00    -0.167 C  
HETATM   33  O   UNL     1     -10.174   6.533  68.308  1.00  0.00    -0.149 OA 
HETATM   34  C   UNL     1      -9.874   6.062  69.635  1.00  0.00    -0.163 C  
HETATM   35  H   UNL     1      -9.323   9.796  70.925  1.00  0.00     0.000 HD 
HETATM   36  C   UNL     1      -9.058   7.189  70.289  1.00  0.00    -0.156 C  
HETATM   37  C   UNL     1      -9.443   8.437  69.491  1.00  0.00    -0.166 C  
HETATM   38  H   UNL     1      -8.834   8.065  72.085  1.00  0.00     0.000 HD 
HETATM   39  O   UNL     1      -9.338   7.369  71.681  1.00  0.00    -0.149 OA 
HETATM   40  O   UNL     1      -9.969   9.479  70.306  1.00  0.00    -0.225 OA 
BRANCH  34  41
HETATM   41  N   UNL     1      -9.166   4.799  69.582  1.00  0.00    -0.113 NA 
HETATM   42  C   UNL     1      -9.524   3.661  68.917  1.00  0.00    -0.148 A  
HETATM   43  N   UNL     1      -8.620   2.710  69.049  1.00  0.00    -0.068 NA 
HETATM   44  C   UNL     1      -7.648   3.255  69.862  1.00  0.00    -0.044 A  
HETATM   45  C   UNL     1      -6.431   2.759  70.359  1.00  0.00    -0.028 A  
HETATM   46  N   UNL     1      -5.933   1.504  70.037  1.00  0.00    -0.022 NA 
HETATM   47  N   UNL     1      -5.708   3.541  71.195  1.00  0.00    -0.012 NA 
HETATM   48  H1  UNL     1      -5.050   1.144  70.398  1.00  0.00     0.000 HD 
HETATM   49  C   UNL     1      -6.167   4.780  71.475  1.00  0.00    -0.018 A  
HETATM   50  H2  UNL     1      -5.892   1.446  69.019  1.00  0.00     0.000 HD 
HETATM   51  N   UNL     1      -7.288   5.386  71.019  1.00  0.00    -0.080 NA 
HETATM   52  C   UNL     1      -7.984   4.548  70.228  1.00  0.00    -0.063 A  
ENDBRANCH  34  41
ENDBRANCH  31  32
ENDBRANCH  30  31
ENDBRANCH  27  30
ENDBRANCH  26  27
ENDBRANCH  23  26
ENDBRANCH  22  23
ENDBRANCH  21  22
ENDBRANCH  14  21
ENDBRANCH   8  12
ENDBRANCH   4   6
TORSDOF 11
ENDMDL
MODEL      280
REMARK 921   NORMALIZED FREE ENERGY PREDICTED BY IDOCK:   -2.19 KCAL/MOL
REMARK 922        TOTAL FREE ENERGY PREDICTED BY IDOCK:   -5.80 KCAL/MOL
REMARK 923 INTER-LIGAND FREE ENERGY PREDICTED BY IDOCK:   -4.62 KCAL/MOL
REMARK 924 INTRA-LIGAND FREE ENERGY PREDICTED BY IDOCK:   -1.18 KCAL/MOL
REMARK 927      BINDING AFFINITY PREDICTED BY RF-SCORE:    0.00 PKD
ROOT
HETATM    1  N   UNL     1      -6.165  17.029  68.863  1.00  0.00    -0.167 N  
HETATM    2  H1  UNL     1      -6.968  16.400  68.909  1.00  0.00     0.000 HD 
HETATM    3  H2  UNL     1      -5.221  16.642  68.873  1.00  0.00     0.000 HD 
HETATM    4  C   UNL     1      -6.338  18.367  68.790  1.00  0.00    -0.220 C  
HETATM    5  O   UNL     1      -5.370  19.125  68.736  1.00  0.00    -0.193 OA 
ENDROOT
BRANCH   4   6
HETATM    6  C   UNL     1      -7.735  18.858  68.794  1.00  0.00    -0.366 C  
HETATM    7  C   UNL     1      -8.502  18.490  67.750  1.00  0.00    -0.270 C  
HETATM    8  N   UNL     1      -9.851  18.813  67.632  1.00  0.00    -0.312 NA 
HETATM    9  C   UNL     1      -8.308  19.661  69.929  1.00  0.00     0.773 C  
HETATM   10  C   UNL     1     -10.387  19.693  68.579  1.00  0.00    -0.347 C  
HETATM   11  C   UNL     1      -9.720  20.120  69.660  1.00  0.00     0.261 C  
BRANCH   8  12
HETATM   12  C   UNL     1     -10.780  18.169  66.677  1.00  0.00    -0.168 C  
HETATM   13  O   UNL     1     -11.605  17.225  67.397  1.00  0.00     0.473 OA 
HETATM   14  C   UNL     1     -10.926  15.950  67.383  1.00  0.00    -0.257 C  
HETATM   15  H   UNL     1     -10.782  16.656  63.741  1.00  0.00     0.000 HD 
HETATM   16  C   UNL     1      -9.988  15.949  66.178  1.00  0.00    -0.314 C  
HETATM   17  H   UNL     1      -9.744  14.889  64.526  1.00  0.00     0.000 HD 
HETATM   18  C   UNL     1     -10.197  17.318  65.537  1.00  0.00    -0.022 C  
HETATM   19  O   UNL     1     -10.328  14.889  65.276  1.00  0.00    -0.351 OA 
HETATM   20  O   UNL     1     -11.142  17.182  64.446  1.00  0.00    -1.100 OA 
BRANCH  14  21
HETATM   21  C   UNL     1     -10.172  15.730  68.704  1.00  0.00    -0.221 C  
BRANCH  21  22
HETATM   22  O   UNL     1      -8.963  15.011  68.493  1.00  0.00    -0.172 OA 
BRANCH  22  23
HETATM   23  P   UNL     1      -8.979  13.427  68.691  1.00  0.00     0.210 P  
HETATM   24  O   UNL     1     -10.210  12.827  69.285  1.00  0.00     0.162 OA 
HETATM   25  O   UNL     1      -8.833  12.910  67.175  1.00  0.00    -0.196 OA 
BRANCH  23  26
HETATM   26  O   UNL     1      -7.592  13.011  69.324  1.00  0.00     0.166 OA 
BRANCH  26  27
HETATM   27  P   UNL     1      -6.255  12.786  68.512  1.00  0.00    -0.086 P  
HETATM   28  O   UNL     1      -5.134  13.366  69.507  1.00  0.00    -0.082 OA 
HETATM   29  O   UNL     1      -6.125  13.441  67.179  1.00  0.00    -0.274 OA 
BRANCH  27  30
HETATM   30  O   UNL     1      -5.954  11.210  68.516  1.00  0.00    -0.043 OA 
BRANCH  30  31
HETATM   31  C   UNL     1      -6.994  10.268  68.273  1.00  0.00    -0.073 C  
BRANCH  31  32
HETATM   32  C   UNL     1      -6.663   9.269  67.170  1.00  0.00    -0.076 C  
HETATM   33  O   UNL     1      -6.995   7.923  67.563  1.00  0.00    -0.071 OA 
HETATM   34  C   UNL     1      -6.990   7.190  66.323  1.00  0.00    -0.065 C  
HETATM   35  H   UNL     1      -7.268  10.570  64.225  1.00  0.00     0.000 HD 
HETATM   36  C   UNL     1      -7.649   8.125  65.297  1.00  0.00    -0.095 C  
HETATM   37  C   UNL     1      -7.458   9.522  65.894  1.00  0.00    -0.100 C  
HETATM   38  H   UNL     1      -7.475   8.625  63.357  1.00  0.00     0.000 HD 
HETATM   39  O   UNL     1      -7.069   8.046  63.991  1.00  0.00    -0.077 OA 
HETATM   40  O   UNL     1      -6.772  10.412  65.020  1.00  0.00    -0.122 OA 
BRANCH  34  41
HETATM   41  N   UNL     1      -7.683   5.926  66.474  1.00  0.00    -0.098 NA 
HETATM   42  C   UNL     1      -8.797   5.492  65.813  1.00  0.00    -0.153 A  
HETATM   43  N   UNL     1      -9.133   4.267  66.168  1.00  0.00    -0.126 NA 
HETATM   44  C   UNL     1      -8.206   3.908  67.125  1.00  0.00    -0.099 A  
HETATM   45  C   UNL     1      -8.014   2.735  67.874  1.00  0.00    -0.059 A  
HETATM   46  N   UNL     1      -8.794   1.599  67.721  1.00  0.00    -0.105 NA 
HETATM   47  N   UNL     1      -7.019   2.712  68.792  1.00  0.00    -0.044 NA 
HETATM   48  H1  UNL     1      -8.654   0.747  68.265  1.00  0.00     0.000 HD 
HETATM   49  C   UNL     1      -6.228   3.801  68.912  1.00  0.00    -0.028 A  
HETATM   50  H2  UNL     1      -8.761   1.338  66.735  1.00  0.00     0.000 HD 
HETATM   51  N   UNL     1      -6.280   4.960  68.216  1.00  0.00    -0.034 NA 
HETATM   52  C   UNL     1      -7.310   4.941  67.350  1.00  0.00    -0.078 A  
ENDBRANCH  34  41
ENDBRANCH  31  32
ENDBRANCH  30  31
ENDBRANCH  27  30
ENDBRANCH  26  27
ENDBRANCH  23  26
ENDBRANCH  22  23
ENDBRANCH  21  22
ENDBRANCH  14  21
ENDBRANCH   8  12
ENDBRANCH   4   6
TORSDOF 11
ENDMDL
MODEL      281
REMARK 921   NORMALIZED FREE ENERGY PREDICTED BY IDOCK:   -2.07 KCAL/MOL
REMARK 922        TOTAL FREE ENERGY PREDICTED BY IDOCK:   -5.60 KCAL/MOL
REMARK 923 INTER-LIGAND FREE ENERGY PREDICTED BY IDOCK:   -4.80 KCAL/MOL
REMARK 924 INTRA-LIGAND FREE ENERGY PREDICTED BY IDOCK:   -0.80 KCAL/MOL
REMARK 927      BINDING AFFINITY PREDICTED BY RF-SCORE:    0.00 PKD
ROOT
HETATM    1  N   UNL     1     -10.674   2.855  73.265  1.00  0.00    -0.167 N  
HETATM    2  H1  UNL     1     -10.492   1.875  73.045  1.00  0.00     0.000 HD 
HETATM    3  H2  UNL     1     -11.077   3.103  74.169  1.00  0.00     0.000 HD 
HETATM    4  C   UNL     1     -10.386   3.828  72.373  1.00  0.00    -0.114 C  
HETATM    5  O   UNL     1     -10.605   5.010  72.638  1.00  0.00    -0.203 OA 
ENDROOT
BRANCH   4   6
HETATM    6  C   UNL     1      -9.815   3.395  71.077  1.00  0.00    -0.136 C  
HETATM    7  C   UNL     1      -9.296   4.363  70.299  1.00  0.00    -0.148 C  
HETATM    8  N   UNL     1      -8.666   4.119  69.081  1.00  0.00    -0.082 NA 
HETATM    9  C   UNL     1      -9.740   1.950  70.668  1.00  0.00    -0.084 C  
HETATM   10  C   UNL     1      -8.715   2.812  68.582  1.00  0.00    -0.090 C  
HETATM   11  C   UNL     1      -9.202   1.770  69.271  1.00  0.00    -0.176 C  
BRANCH   8  12
HETATM   12  C   UNL     1      -7.822   5.104  68.369  1.00  0.00    -0.087 C  
HETATM   13  O   UNL     1      -8.219   6.434  68.775  1.00  0.00    -0.118 OA 
HETATM   14  C   UNL     1      -9.255   6.876  67.870  1.00  0.00    -0.124 C  
HETATM   15  H   UNL     1      -6.758   5.833  65.329  1.00  0.00     0.000 HD 
HETATM   16  C   UNL     1      -9.093   6.086  66.575  1.00  0.00    -0.146 C  
HETATM   17  H   UNL     1      -8.749   6.477  64.667  1.00  0.00     0.000 HD 
HETATM   18  C   UNL     1      -7.898   5.174  66.836  1.00  0.00    -0.100 C  
HETATM   19  O   UNL     1      -8.850   6.969  65.473  1.00  0.00    -0.083 OA 
HETATM   20  O   UNL     1      -6.711   5.790  66.278  1.00  0.00    -0.054 OA 
BRANCH  14  21
HETATM   21  C   UNL     1     -10.641   6.674  68.504  1.00  0.00    -0.233 C  
BRANCH  21  22
HETATM   22  O   UNL     1     -10.653   7.104  69.860  1.00  0.00    -0.217 OA 
BRANCH  22  23
HETATM   23  P   UNL     1     -10.915   8.649  70.163  1.00  0.00    -0.135 P  
HETATM   24  O   UNL     1     -11.699   8.980  71.388  1.00  0.00    -0.278 OA 
HETATM   25  O   UNL     1      -9.416   9.202  70.344  1.00  0.00    -0.190 OA 
BRANCH  23  26
HETATM   26  O   UNL     1     -11.365   9.330  68.810  1.00  0.00     0.128 OA 
BRANCH  26  27
HETATM   27  P   UNL     1     -11.163  10.857  68.450  1.00  0.00    -0.313 P  
HETATM   28  O   UNL     1     -12.001  11.015  67.088  1.00  0.00    -0.243 OA 
HETATM   29  O   UNL     1      -9.772  11.349  68.240  1.00  0.00    -0.187 OA 
BRANCH  27  30
HETATM   30  O   UNL     1     -12.024  11.712  69.500  1.00  0.00    -0.307 OA 
BRANCH  30  31
HETATM   31  C   UNL     1     -11.522  11.987  70.803  1.00  0.00     0.948 C  
BRANCH  31  32
HETATM   32  C   UNL     1     -11.302  13.473  71.069  1.00  0.00     1.333 C  
HETATM   33  O   UNL     1     -10.702  14.126  69.933  1.00  0.00     0.020 OA 
HETATM   34  C   UNL     1     -10.916  15.527  70.188  1.00  0.00    -0.321 C  
HETATM   35  H   UNL     1     -13.758  14.694  72.857  1.00  0.00     0.000 HD 
HETATM   36  C   UNL     1     -12.339  15.622  70.762  1.00  0.00    -0.419 C  
HETATM   37  C   UNL     1     -12.606  14.222  71.319  1.00  0.00    -0.364 C  
HETATM   38  H   UNL     1     -13.360  16.671  72.140  1.00  0.00     0.000 HD 
HETATM   39  O   UNL     1     -12.481  16.612  71.785  1.00  0.00     0.229 OA 
HETATM   40  O   UNL     1     -12.946  14.228  72.701  1.00  0.00    -0.420 OA 
BRANCH  34  41
HETATM   41  N   UNL     1     -10.734  16.300  68.976  1.00  0.00    -0.278 NA 
HETATM   42  C   UNL     1     -10.828  15.872  67.681  1.00  0.00    -0.312 A  
HETATM   43  N   UNL     1     -10.647  16.857  66.824  1.00  0.00    -0.253 NA 
HETATM   44  C   UNL     1     -10.397  17.967  67.606  1.00  0.00    -0.388 A  
HETATM   45  C   UNL     1     -10.140  19.313  67.297  1.00  0.00    -0.384 A  
HETATM   46  N   UNL     1     -10.139  19.809  66.001  1.00  0.00    -0.474 NA 
HETATM   47  N   UNL     1      -9.878  20.170  68.312  1.00  0.00    -0.330 NA 
HETATM   48  H1  UNL     1      -9.952  20.787  65.777  1.00  0.00     0.000 HD 
HETATM   49  C   UNL     1      -9.923  19.700  69.578  1.00  0.00    -0.052 A  
HETATM   50  H2  UNL     1     -11.038  19.568  65.583  1.00  0.00     0.000 HD 
HETATM   51  N   UNL     1     -10.209  18.447  70.002  1.00  0.00     0.807 NA 
HETATM   52  C   UNL     1     -10.420  17.634  68.950  1.00  0.00    -0.256 A  
ENDBRANCH  34  41
ENDBRANCH  31  32
ENDBRANCH  30  31
ENDBRANCH  27  30
ENDBRANCH  26  27
ENDBRANCH  23  26
ENDBRANCH  22  23
ENDBRANCH  21  22
ENDBRANCH  14  21
ENDBRANCH   8  12
ENDBRANCH   4   6
TORSDOF 11
ENDMDL
MODEL      282
REMARK 921   NORMALIZED FREE ENERGY PREDICTED BY IDOCK:   -1.78 KCAL/MOL
REMARK 922        TOTAL FREE ENERGY PREDICTED BY IDOCK:   -5.13 KCAL/MOL
REMARK 923 INTER-LIGAND FREE ENERGY PREDICTED BY IDOCK:   -5.25 KCAL/MOL
REMARK 924 INTRA-LIGAND FREE ENERGY PREDICTED BY IDOCK:    0.13 KCAL/MOL
REMARK 927      BINDING AFFINITY PREDICTED BY RF-SCORE:    0.00 PKD
ROOT
HETATM    1  N   UNL     1      -9.367   4.101  70.319  1.00  0.00    -0.143 N  
HETATM    2  H1  UNL     1      -9.234   4.608  69.443  1.00  0.00     0.000 HD 
HETATM    3  H2  UNL     1      -9.455   3.085  70.306  1.00  0.00     0.000 HD 
HETATM    4  C   UNL     1      -9.426   4.762  71.496  1.00  0.00    -0.153 C  
HETATM    5  O   UNL     1      -9.586   4.151  72.553  1.00  0.00    -0.129 OA 
ENDROOT
BRANCH   4   6
HETATM    6  C   UNL     1      -9.304   6.236  71.439  1.00  0.00    -0.160 C  
HETATM    7  C   UNL     1     -10.356   6.904  70.929  1.00  0.00    -0.198 C  
HETATM    8  N   UNL     1     -10.428   8.293  70.862  1.00  0.00    -0.194 NA 
HETATM    9  C   UNL     1      -8.112   6.972  71.986  1.00  0.00    -0.097 C  
HETATM   10  C   UNL     1      -9.280   9.016  71.208  1.00  0.00    -0.244 C  
HETATM   11  C   UNL     1      -8.179   8.457  71.730  1.00  0.00    -0.200 C  
BRANCH   8  12
HETATM   12  C   UNL     1     -11.675   9.049  70.607  1.00  0.00    -0.198 C  
HETATM   13  O   UNL     1     -12.118   8.771  69.260  1.00  0.00     1.271 OA 
HETATM   14  C   UNL     1     -11.511   9.750  68.388  1.00  0.00     0.239 C  
HETATM   15  H   UNL     1     -12.921  12.093  70.898  1.00  0.00     0.000 HD 
HETATM   16  C   UNL     1     -11.171  10.968  69.242  1.00  0.00    -0.257 C  
HETATM   17  H   UNL     1     -11.650  12.887  69.294  1.00  0.00     0.000 HD 
HETATM   18  C   UNL     1     -11.630  10.585  70.646  1.00  0.00    -0.352 C  
HETATM   19  O   UNL     1     -11.862  12.128  68.762  1.00  0.00    -0.305 OA 
HETATM   20  O   UNL     1     -12.948  11.144  70.874  1.00  0.00    -0.297 OA 
BRANCH  14  21
HETATM   21  C   UNL     1     -10.269   9.158  67.702  1.00  0.00    -0.236 C  
BRANCH  21  22
HETATM   22  O   UNL     1      -9.270  10.151  67.502  1.00  0.00    -0.137 OA 
BRANCH  22  23
HETATM   23  P   UNL     1      -9.209  10.889  66.087  1.00  0.00    -0.198 P  
HETATM   24  O   UNL     1      -7.924  11.553  65.721  1.00  0.00     0.138 OA 
HETATM   25  O   UNL     1      -9.467   9.668  65.074  1.00  0.00    -0.261 OA 
BRANCH  23  26
HETATM   26  O   UNL     1     -10.532  11.740  65.936  1.00  0.00    -0.238 OA 
BRANCH  26  27
HETATM   27  P   UNL     1     -10.718  12.963  64.951  1.00  0.00    -0.349 P  
HETATM   28  O   UNL     1     -12.314  13.048  64.788  1.00  0.00    -0.403 OA 
HETATM   29  O   UNL     1     -10.083  12.880  63.604  1.00  0.00    -0.339 OA 
BRANCH  27  30
HETATM   30  O   UNL     1     -10.371  14.295  65.774  1.00  0.00    -0.299 OA 
BRANCH  30  31
HETATM   31  C   UNL     1     -10.708  15.579  65.260  1.00  0.00    -0.422 C  
BRANCH  31  32
HETATM   32  C   UNL     1     -10.440  16.716  66.241  1.00  0.00    -0.268 C  
HETATM   33  O   UNL     1     -11.166  16.529  67.472  1.00  0.00    -0.152 OA 
HETATM   34  C   UNL     1     -10.526  17.436  68.391  1.00  0.00    -0.384 C  
HETATM   35  H   UNL     1      -7.326  17.705  66.028  1.00  0.00     0.000 HD 
HETATM   36  C   UNL     1      -9.023  17.326  68.087  1.00  0.00    -0.254 C  
HETATM   37  C   UNL     1      -8.974  16.803  66.649  1.00  0.00    -0.250 C  
HETATM   38  H   UNL     1      -7.393  18.500  68.013  1.00  0.00     0.000 HD 
HETATM   39  O   UNL     1      -8.322  18.567  68.201  1.00  0.00    -0.279 OA 
HETATM   40  O   UNL     1      -8.239  17.651  65.774  1.00  0.00    -0.543 OA 
BRANCH  34  41
HETATM   41  N   UNL     1     -10.861  17.096  69.759  1.00  0.00     0.036 NA 
HETATM   42  C   UNL     1     -10.531  17.772  70.900  1.00  0.00     2.322 A  
HETATM   43  N   UNL     1     -11.041  17.201  71.974  1.00  0.00     1.075 NA 
HETATM   44  C   UNL     1     -11.708  16.089  71.502  1.00  0.00    -0.484 A  
HETATM   45  C   UNL     1     -12.459  15.087  72.138  1.00  0.00    -0.344 A  
HETATM   46  N   UNL     1     -12.718  15.079  73.501  1.00  0.00    -0.528 NA 
HETATM   47  N   UNL     1     -12.955  14.077  71.384  1.00  0.00    -0.338 NA 
HETATM   48  H1  UNL     1     -13.264  14.351  73.962  1.00  0.00     0.000 HD 
HETATM   49  C   UNL     1     -12.744  14.105  70.051  1.00  0.00    -0.103 A  
HETATM   50  H2  UNL     1     -13.148  15.975  73.733  1.00  0.00     0.000 HD 
HETATM   51  N   UNL     1     -12.087  15.036  69.321  1.00  0.00    -0.278 NA 
HETATM   52  C   UNL     1     -11.583  15.991  70.126  1.00  0.00    -0.317 A  
ENDBRANCH  34  41
ENDBRANCH  31  32
ENDBRANCH  30  31
ENDBRANCH  27  30
ENDBRANCH  26  27
ENDBRANCH  23  26
ENDBRANCH  22  23
ENDBRANCH  21  22
ENDBRANCH  14  21
ENDBRANCH   8  12
ENDBRANCH   4   6
TORSDOF 11
ENDMDL
MODEL      283
REMARK 921   NORMALIZED FREE ENERGY PREDICTED BY IDOCK:   -1.74 KCAL/MOL
REMARK 922        TOTAL FREE ENERGY PREDICTED BY IDOCK:   -5.07 KCAL/MOL
REMARK 923 INTER-LIGAND FREE ENERGY PREDICTED BY IDOCK:   -5.25 KCAL/MOL
REMARK 924 INTRA-LIGAND FREE ENERGY PREDICTED BY IDOCK:    0.18 KCAL/MOL
REMARK 927      BINDING AFFINITY PREDICTED BY RF-SCORE:    0.00 PKD
ROOT
HETATM    1  N   UNL     1      -7.175   7.205  70.480  1.00  0.00    -0.066 N  
HETATM    2  H1  UNL     1      -7.844   6.471  70.715  1.00  0.00     0.000 HD 
HETATM    3  H2  UNL     1      -6.190   6.969  70.361  1.00  0.00     0.000 HD 
HETATM    4  C   UNL     1      -7.579   8.485  70.325  1.00  0.00    -0.075 C  
HETATM    5  O   UNL     1      -6.771   9.370  70.042  1.00  0.00    -0.051 OA 
ENDROOT
BRANCH   4   6
HETATM    6  C   UNL     1      -9.020   8.757  70.526  1.00  0.00    -0.203 C  
HETATM    7  C   UNL     1      -9.569   9.695  69.731  1.00  0.00    -0.219 C  
HETATM    8  N   UNL     1     -10.921  10.025  69.748  1.00  0.00    -0.260 NA 
HETATM    9  C   UNL     1      -9.861   7.984  71.505  1.00  0.00    -0.217 C  
HETATM   10  C   UNL     1     -11.712   9.452  70.750  1.00  0.00    -0.282 C  
HETATM   11  C   UNL     1     -11.274   8.505  71.593  1.00  0.00    -0.361 C  
BRANCH   8  12
HETATM   12  C   UNL     1     -11.599  10.807  68.690  1.00  0.00    -0.272 C  
HETATM   13  O   UNL     1     -11.432  10.122  67.428  1.00  0.00    -0.212 OA 
HETATM   14  C   UNL     1     -10.217  10.616  66.820  1.00  0.00    -0.233 C  
HETATM   15  H   UNL     1     -11.811  13.892  67.532  1.00  0.00     0.000 HD 
HETATM   16  C   UNL     1      -9.948  11.999  67.405  1.00  0.00    -0.191 C  
HETATM   17  H   UNL     1      -9.766  13.851  66.735  1.00  0.00     0.000 HD 
HETATM   18  C   UNL     1     -11.098  12.227  68.382  1.00  0.00    -0.243 C  
HETATM   19  O   UNL     1      -9.934  12.990  66.370  1.00  0.00    -0.263 OA 
HETATM   20  O   UNL     1     -12.121  13.014  67.722  1.00  0.00    -0.318 OA 
BRANCH  14  21
HETATM   21  C   UNL     1      -9.057   9.641  67.077  1.00  0.00    -0.135 C  
BRANCH  21  22
HETATM   22  O   UNL     1      -8.457   9.223  65.856  1.00  0.00    -0.123 OA 
BRANCH  22  23
HETATM   23  P   UNL     1      -6.927   9.596  65.597  1.00  0.00    -0.107 P  
HETATM   24  O   UNL     1      -6.621  10.423  64.394  1.00  0.00    -0.106 OA 
HETATM   25  O   UNL     1      -6.575  10.450  66.914  1.00  0.00    -0.072 OA 
BRANCH  23  26
HETATM   26  O   UNL     1      -6.074   8.283  65.809  1.00  0.00    -0.044 OA 
BRANCH  26  27
HETATM   27  P   UNL     1      -6.672   6.829  65.978  1.00  0.00    -0.054 P  
HETATM   28  O   UNL     1      -7.691   6.719  64.740  1.00  0.00    -0.097 OA 
HETATM   29  O   UNL     1      -7.391   6.510  67.244  1.00  0.00    -0.083 OA 
BRANCH  27  30
HETATM   30  O   UNL     1      -5.517   5.788  65.583  1.00  0.00    -0.012 OA 
BRANCH  30  31
HETATM   31  C   UNL     1      -5.729   4.813  64.568  1.00  0.00    -0.014 C  
BRANCH  31  32
HETATM   32  C   UNL     1      -6.594   3.641  65.023  1.00  0.00    -0.040 C  
HETATM   33  O   UNL     1      -6.520   3.456  66.450  1.00  0.00    -0.035 OA 
HETATM   34  C   UNL     1      -7.644   2.606  66.747  1.00  0.00    -0.071 C  
HETATM   35  H   UNL     1      -9.343   3.492  63.249  1.00  0.00     0.000 HD 
HETATM   36  C   UNL     1      -8.789   3.126  65.862  1.00  0.00    -0.139 C  
HETATM   37  C   UNL     1      -8.073   3.857  64.723  1.00  0.00    -0.093 C  
HETATM   38  H   UNL     1     -10.343   2.414  64.804  1.00  0.00     0.000 HD 
HETATM   39  O   UNL     1      -9.636   2.093  65.351  1.00  0.00     0.030 OA 
HETATM   40  O   UNL     1      -8.422   3.358  63.436  1.00  0.00    -0.089 OA 
BRANCH  34  41
HETATM   41  N   UNL     1      -7.952   2.642  68.162  1.00  0.00    -0.058 NA 
HETATM   42  C   UNL     1      -9.044   2.125  68.800  1.00  0.00    -0.139 A  
HETATM   43  N   UNL     1      -8.978   2.301  70.106  1.00  0.00    -0.083 NA 
HETATM   44  C   UNL     1      -7.800   2.989  70.313  1.00  0.00    -0.043 A  
HETATM   45  C   UNL     1      -7.161   3.459  71.472  1.00  0.00    -0.036 A  
HETATM   46  N   UNL     1      -7.651   3.241  72.752  1.00  0.00    -0.050 NA 
HETATM   47  N   UNL     1      -6.011   4.160  71.336  1.00  0.00    -0.013 NA 
HETATM   48  H1  UNL     1      -7.187   3.582  73.594  1.00  0.00     0.000 HD 
HETATM   49  C   UNL     1      -5.508   4.335  70.095  1.00  0.00    -0.012 A  
HETATM   50  H2  UNL     1      -7.778   2.234  72.862  1.00  0.00     0.000 HD 
HETATM   51  N   UNL     1      -5.999   3.889  68.916  1.00  0.00    -0.023 NA 
HETATM   52  C   UNL     1      -7.160   3.236  69.109  1.00  0.00    -0.048 A  
ENDBRANCH  34  41
ENDBRANCH  31  32
ENDBRANCH  30  31
ENDBRANCH  27  30
ENDBRANCH  26  27
ENDBRANCH  23  26
ENDBRANCH  22  23
ENDBRANCH  21  22
ENDBRANCH  14  21
ENDBRANCH   8  12
ENDBRANCH   4   6
TORSDOF 11
ENDMDL
MODEL      284
REMARK 921   NORMALIZED FREE ENERGY PREDICTED BY IDOCK:   -1.64 KCAL/MOL
REMARK 922        TOTAL FREE ENERGY PREDICTED BY IDOCK:   -4.89 KCAL/MOL
REMARK 923 INTER-LIGAND FREE ENERGY PREDICTED BY IDOCK:   -5.08 KCAL/MOL
REMARK 924 INTRA-LIGAND FREE ENERGY PREDICTED BY IDOCK:    0.19 KCAL/MOL
REMARK 927      BINDING AFFINITY PREDICTED BY RF-SCORE:    0.00 PKD
ROOT
HETATM    1  N   UNL     1     -10.790  15.462  69.265  1.00  0.00    -0.238 N  
HETATM    2  H1  UNL     1     -10.671  15.176  68.293  1.00  0.00     0.000 HD 
HETATM    3  H2  UNL     1     -10.510  16.399  69.554  1.00  0.00     0.000 HD 
HETATM    4  C   UNL     1     -11.316  14.612  70.176  1.00  0.00    -0.225 C  
HETATM    5  O   UNL     1     -11.459  14.957  71.349  1.00  0.00    -0.331 OA 
ENDROOT
BRANCH   4   6
HETATM    6  C   UNL     1     -11.688  13.264  69.690  1.00  0.00    -0.369 C  
HETATM    7  C   UNL     1     -11.676  13.084  68.356  1.00  0.00    -0.351 C  
HETATM    8  N   UNL     1     -11.939  11.863  67.740  1.00  0.00    -0.573 NA 
HETATM    9  C   UNL     1     -11.990  12.123  70.622  1.00  0.00    -0.233 C  
HETATM   10  C   UNL     1     -12.383  10.814  68.553  1.00  0.00     0.669 C  
HETATM   11  C   UNL     1     -12.430  10.878  69.892  1.00  0.00    -0.292 C  
BRANCH   8  12
HETATM   12  C   UNL     1     -11.629  11.562  66.325  1.00  0.00     0.071 C  
HETATM   13  O   UNL     1     -10.221  11.255  66.213  1.00  0.00    -0.221 OA 
HETATM   14  C   UNL     1      -9.522  12.494  65.959  1.00  0.00    -0.152 C  
HETATM   15  H   UNL     1     -12.088  12.788  63.292  1.00  0.00     0.000 HD 
HETATM   16  C   UNL     1     -10.525  13.460  65.336  1.00  0.00    -0.302 C  
HETATM   17  H   UNL     1     -10.717  14.465  63.643  1.00  0.00     0.000 HD 
HETATM   18  C   UNL     1     -11.826  12.666  65.273  1.00  0.00    -0.408 C  
HETATM   19  O   UNL     1     -10.092  13.863  64.030  1.00  0.00     0.129 OA 
HETATM   20  O   UNL     1     -11.966  12.106  63.943  1.00  0.00    -0.424 OA 
BRANCH  14  21
HETATM   21  C   UNL     1      -8.917  13.044  67.260  1.00  0.00    -0.212 C  
BRANCH  21  22
HETATM   22  O   UNL     1      -8.290  12.012  68.011  1.00  0.00    -0.145 OA 
BRANCH  22  23
HETATM   23  P   UNL     1      -6.699  12.039  68.155  1.00  0.00    -0.081 P  
HETATM   24  O   UNL     1      -6.102  13.185  68.899  1.00  0.00    -0.074 OA 
HETATM   25  O   UNL     1      -6.427  10.687  68.982  1.00  0.00    -0.048 OA 
BRANCH  23  26
HETATM   26  O   UNL     1      -6.088  11.697  66.738  1.00  0.00    -0.144 OA 
BRANCH  26  27
HETATM   27  P   UNL     1      -6.365  10.369  65.925  1.00  0.00    -0.130 P  
HETATM   28  O   UNL     1      -5.277  10.442  64.745  1.00  0.00    -0.101 OA 
HETATM   29  O   UNL     1      -7.722  10.176  65.341  1.00  0.00    -0.132 OA 
BRANCH  27  30
HETATM   30  O   UNL     1      -5.840   9.145  66.819  1.00  0.00    -0.050 OA 
BRANCH  30  31
HETATM   31  C   UNL     1      -5.298   7.977  66.212  1.00  0.00    -0.025 C  
BRANCH  31  32
HETATM   32  C   UNL     1      -6.353   6.938  65.844  1.00  0.00    -0.050 C  
HETATM   33  O   UNL     1      -7.258   6.698  66.939  1.00  0.00    -0.074 OA 
HETATM   34  C   UNL     1      -8.371   6.021  66.325  1.00  0.00    -0.122 C  
HETATM   35  H   UNL     1      -7.242   7.269  62.709  1.00  0.00     0.000 HD 
HETATM   36  C   UNL     1      -8.590   6.739  64.983  1.00  0.00     0.100 C  
HETATM   37  C   UNL     1      -7.236   7.387  64.685  1.00  0.00    -0.069 C  
HETATM   38  H   UNL     1      -9.116   6.307  63.091  1.00  0.00     0.000 HD 
HETATM   39  O   UNL     1      -8.981   5.864  63.920  1.00  0.00     0.325 OA 
HETATM   40  O   UNL     1      -6.693   6.989  63.431  1.00  0.00    -0.043 OA 
BRANCH  34  41
HETATM   41  N   UNL     1      -9.532   6.059  67.191  1.00  0.00    -0.115 NA 
HETATM   42  C   UNL     1     -10.848   5.943  66.841  1.00  0.00    -0.296 A  
HETATM   43  N   UNL     1     -11.641   5.977  67.895  1.00  0.00     0.707 NA 
HETATM   44  C   UNL     1     -10.794   6.151  68.971  1.00  0.00    -0.350 A  
HETATM   45  C   UNL     1     -11.018   6.252  70.354  1.00  0.00    -0.322 A  
HETATM   46  N   UNL     1     -12.274   6.134  70.932  1.00  0.00     0.189 NA 
HETATM   47  N   UNL     1      -9.957   6.476  71.164  1.00  0.00    -0.182 NA 
HETATM   48  H1  UNL     1     -12.436   6.207  71.936  1.00  0.00     0.000 HD 
HETATM   49  C   UNL     1      -8.727   6.546  70.610  1.00  0.00    -0.144 A  
HETATM   50  H2  UNL     1     -12.668   5.244  70.624  1.00  0.00     0.000 HD 
HETATM   51  N   UNL     1      -8.381   6.413  69.309  1.00  0.00    -0.121 NA 
HETATM   52  C   UNL     1      -9.477   6.233  68.549  1.00  0.00    -0.123 A  
ENDBRANCH  34  41
ENDBRANCH  31  32
ENDBRANCH  30  31
ENDBRANCH  27  30
ENDBRANCH  26  27
ENDBRANCH  23  26
ENDBRANCH  22  23
ENDBRANCH  21  22
ENDBRANCH  14  21
ENDBRANCH   8  12
ENDBRANCH   4   6
TORSDOF 11
ENDMDL
MODEL      285
REMARK 921   NORMALIZED FREE ENERGY PREDICTED BY IDOCK:   -1.62 KCAL/MOL
REMARK 922        TOTAL FREE ENERGY PREDICTED BY IDOCK:   -4.86 KCAL/MOL
REMARK 923 INTER-LIGAND FREE ENERGY PREDICTED BY IDOCK:   -5.50 KCAL/MOL
REMARK 924 INTRA-LIGAND FREE ENERGY PREDICTED BY IDOCK:    0.64 KCAL/MOL
REMARK 927      BINDING AFFINITY PREDICTED BY RF-SCORE:    0.00 PKD
ROOT
HETATM    1  N   UNL     1     -14.410  15.967  70.337  1.00  0.00     0.574 N  
HETATM    2  H1  UNL     1     -14.155  16.764  69.753  1.00  0.00     0.000 HD 
HETATM    3  H2  UNL     1     -15.382  15.839  70.619  1.00  0.00     0.000 HD 
HETATM    4  C   UNL     1     -13.475  15.079  70.741  1.00  0.00    -0.270 C  
HETATM    5  O   UNL     1     -13.782  14.118  71.445  1.00  0.00    -0.342 OA 
ENDROOT
BRANCH   4   6
HETATM    6  C   UNL     1     -12.083  15.335  70.306  1.00  0.00    -0.388 C  
HETATM    7  C   UNL     1     -11.917  15.720  69.027  1.00  0.00    -0.278 C  
HETATM    8  N   UNL     1     -10.683  16.060  68.477  1.00  0.00    -0.271 NA 
HETATM    9  C   UNL     1     -10.912  15.250  71.246  1.00  0.00    -0.210 C  
HETATM   10  C   UNL     1      -9.546  15.842  69.263  1.00  0.00    -0.270 C  
HETATM   11  C   UNL     1      -9.591  15.464  70.549  1.00  0.00     0.781 C  
BRANCH   8  12
HETATM   12  C   UNL     1     -10.514  16.778  67.194  1.00  0.00    -0.299 C  
HETATM   13  O   UNL     1     -10.174  15.819  66.167  1.00  0.00    -0.279 OA 
HETATM   14  C   UNL     1      -8.734  15.706  66.134  1.00  0.00    -0.206 C  
HETATM   15  H   UNL     1      -8.970  19.404  65.920  1.00  0.00     0.000 HD 
HETATM   16  C   UNL     1      -8.165  16.998  66.714  1.00  0.00    -0.238 C  
HETATM   17  H   UNL     1      -6.992  18.471  66.107  1.00  0.00     0.000 HD 
HETATM   18  C   UNL     1      -9.396  17.825  67.073  1.00  0.00    -0.259 C  
HETATM   19  O   UNL     1      -7.347  17.666  65.746  1.00  0.00    -0.486 OA 
HETATM   20  O   UNL     1      -9.662  18.757  65.995  1.00  0.00    -0.477 OA 
BRANCH  14  21
HETATM   21  C   UNL     1      -8.277  14.467  66.920  1.00  0.00    -0.016 C  
BRANCH  21  22
HETATM   22  O   UNL     1      -7.444  14.830  68.014  1.00  0.00    -0.107 OA 
BRANCH  22  23
HETATM   23  P   UNL     1      -6.103  13.998  68.255  1.00  0.00    -0.144 P  
HETATM   24  O   UNL     1      -5.358  13.541  67.045  1.00  0.00    -0.103 OA 
HETATM   25  O   UNL     1      -5.198  15.065  69.047  1.00  0.00    -0.096 OA 
BRANCH  23  26
HETATM   26  O   UNL     1      -6.406  12.918  69.369  1.00  0.00    -0.103 OA 
BRANCH  26  27
HETATM   27  P   UNL     1      -6.978  11.469  69.097  1.00  0.00    -0.063 P  
HETATM   28  O   UNL     1      -6.848  10.762  70.534  1.00  0.00    -0.285 OA 
HETATM   29  O   UNL     1      -6.303  10.631  68.066  1.00  0.00    -0.057 OA 
BRANCH  27  30
HETATM   30  O   UNL     1      -8.565  11.611  68.911  1.00  0.00    -0.067 OA 
BRANCH  30  31
HETATM   31  C   UNL     1      -9.418  10.478  69.036  1.00  0.00    -0.201 C  
BRANCH  31  32
HETATM   32  C   UNL     1      -9.004   9.305  68.153  1.00  0.00    -0.128 C  
HETATM   33  O   UNL     1      -8.264   8.320  68.901  1.00  0.00    -0.114 OA 
HETATM   34  C   UNL     1      -8.290   7.154  68.057  1.00  0.00    -0.119 C  
HETATM   35  H   UNL     1     -11.347   8.632  65.966  1.00  0.00     0.000 HD 
HETATM   36  C   UNL     1      -9.711   7.108  67.473  1.00  0.00    -0.142 C  
HETATM   37  C   UNL     1     -10.200   8.555  67.577  1.00  0.00    -0.242 C  
HETATM   38  H   UNL     1     -10.640   6.623  65.757  1.00  0.00     0.000 HD 
HETATM   39  O   UNL     1      -9.762   6.650  66.119  1.00  0.00    -0.061 OA 
HETATM   40  O   UNL     1     -10.602   9.099  66.325  1.00  0.00    -0.101 OA 
BRANCH  34  41
HETATM   41  N   UNL     1      -7.943   5.968  68.814  1.00  0.00    -0.103 NA 
HETATM   42  C   UNL     1      -8.492   4.720  68.723  1.00  0.00    -0.081 A  
HETATM   43  N   UNL     1      -7.902   3.863  69.534  1.00  0.00    -0.052 NA 
HETATM   44  C   UNL     1      -6.946   4.604  70.198  1.00  0.00    -0.048 A  
HETATM   45  C   UNL     1      -5.989   4.273  71.172  1.00  0.00    -0.014 A  
HETATM   46  N   UNL     1      -5.802   2.983  71.647  1.00  0.00    -0.012 NA 
HETATM   47  N   UNL     1      -5.211   5.261  71.674  1.00  0.00    -0.005 NA 
HETATM   48  H1  UNL     1      -5.107   2.742  72.354  1.00  0.00     0.000 HD 
HETATM   49  C   UNL     1      -5.360   6.510  71.182  1.00  0.00    -0.023 A  
HETATM   50  H2  UNL     1      -5.633   2.383  70.838  1.00  0.00     0.000 HD 
HETATM   51  N   UNL     1      -6.202   6.939  70.214  1.00  0.00    -0.030 NA 
HETATM   52  C   UNL     1      -6.975   5.926  69.783  1.00  0.00    -0.066 A  
ENDBRANCH  34  41
ENDBRANCH  31  32
ENDBRANCH  30  31
ENDBRANCH  27  30
ENDBRANCH  26  27
ENDBRANCH  23  26
ENDBRANCH  22  23
ENDBRANCH  21  22
ENDBRANCH  14  21
ENDBRANCH   8  12
ENDBRANCH   4   6
TORSDOF 11
ENDMDL
MODEL      286
REMARK 921   NORMALIZED FREE ENERGY PREDICTED BY IDOCK:   -1.59 KCAL/MOL
REMARK 922        TOTAL FREE ENERGY PREDICTED BY IDOCK:   -4.82 KCAL/MOL
REMARK 923 INTER-LIGAND FREE ENERGY PREDICTED BY IDOCK:   -5.68 KCAL/MOL
REMARK 924 INTRA-LIGAND FREE ENERGY PREDICTED BY IDOCK:    0.86 KCAL/MOL
REMARK 927      BINDING AFFINITY PREDICTED BY RF-SCORE:    0.00 PKD
ROOT
HETATM    1  N   UNL     1     -14.410  15.967  70.337  1.00  0.00     0.574 N  
HETATM    2  H1  UNL     1     -14.155  16.764  69.753  1.00  0.00     0.000 HD 
HETATM    3  H2  UNL     1     -15.382  15.839  70.619  1.00  0.00     0.000 HD 
HETATM    4  C   UNL     1     -13.475  15.079  70.741  1.00  0.00    -0.270 C  
HETATM    5  O   UNL     1     -13.782  14.118  71.445  1.00  0.00    -0.342 OA 
ENDROOT
BRANCH   4   6
HETATM    6  C   UNL     1     -12.083  15.335  70.306  1.00  0.00    -0.388 C  
HETATM    7  C   UNL     1     -11.917  15.720  69.027  1.00  0.00    -0.278 C  
HETATM    8  N   UNL     1     -10.683  16.060  68.477  1.00  0.00    -0.271 NA 
HETATM    9  C   UNL     1     -10.912  15.250  71.246  1.00  0.00    -0.210 C  
HETATM   10  C   UNL     1      -9.546  15.842  69.263  1.00  0.00    -0.270 C  
HETATM   11  C   UNL     1      -9.591  15.464  70.549  1.00  0.00     0.781 C  
BRANCH   8  12
HETATM   12  C   UNL     1     -10.514  16.778  67.194  1.00  0.00    -0.299 C  
HETATM   13  O   UNL     1     -10.174  15.819  66.167  1.00  0.00    -0.279 OA 
HETATM   14  C   UNL     1      -8.734  15.706  66.134  1.00  0.00    -0.206 C  
HETATM   15  H   UNL     1      -8.970  19.404  65.920  1.00  0.00     0.000 HD 
HETATM   16  C   UNL     1      -8.165  16.998  66.714  1.00  0.00    -0.238 C  
HETATM   17  H   UNL     1      -6.992  18.471  66.107  1.00  0.00     0.000 HD 
HETATM   18  C   UNL     1      -9.396  17.825  67.073  1.00  0.00    -0.259 C  
HETATM   19  O   UNL     1      -7.347  17.666  65.746  1.00  0.00    -0.486 OA 
HETATM   20  O   UNL     1      -9.662  18.757  65.995  1.00  0.00    -0.477 OA 
BRANCH  14  21
HETATM   21  C   UNL     1      -8.277  14.467  66.920  1.00  0.00    -0.016 C  
BRANCH  21  22
HETATM   22  O   UNL     1      -7.444  14.830  68.014  1.00  0.00    -0.107 OA 
BRANCH  22  23
HETATM   23  P   UNL     1      -6.103  13.998  68.255  1.00  0.00    -0.144 P  
HETATM   24  O   UNL     1      -5.358  13.541  67.045  1.00  0.00    -0.103 OA 
HETATM   25  O   UNL     1      -5.198  15.065  69.047  1.00  0.00    -0.096 OA 
BRANCH  23  26
HETATM   26  O   UNL     1      -6.406  12.918  69.369  1.00  0.00    -0.103 OA 
BRANCH  26  27
HETATM   27  P   UNL     1      -6.978  11.469  69.097  1.00  0.00    -0.063 P  
HETATM   28  O   UNL     1      -8.433  11.530  69.777  1.00  0.00     0.855 OA 
HETATM   29  O   UNL     1      -6.222  10.305  69.640  1.00  0.00    -0.046 OA 
BRANCH  27  30
HETATM   30  O   UNL     1      -7.318  11.376  67.533  1.00  0.00    -0.100 OA 
BRANCH  30  31
HETATM   31  C   UNL     1      -8.191  10.368  67.034  1.00  0.00    -0.123 C  
BRANCH  31  32
HETATM   32  C   UNL     1      -7.790   8.956  67.452  1.00  0.00    -0.097 C  
HETATM   33  O   UNL     1      -8.568   8.501  68.577  1.00  0.00    -0.136 OA 
HETATM   34  C   UNL     1      -8.351   7.077  68.593  1.00  0.00    -0.122 C  
HETATM   35  H   UNL     1      -7.051   7.148  64.824  1.00  0.00     0.000 HD 
HETATM   36  C   UNL     1      -8.376   6.647  67.117  1.00  0.00    -0.113 C  
HETATM   37  C   UNL     1      -8.035   7.929  66.353  1.00  0.00    -0.102 C  
HETATM   38  H   UNL     1      -7.461   5.341  65.894  1.00  0.00     0.000 HD 
HETATM   39  O   UNL     1      -7.445   5.606  66.806  1.00  0.00    -0.085 OA 
HETATM   40  O   UNL     1      -6.898   7.788  65.509  1.00  0.00    -0.051 OA 
BRANCH  34  41
HETATM   41  N   UNL     1      -9.357   6.417  69.400  1.00  0.00    -0.142 NA 
HETATM   42  C   UNL     1      -9.989   5.231  69.153  1.00  0.00    -0.205 A  
HETATM   43  N   UNL     1     -10.818   4.905  70.125  1.00  0.00     0.273 NA 
HETATM   44  C   UNL     1     -10.735   5.946  71.027  1.00  0.00    -0.267 A  
HETATM   45  C   UNL     1     -11.356   6.189  72.263  1.00  0.00    -0.300 A  
HETATM   46  N   UNL     1     -12.224   5.291  72.868  1.00  0.00    -0.403 NA 
HETATM   47  N   UNL     1     -11.096   7.357  72.897  1.00  0.00    -0.343 NA 
HETATM   48  H1  UNL     1     -12.674   5.468  73.766  1.00  0.00     0.000 HD 
HETATM   49  C   UNL     1     -10.218   8.214  72.333  1.00  0.00    -0.298 A  
HETATM   50  H2  UNL     1     -11.733   4.399  72.944  1.00  0.00     0.000 HD 
HETATM   51  N   UNL     1      -9.521   8.070  71.182  1.00  0.00    -0.151 NA 
HETATM   52  C   UNL     1      -9.849   6.912  70.578  1.00  0.00    -0.179 A  
ENDBRANCH  34  41
ENDBRANCH  31  32
ENDBRANCH  30  31
ENDBRANCH  27  30
ENDBRANCH  26  27
ENDBRANCH  23  26
ENDBRANCH  22  23
ENDBRANCH  21  22
ENDBRANCH  14  21
ENDBRANCH   8  12
ENDBRANCH   4   6
TORSDOF 11
ENDMDL
MODEL      287
REMARK 921   NORMALIZED FREE ENERGY PREDICTED BY IDOCK:   -1.44 KCAL/MOL
REMARK 922        TOTAL FREE ENERGY PREDICTED BY IDOCK:   -4.56 KCAL/MOL
REMARK 923 INTER-LIGAND FREE ENERGY PREDICTED BY IDOCK:   -3.86 KCAL/MOL
REMARK 924 INTRA-LIGAND FREE ENERGY PREDICTED BY IDOCK:   -0.71 KCAL/MOL
REMARK 927      BINDING AFFINITY PREDICTED BY RF-SCORE:    0.00 PKD
ROOT
HETATM    1  N   UNL     1     -10.583   9.636  65.991  1.00  0.00     0.032 N  
HETATM    2  H1  UNL     1     -10.147   8.808  66.398  1.00  0.00     0.000 HD 
HETATM    3  H2  UNL     1     -11.319   9.528  65.294  1.00  0.00     0.000 HD 
HETATM    4  C   UNL     1     -10.195  10.875  66.366  1.00  0.00    -0.238 C  
HETATM    5  O   UNL     1     -10.720  11.875  65.876  1.00  0.00    -0.265 OA 
ENDROOT
BRANCH   4   6
HETATM    6  C   UNL     1      -9.112  10.957  67.372  1.00  0.00    -0.144 C  
HETATM    7  C   UNL     1      -8.464   9.811  67.649  1.00  0.00    -0.122 C  
HETATM    8  N   UNL     1      -7.382   9.726  68.522  1.00  0.00    -0.074 NA 
HETATM    9  C   UNL     1      -8.691  12.256  68.005  1.00  0.00    -0.181 C  
HETATM   10  C   UNL     1      -7.057  10.873  69.257  1.00  0.00    -0.124 C  
HETATM   11  C   UNL     1      -7.631  12.069  69.062  1.00  0.00     0.056 C  
BRANCH   8  12
HETATM   12  C   UNL     1      -6.467   8.567  68.602  1.00  0.00    -0.054 C  
HETATM   13  O   UNL     1      -6.910   7.560  67.666  1.00  0.00    -0.067 OA 
HETATM   14  C   UNL     1      -7.840   6.697  68.358  1.00  0.00    -0.107 C  
HETATM   15  H   UNL     1      -5.070   6.564  70.826  1.00  0.00     0.000 HD 
HETATM   16  C   UNL     1      -7.531   6.803  69.849  1.00  0.00    -0.095 C  
HETATM   17  H   UNL     1      -6.976   5.589  71.309  1.00  0.00     0.000 HD 
HETATM   18  C   UNL     1      -6.370   7.790  69.925  1.00  0.00    -0.030 C  
HETATM   19  O   UNL     1      -7.168   5.522  70.380  1.00  0.00    -0.062 OA 
HETATM   20  O   UNL     1      -5.130   7.044  70.008  1.00  0.00    -0.014 OA 
BRANCH  14  21
HETATM   21  C   UNL     1      -9.287   7.101  68.036  1.00  0.00    -0.129 C  
BRANCH  21  22
HETATM   22  O   UNL     1      -9.936   7.646  69.178  1.00  0.00    -0.172 OA 
BRANCH  22  23
HETATM   23  P   UNL     1     -11.472   7.286  69.422  1.00  0.00     0.454 P  
HETATM   24  O   UNL     1     -12.356   7.223  68.221  1.00  0.00     2.626 OA 
HETATM   25  O   UNL     1     -11.361   5.813  70.059  1.00  0.00    -0.285 OA 
BRANCH  23  26
HETATM   26  O   UNL     1     -11.975   8.147  70.648  1.00  0.00    -0.185 OA 
BRANCH  26  27
HETATM   27  P   UNL     1     -11.587   9.656  70.917  1.00  0.00    -0.392 P  
HETATM   28  O   UNL     1      -9.989   9.588  71.077  1.00  0.00    -0.278 OA 
HETATM   29  O   UNL     1     -12.179  10.329  72.108  1.00  0.00    -0.057 OA 
BRANCH  27  30
HETATM   30  O   UNL     1     -11.775  10.451  69.537  1.00  0.00    -0.241 OA 
BRANCH  30  31
HETATM   31  C   UNL     1     -12.503  11.673  69.491  1.00  0.00     0.046 C  
BRANCH  31  32
HETATM   32  C   UNL     1     -11.833  12.809  70.257  1.00  0.00    -0.212 C  
HETATM   33  O   UNL     1     -10.708  13.341  69.530  1.00  0.00     0.045 OA 
HETATM   34  C   UNL     1     -10.444  14.601  70.175  1.00  0.00     0.213 C  
HETATM   35  H   UNL     1     -14.071  14.608  71.833  1.00  0.00     0.000 HD 
HETATM   36  C   UNL     1     -11.828  15.206  70.463  1.00  0.00    -0.318 C  
HETATM   37  C   UNL     1     -12.765  13.996  70.478  1.00  0.00    -0.280 C  
HETATM   38  H   UNL     1     -12.752  16.292  71.879  1.00  0.00     0.000 HD 
HETATM   39  O   UNL     1     -11.897  15.919  71.701  1.00  0.00    -0.408 OA 
HETATM   40  O   UNL     1     -13.490  13.869  71.695  1.00  0.00    -0.349 OA 
BRANCH  34  41
HETATM   41  N   UNL     1      -9.615  15.441  69.335  1.00  0.00    -0.262 NA 
HETATM   42  C   UNL     1      -8.513  16.166  69.693  1.00  0.00     0.233 A  
HETATM   43  N   UNL     1      -7.974  16.783  68.660  1.00  0.00    -0.235 NA 
HETATM   44  C   UNL     1      -8.785  16.461  67.591  1.00  0.00    -0.182 A  
HETATM   45  C   UNL     1      -8.740  16.791  66.226  1.00  0.00    -0.307 A  
HETATM   46  N   UNL     1      -7.726  17.550  65.660  1.00  0.00    -0.398 NA 
HETATM   47  N   UNL     1      -9.735  16.348  65.423  1.00  0.00    -0.447 NA 
HETATM   48  H1  UNL     1      -7.694  17.790  64.669  1.00  0.00     0.000 HD 
HETATM   49  C   UNL     1     -10.700  15.572  65.961  1.00  0.00    -0.326 A  
HETATM   50  H2  UNL     1      -6.841  17.097  65.892  1.00  0.00     0.000 HD 
HETATM   51  N   UNL     1     -10.822  15.145  67.239  1.00  0.00    -0.309 NA 
HETATM   52  C   UNL     1      -9.830  15.647  67.997  1.00  0.00    -0.209 A  
ENDBRANCH  34  41
ENDBRANCH  31  32
ENDBRANCH  30  31
ENDBRANCH  27  30
ENDBRANCH  26  27
ENDBRANCH  23  26
ENDBRANCH  22  23
ENDBRANCH  21  22
ENDBRANCH  14  21
ENDBRANCH   8  12
ENDBRANCH   4   6
TORSDOF 11
ENDMDL
MODEL      288
REMARK 921   NORMALIZED FREE ENERGY PREDICTED BY IDOCK:   -1.37 KCAL/MOL
REMARK 922        TOTAL FREE ENERGY PREDICTED BY IDOCK:   -4.45 KCAL/MOL
REMARK 923 INTER-LIGAND FREE ENERGY PREDICTED BY IDOCK:   -4.97 KCAL/MOL
REMARK 924 INTRA-LIGAND FREE ENERGY PREDICTED BY IDOCK:    0.52 KCAL/MOL
REMARK 927      BINDING AFFINITY PREDICTED BY RF-SCORE:    0.00 PKD
ROOT
HETATM    1  N   UNL     1     -12.530  13.441  66.078  1.00  0.00    -0.403 N  
HETATM    2  H1  UNL     1     -12.305  13.364  65.086  1.00  0.00     0.000 HD 
HETATM    3  H2  UNL     1     -13.361  13.955  66.369  1.00  0.00     0.000 HD 
HETATM    4  C   UNL     1     -11.738  12.868  67.012  1.00  0.00    -0.385 C  
HETATM    5  O   UNL     1     -12.008  12.960  68.209  1.00  0.00    -0.332 OA 
ENDROOT
BRANCH   4   6
HETATM    6  C   UNL     1     -10.540  12.150  66.518  1.00  0.00    -0.269 C  
HETATM    7  C   UNL     1      -9.347  12.673  66.856  1.00  0.00    -0.228 C  
HETATM    8  N   UNL     1      -8.127  12.088  66.527  1.00  0.00    -0.023 NA 
HETATM    9  C   UNL     1     -10.630  10.862  65.747  1.00  0.00    -0.230 C  
HETATM   10  C   UNL     1      -8.154  10.979  65.673  1.00  0.00     0.004 C  
HETATM   11  C   UNL     1      -9.283  10.372  65.278  1.00  0.00    -0.240 C  
BRANCH   8  12
HETATM   12  C   UNL     1      -6.834  12.460  67.142  1.00  0.00    -0.075 C  
HETATM   13  O   UNL     1      -5.955  11.314  67.103  1.00  0.00    -0.061 OA 
HETATM   14  C   UNL     1      -6.160  10.563  68.321  1.00  0.00    -0.047 C  
HETATM   15  H   UNL     1      -5.615  13.900  69.853  1.00  0.00     0.000 HD 
HETATM   16  C   UNL     1      -6.717  11.531  69.361  1.00  0.00    -0.116 C  
HETATM   17  H   UNL     1      -6.188  12.217  71.139  1.00  0.00     0.000 HD 
HETATM   18  C   UNL     1      -6.809  12.865  68.625  1.00  0.00    -0.099 C  
HETATM   19  O   UNL     1      -5.841  11.614  70.492  1.00  0.00    -0.158 OA 
HETATM   20  O   UNL     1      -5.631  13.650  68.936  1.00  0.00    -0.072 OA 
BRANCH  14  21
HETATM   21  C   UNL     1      -7.105   9.378  68.066  1.00  0.00    -0.081 C  
BRANCH  21  22
HETATM   22  O   UNL     1      -8.466   9.785  68.128  1.00  0.00    -0.113 OA 
BRANCH  22  23
HETATM   23  P   UNL     1      -9.280   9.504  69.473  1.00  0.00    -0.218 P  
HETATM   24  O   UNL     1      -8.706  10.040  70.741  1.00  0.00     0.068 OA 
HETATM   25  O   UNL     1     -10.668  10.260  69.174  1.00  0.00    -0.201 OA 
BRANCH  23  26
HETATM   26  O   UNL     1      -9.713   7.984  69.460  1.00  0.00    -0.167 OA 
BRANCH  26  27
HETATM   27  P   UNL     1     -10.836   7.352  70.376  1.00  0.00    -0.247 P  
HETATM   28  O   UNL     1     -11.934   6.866  69.309  1.00  0.00     0.199 OA 
HETATM   29  O   UNL     1     -11.484   8.228  71.395  1.00  0.00    -0.254 OA 
BRANCH  27  30
HETATM   30  O   UNL     1     -10.260   5.970  70.951  1.00  0.00    -0.193 OA 
BRANCH  30  31
HETATM   31  C   UNL     1     -10.067   4.848  70.096  1.00  0.00    -0.261 C  
BRANCH  31  32
HETATM   32  C   UNL     1      -8.599   4.539  69.822  1.00  0.00    -0.069 C  
HETATM   33  O   UNL     1      -8.381   4.212  68.436  1.00  0.00    -0.089 OA 
HETATM   34  C   UNL     1      -6.955   4.329  68.273  1.00  0.00    -0.052 C  
HETATM   35  H   UNL     1      -6.664   6.472  71.623  1.00  0.00     0.000 HD 
HETATM   36  C   UNL     1      -6.555   5.572  69.085  1.00  0.00    -0.047 C  
HETATM   37  C   UNL     1      -7.688   5.730  70.101  1.00  0.00    -0.087 C  
HETATM   38  H   UNL     1      -5.046   6.213  70.247  1.00  0.00     0.000 HD 
HETATM   39  O   UNL     1      -5.292   5.446  69.745  1.00  0.00    -0.004 OA 
HETATM   40  O   UNL     1      -7.231   5.731  71.449  1.00  0.00    -0.074 OA 
BRANCH  34  41
HETATM   41  N   UNL     1      -6.606   4.424  66.870  1.00  0.00    -0.045 NA 
HETATM   42  C   UNL     1      -5.624   3.753  66.198  1.00  0.00    -0.018 A  
HETATM   43  N   UNL     1      -5.616   4.051  64.913  1.00  0.00    -0.013 NA 
HETATM   44  C   UNL     1      -6.625   4.980  64.758  1.00  0.00    -0.040 A  
HETATM   45  C   UNL     1      -7.123   5.668  63.640  1.00  0.00    -0.051 A  
HETATM   46  N   UNL     1      -6.652   5.467  62.350  1.00  0.00    -0.028 NA 
HETATM   47  N   UNL     1      -8.112   6.574  63.828  1.00  0.00    -0.066 NA 
HETATM   48  H1  UNL     1      -7.014   5.967  61.538  1.00  0.00     0.000 HD 
HETATM   49  C   UNL     1      -8.604   6.740  65.075  1.00  0.00     0.100 A  
HETATM   50  H2  UNL     1      -6.728   4.469  62.151  1.00  0.00     0.000 HD 
HETATM   51  N   UNL     1      -8.246   6.102  66.213  1.00  0.00    -0.112 NA 
HETATM   52  C   UNL     1      -7.236   5.246  65.972  1.00  0.00    -0.073 A  
ENDBRANCH  34  41
ENDBRANCH  31  32
ENDBRANCH  30  31
ENDBRANCH  27  30
ENDBRANCH  26  27
ENDBRANCH  23  26
ENDBRANCH  22  23
ENDBRANCH  21  22
ENDBRANCH  14  21
ENDBRANCH   8  12
ENDBRANCH   4   6
TORSDOF 11
ENDMDL
MODEL      289
REMARK 921   NORMALIZED FREE ENERGY PREDICTED BY IDOCK:   -1.26 KCAL/MOL
REMARK 922        TOTAL FREE ENERGY PREDICTED BY IDOCK:   -4.28 KCAL/MOL
REMARK 923 INTER-LIGAND FREE ENERGY PREDICTED BY IDOCK:   -5.84 KCAL/MOL
REMARK 924 INTRA-LIGAND FREE ENERGY PREDICTED BY IDOCK:    1.56 KCAL/MOL
REMARK 927      BINDING AFFINITY PREDICTED BY RF-SCORE:    0.00 PKD
ROOT
HETATM    1  N   UNL     1      -8.008  10.378  68.480  1.00  0.00    -0.108 N  
HETATM    2  H1  UNL     1      -7.229  10.302  67.825  1.00  0.00     0.000 HD 
HETATM    3  H2  UNL     1      -8.627  11.187  68.435  1.00  0.00     0.000 HD 
HETATM    4  C   UNL     1      -8.228   9.418  69.406  1.00  0.00    -0.119 C  
HETATM    5  O   UNL     1      -9.168   9.510  70.196  1.00  0.00    -0.211 OA 
ENDROOT
BRANCH   4   6
HETATM    6  C   UNL     1      -7.282   8.280  69.422  1.00  0.00    -0.059 C  
HETATM    7  C   UNL     1      -7.524   7.288  68.544  1.00  0.00    -0.105 C  
HETATM    8  N   UNL     1      -6.698   6.178  68.387  1.00  0.00    -0.062 NA 
HETATM    9  C   UNL     1      -6.068   8.249  70.309  1.00  0.00    -0.031 C  
HETATM   10  C   UNL     1      -5.647   6.024  69.299  1.00  0.00    -0.015 C  
HETATM   11  C   UNL     1      -5.311   6.947  70.211  1.00  0.00    -0.019 C  
BRANCH   8  12
HETATM   12  C   UNL     1      -6.761   5.251  67.236  1.00  0.00    -0.055 C  
HETATM   13  O   UNL     1      -6.057   5.844  66.122  1.00  0.00    -0.030 OA 
HETATM   14  C   UNL     1      -7.010   6.626  65.367  1.00  0.00    -0.056 C  
HETATM   15  H   UNL     1      -8.937   3.457  65.518  1.00  0.00     0.000 HD 
HETATM   16  C   UNL     1      -8.395   6.056  65.660  1.00  0.00    -0.145 C  
HETATM   17  H   UNL     1      -9.875   5.235  64.637  1.00  0.00     0.000 HD 
HETATM   18  C   UNL     1      -8.134   4.910  66.634  1.00  0.00    -0.107 C  
HETATM   19  O   UNL     1      -9.013   5.589  64.454  1.00  0.00     0.030 OA 
HETATM   20  O   UNL     1      -8.089   3.667  65.890  1.00  0.00    -0.092 OA 
BRANCH  14  21
HETATM   21  C   UNL     1      -6.902   8.111  65.745  1.00  0.00    -0.063 C  
BRANCH  21  22
HETATM   22  O   UNL     1      -6.663   8.917  64.598  1.00  0.00    -0.073 OA 
BRANCH  22  23
HETATM   23  P   UNL     1      -7.778   9.977  64.170  1.00  0.00    -0.109 P  
HETATM   24  O   UNL     1      -7.421  10.945  63.093  1.00  0.00     0.099 OA 
HETATM   25  O   UNL     1      -8.949   9.014  63.632  1.00  0.00    -0.085 OA 
BRANCH  23  26
HETATM   26  O   UNL     1      -8.408  10.566  65.495  1.00  0.00    -0.163 OA 
BRANCH  26  27
HETATM   27  P   UNL     1      -9.933  10.464  65.899  1.00  0.00    -0.248 P  
HETATM   28  O   UNL     1      -9.959  11.135  67.359  1.00  0.00    -0.176 OA 
HETATM   29  O   UNL     1     -10.551   9.108  65.962  1.00  0.00     0.083 OA 
BRANCH  27  30
HETATM   30  O   UNL     1     -10.737  11.525  65.003  1.00  0.00    -0.285 OA 
BRANCH  30  31
HETATM   31  C   UNL     1     -10.200  12.818  64.748  1.00  0.00    -0.281 C  
BRANCH  31  32
HETATM   32  C   UNL     1     -10.277  13.756  65.948  1.00  0.00    -0.313 C  
HETATM   33  O   UNL     1     -11.345  13.382  66.840  1.00  0.00    -0.302 OA 
HETATM   34  C   UNL     1     -11.044  14.091  68.057  1.00  0.00    -0.263 C  
HETATM   35  H   UNL     1      -7.273  14.658  66.891  1.00  0.00     0.000 HD 
HETATM   36  C   UNL     1      -9.519  13.984  68.220  1.00  0.00    -0.216 C  
HETATM   37  C   UNL     1      -9.013  13.719  66.800  1.00  0.00    -0.185 C  
HETATM   38  H   UNL     1      -7.973  15.095  68.866  1.00  0.00     0.000 HD 
HETATM   39  O   UNL     1      -8.915  15.161  68.765  1.00  0.00    -0.178 OA 
HETATM   40  O   UNL     1      -8.060  14.681  66.361  1.00  0.00     0.307 OA 
BRANCH  34  41
HETATM   41  N   UNL     1     -11.781  13.529  69.171  1.00  0.00    -0.305 NA 
HETATM   42  C   UNL     1     -11.899  12.215  69.525  1.00  0.00    -0.321 A  
HETATM   43  N   UNL     1     -12.611  12.066  70.625  1.00  0.00    -0.222 NA 
HETATM   44  C   UNL     1     -12.992  13.344  70.979  1.00  0.00    -0.184 A  
HETATM   45  C   UNL     1     -13.744  13.854  72.050  1.00  0.00    -0.486 A  
HETATM   46  N   UNL     1     -14.249  13.060  73.070  1.00  0.00    -0.013 NA 
HETATM   47  N   UNL     1     -13.990  15.184  72.090  1.00  0.00    -0.483 NA 
HETATM   48  H1  UNL     1     -14.795  13.431  73.848  1.00  0.00     0.000 HD 
HETATM   49  C   UNL     1     -13.463  15.966  71.123  1.00  0.00     0.295 A  
HETATM   50  H2  UNL     1     -13.465  12.542  73.468  1.00  0.00     0.000 HD 
HETATM   51  N   UNL     1     -12.683  15.603  70.078  1.00  0.00    -0.185 NA 
HETATM   52  C   UNL     1     -12.507  14.268  70.068  1.00  0.00    -0.300 A  
ENDBRANCH  34  41
ENDBRANCH  31  32
ENDBRANCH  30  31
ENDBRANCH  27  30
ENDBRANCH  26  27
ENDBRANCH  23  26
ENDBRANCH  22  23
ENDBRANCH  21  22
ENDBRANCH  14  21
ENDBRANCH   8  12
ENDBRANCH   4   6
TORSDOF 11
ENDMDL
MODEL      290
REMARK 921   NORMALIZED FREE ENERGY PREDICTED BY IDOCK:   -1.19 KCAL/MOL
REMARK 922        TOTAL FREE ENERGY PREDICTED BY IDOCK:   -4.15 KCAL/MOL
REMARK 923 INTER-LIGAND FREE ENERGY PREDICTED BY IDOCK:   -3.82 KCAL/MOL
REMARK 924 INTRA-LIGAND FREE ENERGY PREDICTED BY IDOCK:   -0.33 KCAL/MOL
REMARK 927      BINDING AFFINITY PREDICTED BY RF-SCORE:    0.00 PKD
ROOT
HETATM    1  N   UNL     1      -8.331  15.157  71.672  1.00  0.00     3.403 N  
HETATM    2  H1  UNL     1      -7.445  15.522  72.021  1.00  0.00     0.000 HD 
HETATM    3  H2  UNL     1      -9.110  15.023  72.317  1.00  0.00     0.000 HD 
HETATM    4  C   UNL     1      -8.485  14.849  70.365  1.00  0.00     1.234 C  
HETATM    5  O   UNL     1      -9.554  14.409  69.944  1.00  0.00     0.473 OA 
ENDROOT
BRANCH   4   6
HETATM    6  C   UNL     1      -7.309  15.056  69.490  1.00  0.00    -0.202 C  
HETATM    7  C   UNL     1      -7.208  16.260  68.897  1.00  0.00    -0.190 C  
HETATM    8  N   UNL     1      -6.134  16.639  68.096  1.00  0.00    -0.121 NA 
HETATM    9  C   UNL     1      -6.233  14.018  69.321  1.00  0.00    -0.105 C  
HETATM   10  C   UNL     1      -5.191  15.655  67.777  1.00  0.00    -0.109 C  
HETATM   11  C   UNL     1      -5.188  14.425  68.312  1.00  0.00    -0.113 C  
BRANCH   8  12
HETATM   12  C   UNL     1      -5.845  18.034  67.698  1.00  0.00    -0.151 C  
HETATM   13  O   UNL     1      -6.797  18.908  68.345  1.00  0.00    -0.238 OA 
HETATM   14  C   UNL     1      -7.936  19.041  67.466  1.00  0.00    -0.252 C  
HETATM   15  H   UNL     1      -5.282  19.858  65.003  1.00  0.00     0.000 HD 
HETATM   16  C   UNL     1      -7.454  18.738  66.050  1.00  0.00    -0.239 C  
HETATM   17  H   UNL     1      -7.358  19.680  64.314  1.00  0.00     0.000 HD 
HETATM   18  C   UNL     1      -5.970  18.423  66.216  1.00  0.00    -0.169 C  
HETATM   19  O   UNL     1      -7.659  19.869  65.195  1.00  0.00    -0.291 OA 
HETATM   20  O   UNL     1      -5.204  19.617  65.919  1.00  0.00    -0.153 OA 
BRANCH  14  21
HETATM   21  C   UNL     1      -9.066  18.098  67.909  1.00  0.00    -0.265 C  
BRANCH  21  22
HETATM   22  O   UNL     1      -9.213  17.011  67.002  1.00  0.00    -0.225 OA 
BRANCH  22  23
HETATM   23  P   UNL     1     -10.529  16.113  67.103  1.00  0.00    -0.266 P  
HETATM   24  O   UNL     1     -10.366  14.720  67.610  1.00  0.00    -0.236 OA 
HETATM   25  O   UNL     1     -11.410  16.948  68.159  1.00  0.00    -0.217 OA 
BRANCH  23  26
HETATM   26  O   UNL     1     -11.341  16.305  65.761  1.00  0.00     0.110 OA 
BRANCH  26  27
HETATM   27  P   UNL     1     -11.885  15.130  64.853  1.00  0.00    -0.092 P  
HETATM   28  O   UNL     1     -12.229  15.878  63.473  1.00  0.00    -0.454 OA 
HETATM   29  O   UNL     1     -13.082  14.377  65.324  1.00  0.00    -0.629 OA 
BRANCH  27  30
HETATM   30  O   UNL     1     -10.630  14.212  64.458  1.00  0.00    -0.406 OA 
BRANCH  30  31
HETATM   31  C   UNL     1     -10.808  12.843  64.111  1.00  0.00    -0.416 C  
BRANCH  31  32
HETATM   32  C   UNL     1      -9.990  11.886  64.974  1.00  0.00    -0.248 C  
HETATM   33  O   UNL     1     -10.414  11.928  66.350  1.00  0.00    -0.213 OA 
HETATM   34  C   UNL     1      -9.839  10.739  66.925  1.00  0.00    -0.187 C  
HETATM   35  H   UNL     1      -9.287   9.157  63.307  1.00  0.00     0.000 HD 
HETATM   36  C   UNL     1     -10.013   9.649  65.856  1.00  0.00    -0.281 C  
HETATM   37  C   UNL     1     -10.153  10.431  64.548  1.00  0.00    -0.295 C  
HETATM   38  H   UNL     1      -9.023   8.059  65.125  1.00  0.00     0.000 HD 
HETATM   39  O   UNL     1      -8.916   8.733  65.786  1.00  0.00    -0.184 OA 
HETATM   40  O   UNL     1      -9.185  10.063  63.572  1.00  0.00    -0.257 OA 
BRANCH  34  41
HETATM   41  N   UNL     1     -10.483  10.417  68.182  1.00  0.00    -0.175 NA 
HETATM   42  C   UNL     1     -11.804  10.543  68.509  1.00  0.00     0.083 A  
HETATM   43  N   UNL     1     -12.051  10.112  69.730  1.00  0.00    -0.057 NA 
HETATM   44  C   UNL     1     -10.824   9.715  70.222  1.00  0.00    -0.285 A  
HETATM   45  C   UNL     1     -10.422   9.158  71.447  1.00  0.00    -0.344 A  
HETATM   46  N   UNL     1     -11.309   8.841  72.466  1.00  0.00    -0.208 NA 
HETATM   47  N   UNL     1      -9.104   8.920  71.647  1.00  0.00    -0.318 NA 
HETATM   48  H1  UNL     1     -11.017   8.437  73.356  1.00  0.00     0.000 HD 
HETATM   49  C   UNL     1      -8.243   9.186  70.641  1.00  0.00    -0.190 A  
HETATM   50  H2  UNL     1     -12.018   8.223  72.070  1.00  0.00     0.000 HD 
HETATM   51  N   UNL     1      -8.513   9.670  69.406  1.00  0.00    -0.142 NA 
HETATM   52  C   UNL     1      -9.829   9.924  69.281  1.00  0.00    -0.207 A  
ENDBRANCH  34  41
ENDBRANCH  31  32
ENDBRANCH  30  31
ENDBRANCH  27  30
ENDBRANCH  26  27
ENDBRANCH  23  26
ENDBRANCH  22  23
ENDBRANCH  21  22
ENDBRANCH  14  21
ENDBRANCH   8  12
ENDBRANCH   4   6
TORSDOF 11
ENDMDL
MODEL      291
REMARK 921   NORMALIZED FREE ENERGY PREDICTED BY IDOCK:   -1.18 KCAL/MOL
REMARK 922        TOTAL FREE ENERGY PREDICTED BY IDOCK:   -4.14 KCAL/MOL
REMARK 923 INTER-LIGAND FREE ENERGY PREDICTED BY IDOCK:   -7.08 KCAL/MOL
REMARK 924 INTRA-LIGAND FREE ENERGY PREDICTED BY IDOCK:    2.95 KCAL/MOL
REMARK 927      BINDING AFFINITY PREDICTED BY RF-SCORE:    0.00 PKD
ROOT
HETATM    1  N   UNL     1     -13.292   6.974  71.424  1.00  0.00    -0.361 N  
HETATM    2  H1  UNL     1     -13.471   6.829  70.430  1.00  0.00     0.000 HD 
HETATM    3  H2  UNL     1     -14.064   6.917  72.088  1.00  0.00     0.000 HD 
HETATM    4  C   UNL     1     -12.045   7.238  71.871  1.00  0.00    -0.314 C  
HETATM    5  O   UNL     1     -11.830   7.412  73.070  1.00  0.00    -0.076 OA 
ENDROOT
BRANCH   4   6
HETATM    6  C   UNL     1     -10.976   7.319  70.850  1.00  0.00    -0.275 C  
HETATM    7  C   UNL     1     -10.916   8.457  70.135  1.00  0.00    -0.215 C  
HETATM    8  N   UNL     1      -9.935   8.719  69.181  1.00  0.00    -0.185 NA 
HETATM    9  C   UNL     1      -9.954   6.231  70.659  1.00  0.00    -0.221 C  
HETATM   10  C   UNL     1      -9.061   7.676  68.853  1.00  0.00    -0.140 C  
HETATM   11  C   UNL     1      -9.026   6.503  69.501  1.00  0.00    -0.137 C  
BRANCH   8  12
HETATM   12  C   UNL     1      -9.660  10.060  68.618  1.00  0.00    -0.155 C  
HETATM   13  O   UNL     1     -10.070  11.059  69.578  1.00  0.00    -0.110 OA 
HETATM   14  C   UNL     1     -11.453  11.383  69.309  1.00  0.00    -0.303 C  
HETATM   15  H   UNL     1     -10.135  11.822  65.866  1.00  0.00     0.000 HD 
HETATM   16  C   UNL     1     -11.723  11.034  67.848  1.00  0.00    -0.135 C  
HETATM   17  H   UNL     1     -12.297  11.981  66.209  1.00  0.00     0.000 HD 
HETATM   18  C   UNL     1     -10.392  10.489  67.337  1.00  0.00    -0.224 C  
HETATM   19  O   UNL     1     -12.129  12.199  67.119  1.00  0.00    -0.575 OA 
HETATM   20  O   UNL     1      -9.682  11.556  66.658  1.00  0.00    -0.193 OA 
BRANCH  14  21
HETATM   21  C   UNL     1     -12.378  10.619  70.269  1.00  0.00    -0.325 C  
BRANCH  21  22
HETATM   22  O   UNL     1     -12.789  11.444  71.352  1.00  0.00    -0.413 OA 
BRANCH  22  23
HETATM   23  P   UNL     1     -12.914  13.016  71.102  1.00  0.00     0.009 P  
HETATM   24  O   UNL     1     -14.101  13.491  70.333  1.00  0.00     1.511 OA 
HETATM   25  O   UNL     1     -13.015  13.576  72.606  1.00  0.00    -0.349 OA 
BRANCH  23  26
HETATM   26  O   UNL     1     -11.495  13.540  70.642  1.00  0.00     0.031 OA 
BRANCH  26  27
HETATM   27  P   UNL     1     -11.238  14.879  69.842  1.00  0.00    -0.252 P  
HETATM   28  O   UNL     1      -9.635  14.929  69.739  1.00  0.00    -0.031 OA 
HETATM   29  O   UNL     1     -11.739  16.154  70.430  1.00  0.00    -0.334 OA 
BRANCH  27  30
HETATM   30  O   UNL     1     -11.685  14.621  68.323  1.00  0.00    -0.314 OA 
BRANCH  30  31
HETATM   31  C   UNL     1     -10.945  15.174  67.240  1.00  0.00    -0.327 C  
BRANCH  31  32
HETATM   32  C   UNL     1     -11.019  16.696  67.167  1.00  0.00    -0.023 C  
HETATM   33  O   UNL     1     -10.389  17.307  68.309  1.00  0.00    -0.319 OA 
HETATM   34  C   UNL     1     -10.206  18.679  67.910  1.00  0.00    -0.392 C  
HETATM   35  H   UNL     1     -10.688  17.712  64.071  1.00  0.00     0.000 HD 
HETATM   36  C   UNL     1      -9.767  18.616  66.438  1.00  0.00    -0.345 C  
HETATM   37  C   UNL     1     -10.284  17.259  65.955  1.00  0.00    -0.261 C  
HETATM   38  H   UNL     1     -10.023  19.638  64.725  1.00  0.00     0.000 HD 
HETATM   39  O   UNL     1     -10.294  19.677  65.635  1.00  0.00    -0.420 OA 
HETATM   40  O   UNL     1     -11.145  17.361  64.826  1.00  0.00    -0.973 OA 
BRANCH  34  41
HETATM   41  N   UNL     1      -9.241  19.337  68.768  1.00  0.00    -0.375 NA 
HETATM   42  C   UNL     1      -9.449  19.894  69.998  1.00  0.00     0.718 A  
HETATM   43  N   UNL     1      -8.334  20.368  70.518  1.00  0.00     1.392 NA 
HETATM   44  C   UNL     1      -7.367  20.129  69.562  1.00  0.00     0.132 A  
HETATM   45  C   UNL     1      -5.987  20.383  69.518  1.00  0.00    -0.341 A  
HETATM   46  N   UNL     1      -5.282  20.944  70.573  1.00  0.00    -0.514 NA 
HETATM   47  N   UNL     1      -5.308  20.067  68.390  1.00  0.00    -0.200 NA 
HETATM   48  H1  UNL     1      -4.280  21.129  70.541  1.00  0.00     0.000 HD 
HETATM   49  C   UNL     1      -5.982  19.479  67.377  1.00  0.00    -0.189 A  
HETATM   50  H2  UNL     1      -5.459  20.368  71.397  1.00  0.00     0.000 HD 
HETATM   51  N   UNL     1      -7.290  19.137  67.322  1.00  0.00    -0.222 NA 
HETATM   52  C   UNL     1      -7.919  19.511  68.452  1.00  0.00    -0.339 A  
ENDBRANCH  34  41
ENDBRANCH  31  32
ENDBRANCH  30  31
ENDBRANCH  27  30
ENDBRANCH  26  27
ENDBRANCH  23  26
ENDBRANCH  22  23
ENDBRANCH  21  22
ENDBRANCH  14  21
ENDBRANCH   8  12
ENDBRANCH   4   6
TORSDOF 11
ENDMDL
MODEL      292
REMARK 921   NORMALIZED FREE ENERGY PREDICTED BY IDOCK:   -1.07 KCAL/MOL
REMARK 922        TOTAL FREE ENERGY PREDICTED BY IDOCK:   -3.96 KCAL/MOL
REMARK 923 INTER-LIGAND FREE ENERGY PREDICTED BY IDOCK:   -5.29 KCAL/MOL
REMARK 924 INTRA-LIGAND FREE ENERGY PREDICTED BY IDOCK:    1.34 KCAL/MOL
REMARK 927      BINDING AFFINITY PREDICTED BY RF-SCORE:    0.00 PKD
ROOT
HETATM    1  N   UNL     1      -9.136   4.905  64.616  1.00  0.00    -0.285 N  
HETATM    2  H1  UNL     1      -8.439   4.215  64.334  1.00  0.00     0.000 HD 
HETATM    3  H2  UNL     1      -9.484   5.578  63.933  1.00  0.00     0.000 HD 
HETATM    4  C   UNL     1      -9.604   4.935  65.883  1.00  0.00    -0.175 C  
HETATM    5  O   UNL     1     -10.446   5.767  66.223  1.00  0.00    -0.164 OA 
ENDROOT
BRANCH   4   6
HETATM    6  C   UNL     1      -9.045   3.937  66.823  1.00  0.00    -0.161 C  
HETATM    7  C   UNL     1      -8.936   4.322  68.108  1.00  0.00    -0.122 C  
HETATM    8  N   UNL     1      -8.489   3.486  69.128  1.00  0.00    -0.064 NA 
HETATM    9  C   UNL     1      -8.685   2.540  66.400  1.00  0.00    -0.125 C  
HETATM   10  C   UNL     1      -7.990   2.231  68.760  1.00  0.00    -0.052 C  
HETATM   11  C   UNL     1      -8.052   1.742  67.513  1.00  0.00    -0.066 C  
BRANCH   8  12
HETATM   12  C   UNL     1      -8.656   3.772  70.571  1.00  0.00    -0.070 C  
HETATM   13  O   UNL     1      -9.398   5.003  70.717  1.00  0.00    -0.141 OA 
HETATM   14  C   UNL     1      -8.444   6.088  70.754  1.00  0.00    -0.130 C  
HETATM   15  H   UNL     1      -6.897   3.945  73.360  1.00  0.00     0.000 HD 
HETATM   16  C   UNL     1      -7.113   5.504  71.217  1.00  0.00    -0.071 C  
HETATM   17  H   UNL     1      -5.854   5.767  72.721  1.00  0.00     0.000 HD 
HETATM   18  C   UNL     1      -7.403   4.020  71.426  1.00  0.00    -0.044 C  
HETATM   19  O   UNL     1      -6.684   6.131  72.432  1.00  0.00    -0.066 OA 
HETATM   20  O   UNL     1      -7.671   3.791  72.831  1.00  0.00    -0.070 OA 
BRANCH  14  21
HETATM   21  C   UNL     1      -8.337   6.753  69.373  1.00  0.00    -0.132 C  
BRANCH  21  22
HETATM   22  O   UNL     1      -7.032   6.600  68.829  1.00  0.00    -0.074 OA 
BRANCH  22  23
HETATM   23  P   UNL     1      -6.136   7.906  68.630  1.00  0.00    -0.037 P  
HETATM   24  O   UNL     1      -5.299   8.341  69.786  1.00  0.00    -0.026 OA 
HETATM   25  O   UNL     1      -5.165   7.453  67.431  1.00  0.00    -0.022 OA 
BRANCH  23  26
HETATM   26  O   UNL     1      -7.039   9.003  67.937  1.00  0.00    -0.077 OA 
BRANCH  26  27
HETATM   27  P   UNL     1      -7.990  10.009  68.700  1.00  0.00    -0.107 P  
HETATM   28  O   UNL     1      -7.089  10.474  69.947  1.00  0.00    -0.140 OA 
HETATM   29  O   UNL     1      -9.300   9.497  69.195  1.00  0.00    -0.152 OA 
BRANCH  27  30
HETATM   30  O   UNL     1      -8.085  11.342  67.812  1.00  0.00    -0.113 OA 
BRANCH  30  31
HETATM   31  C   UNL     1      -7.312  12.492  68.137  1.00  0.00    -0.110 C  
BRANCH  31  32
HETATM   32  C   UNL     1      -8.064  13.509  68.990  1.00  0.00     0.245 C  
HETATM   33  O   UNL     1      -7.626  14.853  68.713  1.00  0.00    -0.119 OA 
HETATM   34  C   UNL     1      -8.659  15.678  69.285  1.00  0.00    -0.262 C  
HETATM   35  H   UNL     1     -11.184  12.593  69.381  1.00  0.00     0.000 HD 
HETATM   36  C   UNL     1      -9.978  14.965  68.948  1.00  0.00    -0.233 C  
HETATM   37  C   UNL     1      -9.563  13.511  68.712  1.00  0.00     0.015 C  
HETATM   38  H   UNL     1     -11.775  14.612  69.777  1.00  0.00     0.000 HD 
HETATM   39  O   UNL     1     -10.960  15.053  69.984  1.00  0.00    -0.254 OA 
HETATM   40  O   UNL     1     -10.250  12.592  69.554  1.00  0.00     0.448 OA 
BRANCH  34  41
HETATM   41  N   UNL     1      -8.585  17.026  68.759  1.00  0.00    -0.257 NA 
HETATM   42  C   UNL     1      -7.893  18.091  69.263  1.00  0.00     0.159 A  
HETATM   43  N   UNL     1      -8.014  19.161  68.502  1.00  0.00    -0.339 NA 
HETATM   44  C   UNL     1      -8.847  18.772  67.472  1.00  0.00    -0.274 A  
HETATM   45  C   UNL     1      -9.345  19.442  66.343  1.00  0.00    -0.368 A  
HETATM   46  N   UNL     1      -9.002  20.747  66.020  1.00  0.00    -0.150 NA 
HETATM   47  N   UNL     1     -10.203  18.784  65.528  1.00  0.00    -0.393 NA 
HETATM   48  H1  UNL     1      -9.363  21.234  65.200  1.00  0.00     0.000 HD 
HETATM   49  C   UNL     1     -10.505  17.499  65.814  1.00  0.00    -0.207 A  
HETATM   50  H2  UNL     1      -7.983  20.791  65.975  1.00  0.00     0.000 HD 
HETATM   51  N   UNL     1     -10.051  16.735  66.835  1.00  0.00    -0.278 NA 
HETATM   52  C   UNL     1      -9.236  17.452  67.631  1.00  0.00    -0.234 A  
ENDBRANCH  34  41
ENDBRANCH  31  32
ENDBRANCH  30  31
ENDBRANCH  27  30
ENDBRANCH  26  27
ENDBRANCH  23  26
ENDBRANCH  22  23
ENDBRANCH  21  22
ENDBRANCH  14  21
ENDBRANCH   8  12
ENDBRANCH   4   6
TORSDOF 11
ENDMDL
MODEL      293
REMARK 921   NORMALIZED FREE ENERGY PREDICTED BY IDOCK:   -0.61 KCAL/MOL
REMARK 922        TOTAL FREE ENERGY PREDICTED BY IDOCK:   -3.21 KCAL/MOL
REMARK 923 INTER-LIGAND FREE ENERGY PREDICTED BY IDOCK:   -3.31 KCAL/MOL
REMARK 924 INTRA-LIGAND FREE ENERGY PREDICTED BY IDOCK:    0.10 KCAL/MOL
REMARK 927      BINDING AFFINITY PREDICTED BY RF-SCORE:    0.00 PKD
ROOT
HETATM    1  N   UNL     1      -7.423  10.658  70.171  1.00  0.00    -0.282 N  
HETATM    2  H1  UNL     1      -6.658   9.984  70.137  1.00  0.00     0.000 HD 
HETATM    3  H2  UNL     1      -8.014  10.710  71.001  1.00  0.00     0.000 HD 
HETATM    4  C   UNL     1      -7.662  11.485  69.128  1.00  0.00     0.032 C  
HETATM    5  O   UNL     1      -8.585  12.298  69.169  1.00  0.00     0.329 OA 
ENDROOT
BRANCH   4   6
HETATM    6  C   UNL     1      -6.774  11.346  67.952  1.00  0.00    -0.064 C  
HETATM    7  C   UNL     1      -6.674  10.113  67.420  1.00  0.00    -0.073 C  
HETATM    8  N   UNL     1      -5.933   9.824  66.277  1.00  0.00    -0.061 NA 
HETATM    9  C   UNL     1      -6.074  12.519  67.323  1.00  0.00    -0.119 C  
HETATM   10  C   UNL     1      -5.135  10.847  65.751  1.00  0.00    -0.129 C  
HETATM   11  C   UNL     1      -5.157  12.112  66.196  1.00  0.00     0.940 C  
BRANCH   8  12
HETATM   12  C   UNL     1      -6.057   8.570  65.501  1.00  0.00    -0.048 C  
HETATM   13  O   UNL     1      -6.008   8.890  64.092  1.00  0.00    -0.069 OA 
HETATM   14  C   UNL     1      -7.363   9.133  63.652  1.00  0.00    -0.100 C  
HETATM   15  H   UNL     1      -7.934   5.860  65.308  1.00  0.00     0.000 HD 
HETATM   16  C   UNL     1      -8.291   8.403  64.619  1.00  0.00    -0.127 C  
HETATM   17  H   UNL     1      -9.656   6.974  64.525  1.00  0.00     0.000 HD 
HETATM   18  C   UNL     1      -7.350   7.748  65.625  1.00  0.00    -0.073 C  
HETATM   19  O   UNL     1      -9.078   7.428  63.922  1.00  0.00     1.063 OA 
HETATM   20  O   UNL     1      -7.135   6.369  65.232  1.00  0.00    -0.058 OA 
BRANCH  14  21
HETATM   21  C   UNL     1      -7.646  10.643  63.603  1.00  0.00     0.161 C  
BRANCH  21  22
HETATM   22  O   UNL     1      -8.293  11.082  64.791  1.00  0.00     0.016 OA 
BRANCH  22  23
HETATM   23  P   UNL     1      -9.886  10.997  64.863  1.00  0.00    -0.319 P  
HETATM   24  O   UNL     1     -10.572  10.185  63.816  1.00  0.00     0.602 OA 
HETATM   25  O   UNL     1     -10.107  10.291  66.291  1.00  0.00    -0.222 OA 
BRANCH  23  26
HETATM   26  O   UNL     1     -10.431  12.458  65.120  1.00  0.00    -0.277 OA 
BRANCH  26  27
HETATM   27  P   UNL     1     -11.929  12.918  64.911  1.00  0.00    -0.448 P  
HETATM   28  O   UNL     1     -12.525  12.873  66.403  1.00  0.00    -0.422 OA 
HETATM   29  O   UNL     1     -12.791  12.106  64.006  1.00  0.00    -0.651 OA 
BRANCH  27  30
HETATM   30  O   UNL     1     -11.905  14.488  64.583  1.00  0.00    -0.413 OA 
BRANCH  30  31
HETATM   31  C   UNL     1     -10.735  15.264  64.816  1.00  0.00    -0.317 C  
BRANCH  31  32
HETATM   32  C   UNL     1     -10.479  15.550  66.292  1.00  0.00    -0.307 C  
HETATM   33  O   UNL     1      -9.392  16.479  66.467  1.00  0.00    -0.237 OA 
HETATM   34  C   UNL     1      -9.532  16.924  67.829  1.00  0.00    -0.237 C  
HETATM   35  H   UNL     1     -13.302  15.630  67.951  1.00  0.00     0.000 HD 
HETATM   36  C   UNL     1     -11.045  17.100  68.043  1.00  0.00    -0.113 C  
HETATM   37  C   UNL     1     -11.676  16.201  66.978  1.00  0.00     0.703 C  
HETATM   38  H   UNL     1     -12.421  16.835  69.484  1.00  0.00     0.000 HD 
HETATM   39  O   UNL     1     -11.487  16.726  69.352  1.00  0.00     0.005 OA 
HETATM   40  O   UNL     1     -12.557  15.225  67.524  1.00  0.00     0.718 OA 
BRANCH  34  41
HETATM   41  N   UNL     1      -8.777  18.140  68.050  1.00  0.00    -0.263 NA 
HETATM   42  C   UNL     1      -9.086  19.409  67.646  1.00  0.00    -0.303 A  
HETATM   43  N   UNL     1      -8.194  20.287  68.060  1.00  0.00    -0.160 NA 
HETATM   44  C   UNL     1      -7.251  19.542  68.740  1.00  0.00    -0.356 A  
HETATM   45  C   UNL     1      -6.072  19.888  69.420  1.00  0.00    -0.303 A  
HETATM   46  N   UNL     1      -5.637  21.197  69.572  1.00  0.00    -0.366 NA 
HETATM   47  N   UNL     1      -5.320  18.896  69.953  1.00  0.00    -0.206 NA 
HETATM   48  H1  UNL     1      -4.781  21.448  70.067  1.00  0.00     0.000 HD 
HETATM   49  C   UNL     1      -5.763  17.625  69.846  1.00  0.00    -0.247 A  
HETATM   50  H2  UNL     1      -6.400  21.722  70.000  1.00  0.00     0.000 HD 
HETATM   51  N   UNL     1      -6.900  17.175  69.266  1.00  0.00    -0.232 NA 
HETATM   52  C   UNL     1      -7.583  18.197  68.720  1.00  0.00    -0.274 A  
ENDBRANCH  34  41
ENDBRANCH  31  32
ENDBRANCH  30  31
ENDBRANCH  27  30
ENDBRANCH  26  27
ENDBRANCH  23  26
ENDBRANCH  22  23
ENDBRANCH  21  22
ENDBRANCH  14  21
ENDBRANCH   8  12
ENDBRANCH   4   6
TORSDOF 11
ENDMDL
MODEL      294
REMARK 921   NORMALIZED FREE ENERGY PREDICTED BY IDOCK:   -0.59 KCAL/MOL
REMARK 922        TOTAL FREE ENERGY PREDICTED BY IDOCK:   -3.17 KCAL/MOL
REMARK 923 INTER-LIGAND FREE ENERGY PREDICTED BY IDOCK:   -5.79 KCAL/MOL
REMARK 924 INTRA-LIGAND FREE ENERGY PREDICTED BY IDOCK:    2.62 KCAL/MOL
REMARK 927      BINDING AFFINITY PREDICTED BY RF-SCORE:    0.00 PKD
ROOT
HETATM    1  N   UNL     1      -5.798   4.563  73.952  1.00  0.00    -0.019 N  
HETATM    2  H1  UNL     1      -5.018   4.917  73.398  1.00  0.00     0.000 HD 
HETATM    3  H2  UNL     1      -5.643   4.285  74.921  1.00  0.00     0.000 HD 
HETATM    4  C   UNL     1      -7.035   4.458  73.417  1.00  0.00    -0.065 C  
HETATM    5  O   UNL     1      -7.976   4.031  74.086  1.00  0.00    -0.082 OA 
ENDROOT
BRANCH   4   6
HETATM    6  C   UNL     1      -7.184   4.867  72.002  1.00  0.00    -0.076 C  
HETATM    7  C   UNL     1      -8.403   4.700  71.456  1.00  0.00    -0.104 C  
HETATM    8  N   UNL     1      -8.728   5.090  70.160  1.00  0.00    -0.107 NA 
HETATM    9  C   UNL     1      -6.068   5.507  71.222  1.00  0.00    -0.033 C  
HETATM   10  C   UNL     1      -7.685   5.541  69.342  1.00  0.00    -0.086 C  
HETATM   11  C   UNL     1      -6.434   5.750  69.779  1.00  0.00    -0.042 C  
BRANCH   8  12
HETATM   12  C   UNL     1     -10.112   5.210  69.650  1.00  0.00    -0.261 C  
HETATM   13  O   UNL     1     -10.177   4.608  68.337  1.00  0.00    -0.060 OA 
HETATM   14  C   UNL     1      -9.879   5.637  67.368  1.00  0.00    -0.143 C  
HETATM   15  H   UNL     1     -12.507   7.450  69.262  1.00  0.00     0.000 HD 
HETATM   16  C   UNL     1     -10.205   6.979  68.019  1.00  0.00    -0.182 C  
HETATM   17  H   UNL     1     -11.417   8.504  67.676  1.00  0.00     0.000 HD 
HETATM   18  C   UNL     1     -10.696   6.612  69.416  1.00  0.00    -0.259 C  
HETATM   19  O   UNL     1     -11.214   7.669  67.271  1.00  0.00    -0.017 OA 
HETATM   20  O   UNL     1     -12.146   6.583  69.407  1.00  0.00     0.120 OA 
BRANCH  14  21
HETATM   21  C   UNL     1      -8.409   5.548  66.928  1.00  0.00    -0.108 C  
BRANCH  21  22
HETATM   22  O   UNL     1      -7.939   6.802  66.448  1.00  0.00    -0.101 OA 
BRANCH  22  23
HETATM   23  P   UNL     1      -6.370   7.091  66.495  1.00  0.00    -0.053 P  
HETATM   24  O   UNL     1      -5.462   6.000  66.038  1.00  0.00    -0.012 OA 
HETATM   25  O   UNL     1      -6.239   8.331  65.479  1.00  0.00    -0.045 OA 
BRANCH  23  26
HETATM   26  O   UNL     1      -6.051   7.763  67.890  1.00  0.00    -0.042 OA 
BRANCH  26  27
HETATM   27  P   UNL     1      -6.416   9.249  68.287  1.00  0.00    -0.054 P  
HETATM   28  O   UNL     1      -5.696  10.110  67.137  1.00  0.00    -0.045 OA 
HETATM   29  O   UNL     1      -5.982   9.744  69.625  1.00  0.00    -0.039 OA 
BRANCH  27  30
HETATM   30  O   UNL     1      -7.974   9.459  67.968  1.00  0.00    -0.092 OA 
BRANCH  30  31
HETATM   31  C   UNL     1      -8.526  10.767  67.856  1.00  0.00    -0.122 C  
BRANCH  31  32
HETATM   32  C   UNL     1      -9.446  10.937  66.652  1.00  0.00    -0.179 C  
HETATM   33  O   UNL     1     -10.171  12.181  66.716  1.00  0.00    -0.202 OA 
HETATM   34  C   UNL     1     -10.670  12.359  65.377  1.00  0.00    -0.282 C  
HETATM   35  H   UNL     1      -8.043   9.718  63.956  1.00  0.00     0.000 HD 
HETATM   36  C   UNL     1      -9.523  11.914  64.455  1.00  0.00     0.089 C  
HETATM   37  C   UNL     1      -8.681  10.987  65.334  1.00  0.00    -0.116 C  
HETATM   38  H   UNL     1      -9.256  10.961  62.705  1.00  0.00     0.000 HD 
HETATM   39  O   UNL     1      -9.964  11.236  63.275  1.00  0.00    -0.332 OA 
HETATM   40  O   UNL     1      -8.519   9.687  64.776  1.00  0.00    -0.138 OA 
BRANCH  34  41
HETATM   41  N   UNL     1     -11.077  13.733  65.163  1.00  0.00    -0.315 NA 
HETATM   42  C   UNL     1     -12.246  14.191  64.623  1.00  0.00    -0.445 A  
HETATM   43  N   UNL     1     -12.302  15.509  64.620  1.00  0.00    -0.004 NA 
HETATM   44  C   UNL     1     -11.099  15.917  65.158  1.00  0.00    -0.311 A  
HETATM   45  C   UNL     1     -10.557  17.184  65.432  1.00  0.00    -0.104 A  
HETATM   46  N   UNL     1     -11.247  18.368  65.219  1.00  0.00    -0.000 NA 
HETATM   47  N   UNL     1      -9.299  17.254  65.927  1.00  0.00    -0.524 NA 
HETATM   48  H1  UNL     1     -10.854  19.288  65.418  1.00  0.00     0.000 HD 
HETATM   49  C   UNL     1      -8.641  16.102  66.178  1.00  0.00    -0.296 A  
HETATM   50  H2  UNL     1     -12.131  18.300  65.725  1.00  0.00     0.000 HD 
HETATM   51  N   UNL     1      -9.073  14.831  66.007  1.00  0.00    -0.141 NA 
HETATM   52  C   UNL     1     -10.310  14.824  65.477  1.00  0.00    -0.364 A  
ENDBRANCH  34  41
ENDBRANCH  31  32
ENDBRANCH  30  31
ENDBRANCH  27  30
ENDBRANCH  26  27
ENDBRANCH  23  26
ENDBRANCH  22  23
ENDBRANCH  21  22
ENDBRANCH  14  21
ENDBRANCH   8  12
ENDBRANCH   4   6
TORSDOF 11
ENDMDL
MODEL      295
REMARK 921   NORMALIZED FREE ENERGY PREDICTED BY IDOCK:   -0.55 KCAL/MOL
REMARK 922        TOTAL FREE ENERGY PREDICTED BY IDOCK:   -3.10 KCAL/MOL
REMARK 923 INTER-LIGAND FREE ENERGY PREDICTED BY IDOCK:   -2.83 KCAL/MOL
REMARK 924 INTRA-LIGAND FREE ENERGY PREDICTED BY IDOCK:   -0.28 KCAL/MOL
REMARK 927      BINDING AFFINITY PREDICTED BY RF-SCORE:    0.00 PKD
ROOT
HETATM    1  N   UNL     1     -11.767   4.408  65.191  1.00  0.00    -0.251 N  
HETATM    2  H1  UNL     1     -11.899   5.096  64.449  1.00  0.00     0.000 HD 
HETATM    3  H2  UNL     1     -12.552   3.827  65.486  1.00  0.00     0.000 HD 
HETATM    4  C   UNL     1     -10.564   4.258  65.787  1.00  0.00     0.020 C  
HETATM    5  O   UNL     1     -10.404   3.428  66.683  1.00  0.00     0.762 OA 
ENDROOT
BRANCH   4   6
HETATM    6  C   UNL     1      -9.474   5.144  65.318  1.00  0.00    -0.009 C  
HETATM    7  C   UNL     1      -9.100   6.128  66.157  1.00  0.00    -0.145 C  
HETATM    8  N   UNL     1      -8.052   7.007  65.897  1.00  0.00    -0.112 NA 
HETATM    9  C   UNL     1      -8.758   4.925  64.014  1.00  0.00    -0.119 C  
HETATM   10  C   UNL     1      -7.462   6.948  64.629  1.00  0.00    -0.098 C  
HETATM   11  C   UNL     1      -7.751   6.008  63.716  1.00  0.00    -0.101 C  
BRANCH   8  12
HETATM   12  C   UNL     1      -7.424   7.876  66.916  1.00  0.00    -0.091 C  
HETATM   13  O   UNL     1      -8.132   9.135  66.952  1.00  0.00    -0.110 OA 
HETATM   14  C   UNL     1      -7.497  10.023  66.005  1.00  0.00    -0.112 C  
HETATM   15  H   UNL     1      -4.455   8.976  67.857  1.00  0.00     0.000 HD 
HETATM   16  C   UNL     1      -6.065   9.532  65.815  1.00  0.00    -0.060 C  
HETATM   17  H   UNL     1      -4.238  10.243  66.078  1.00  0.00     0.000 HD 
HETATM   18  C   UNL     1      -5.961   8.308  66.721  1.00  0.00    -0.053 C  
HETATM   19  O   UNL     1      -5.130  10.549  66.196  1.00  0.00    -0.048 OA 
HETATM   20  O   UNL     1      -5.359   8.709  67.977  1.00  0.00    -0.034 OA 
BRANCH  14  21
HETATM   21  C   UNL     1      -8.283  10.045  64.684  1.00  0.00    -0.163 C  
BRANCH  21  22
HETATM   22  O   UNL     1      -9.669   9.821  64.907  1.00  0.00    -0.296 OA 
BRANCH  22  23
HETATM   23  P   UNL     1     -10.536  11.005  65.537  1.00  0.00    -0.096 P  
HETATM   24  O   UNL     1     -11.401  11.786  64.605  1.00  0.00    -0.307 OA 
HETATM   25  O   UNL     1     -11.477  10.204  66.566  1.00  0.00     0.337 OA 
BRANCH  23  26
HETATM   26  O   UNL     1      -9.593  11.822  66.507  1.00  0.00    -0.199 OA 
BRANCH  26  27
HETATM   27  P   UNL     1     -10.049  13.047  67.397  1.00  0.00    -0.238 P  
HETATM   28  O   UNL     1     -11.423  12.523  68.045  1.00  0.00    -0.272 OA 
HETATM   29  O   UNL     1     -10.284  14.355  66.722  1.00  0.00    -0.263 OA 
BRANCH  27  30
HETATM   30  O   UNL     1      -9.061  13.113  68.659  1.00  0.00    -0.100 OA 
BRANCH  30  31
HETATM   31  C   UNL     1      -7.659  12.925  68.499  1.00  0.00    -0.120 C  
BRANCH  31  32
HETATM   32  C   UNL     1      -6.835  14.154  68.873  1.00  0.00    -0.106 C  
HETATM   33  O   UNL     1      -6.921  15.173  67.858  1.00  0.00    -0.120 OA 
HETATM   34  C   UNL     1      -6.433  16.357  68.516  1.00  0.00    -0.134 C  
HETATM   35  H   UNL     1      -6.987  14.698  72.099  1.00  0.00     0.000 HD 
HETATM   36  C   UNL     1      -7.023  16.304  69.935  1.00  0.00     0.191 C  
HETATM   37  C   UNL     1      -7.327  14.820  70.153  1.00  0.00     0.229 C  
HETATM   38  H   UNL     1      -6.500  16.763  71.821  1.00  0.00     0.000 HD 
HETATM   39  O   UNL     1      -6.136  16.796  70.944  1.00  0.00     0.434 OA 
HETATM   40  O   UNL     1      -6.681  14.283  71.302  1.00  0.00     0.361 OA 
BRANCH  34  41
HETATM   41  N   UNL     1      -6.818  17.545  67.780  1.00  0.00    -0.172 NA 
HETATM   42  C   UNL     1      -7.655  18.548  68.178  1.00  0.00    -0.274 A  
HETATM   43  N   UNL     1      -7.745  19.502  67.271  1.00  0.00    -0.250 NA 
HETATM   44  C   UNL     1      -6.948  19.076  66.228  1.00  0.00    -0.230 A  
HETATM   45  C   UNL     1      -6.619  19.644  64.986  1.00  0.00    -0.226 A  
HETATM   46  N   UNL     1      -7.062  20.894  64.579  1.00  0.00    -0.388 NA 
HETATM   47  N   UNL     1      -5.831  18.936  64.142  1.00  0.00    -0.393 NA 
HETATM   48  H1  UNL     1      -6.822  21.306  63.678  1.00  0.00     0.000 HD 
HETATM   49  C   UNL     1      -5.361  17.738  64.552  1.00  0.00     0.757 A  
HETATM   50  H2  UNL     1      -6.789  21.562  65.301  1.00  0.00     0.000 HD 
HETATM   51  N   UNL     1      -5.563  17.115  65.736  1.00  0.00    -0.030 NA 
HETATM   52  C   UNL     1      -6.383  17.844  66.515  1.00  0.00    -0.197 A  
ENDBRANCH  34  41
ENDBRANCH  31  32
ENDBRANCH  30  31
ENDBRANCH  27  30
ENDBRANCH  26  27
ENDBRANCH  23  26
ENDBRANCH  22  23
ENDBRANCH  21  22
ENDBRANCH  14  21
ENDBRANCH   8  12
ENDBRANCH   4   6
TORSDOF 11
ENDMDL
MODEL      296
REMARK 921   NORMALIZED FREE ENERGY PREDICTED BY IDOCK:   -0.34 KCAL/MOL
REMARK 922        TOTAL FREE ENERGY PREDICTED BY IDOCK:   -2.76 KCAL/MOL
REMARK 923 INTER-LIGAND FREE ENERGY PREDICTED BY IDOCK:   -1.20 KCAL/MOL
REMARK 924 INTRA-LIGAND FREE ENERGY PREDICTED BY IDOCK:   -1.56 KCAL/MOL
REMARK 927      BINDING AFFINITY PREDICTED BY RF-SCORE:    0.00 PKD
ROOT
HETATM    1  N   UNL     1      -6.272  17.151  69.030  1.00  0.00    -0.182 N  
HETATM    2  H1  UNL     1      -7.170  16.674  68.948  1.00  0.00     0.000 HD 
HETATM    3  H2  UNL     1      -5.408  16.613  68.964  1.00  0.00     0.000 HD 
HETATM    4  C   UNL     1      -6.214  18.487  69.226  1.00  0.00    -0.256 C  
HETATM    5  O   UNL     1      -5.131  19.062  69.326  1.00  0.00    -0.182 OA 
ENDROOT
BRANCH   4   6
HETATM    6  C   UNL     1      -7.508  19.201  69.327  1.00  0.00    -0.219 C  
HETATM    7  C   UNL     1      -8.270  19.216  68.218  1.00  0.00    -0.334 C  
HETATM    8  N   UNL     1      -9.538  19.789  68.161  1.00  0.00    -0.369 NA 
HETATM    9  C   UNL     1      -7.996  19.815  70.610  1.00  0.00     1.533 C  
HETATM   10  C   UNL     1      -9.968  20.513  69.279  1.00  0.00     0.432 C  
HETATM   11  C   UNL     1      -9.295  20.563  70.438  1.00  0.00     1.593 C  
BRANCH   8  12
HETATM   12  C   UNL     1     -10.511  19.548  67.073  1.00  0.00    -0.472 C  
HETATM   13  O   UNL     1     -11.582  18.722  67.582  1.00  0.00     0.487 OA 
HETATM   14  C   UNL     1     -11.210  17.342  67.366  1.00  0.00     0.253 C  
HETATM   15  H   UNL     1     -10.627  18.583  63.916  1.00  0.00     0.000 HD 
HETATM   16  C   UNL     1     -10.206  17.318  66.217  1.00  0.00    -0.342 C  
HETATM   17  H   UNL     1     -10.081  16.516  64.413  1.00  0.00     0.000 HD 
HETATM   18  C   UNL     1     -10.049  18.783  65.822  1.00  0.00    -0.029 C  
HETATM   19  O   UNL     1     -10.706  16.531  65.128  1.00  0.00    -0.606 OA 
HETATM   20  O   UNL     1     -10.913  19.056  64.690  1.00  0.00     0.060 OA 
BRANCH  14  21
HETATM   21  C   UNL     1     -10.632  16.736  68.655  1.00  0.00    -0.353 C  
BRANCH  21  22
HETATM   22  O   UNL     1      -9.474  15.956  68.381  1.00  0.00    -0.195 OA 
BRANCH  22  23
HETATM   23  P   UNL     1      -9.391  14.484  68.993  1.00  0.00     0.087 P  
HETATM   24  O   UNL     1     -10.384  14.127  70.048  1.00  0.00     0.370 OA 
HETATM   25  O   UNL     1      -9.670  13.578  67.694  1.00  0.00    -0.218 OA 
BRANCH  23  26
HETATM   26  O   UNL     1      -7.870  14.179  69.297  1.00  0.00    -0.012 OA 
BRANCH  26  27
HETATM   27  P   UNL     1      -6.854  13.526  68.276  1.00  0.00    -0.148 P  
HETATM   28  O   UNL     1      -5.516  14.385  68.510  1.00  0.00    -0.086 OA 
HETATM   29  O   UNL     1      -7.209  13.539  66.829  1.00  0.00     0.330 OA 
BRANCH  27  30
HETATM   30  O   UNL     1      -6.457  12.083  68.855  1.00  0.00    -0.070 OA 
BRANCH  30  31
HETATM   31  C   UNL     1      -7.453  11.201  69.360  1.00  0.00    -0.026 C  
BRANCH  31  32
HETATM   32  C   UNL     1      -7.580   9.907  68.563  1.00  0.00    -0.080 C  
HETATM   33  O   UNL     1      -7.933   8.798  69.413  1.00  0.00    -0.096 OA 
HETATM   34  C   UNL     1      -8.378   7.784  68.491  1.00  0.00    -0.129 C  
HETATM   35  H   UNL     1      -8.875  10.500  65.613  1.00  0.00     0.000 HD 
HETATM   36  C   UNL     1      -9.199   8.535  67.430  1.00  0.00    -0.140 C  
HETATM   37  C   UNL     1      -8.683   9.973  67.512  1.00  0.00    -0.125 C  
HETATM   38  H   UNL     1      -9.550   8.476  65.451  1.00  0.00     0.000 HD 
HETATM   39  O   UNL     1      -9.043   8.012  66.107  1.00  0.00    -0.176 OA 
HETATM   40  O   UNL     1      -8.188  10.458  66.268  1.00  0.00    -0.133 OA 
BRANCH  34  41
HETATM   41  N   UNL     1      -9.135   6.762  69.184  1.00  0.00    -0.139 NA 
HETATM   42  C   UNL     1     -10.388   6.298  68.894  1.00  0.00    -0.204 A  
HETATM   43  N   UNL     1     -10.753   5.328  69.708  1.00  0.00    -0.222 NA 
HETATM   44  C   UNL     1      -9.695   5.180  70.582  1.00  0.00    -0.192 A  
HETATM   45  C   UNL     1      -9.465   4.313  71.663  1.00  0.00    -0.148 A  
HETATM   46  N   UNL     1     -10.355   3.318  72.043  1.00  0.00    -0.032 NA 
HETATM   47  N   UNL     1      -8.320   4.454  72.371  1.00  0.00    -0.107 NA 
HETATM   48  H1  UNL     1     -10.187   2.689  72.828  1.00  0.00     0.000 HD 
HETATM   49  C   UNL     1      -7.431   5.392  71.976  1.00  0.00    -0.098 A  
HETATM   50  H2  UNL     1     -10.532   2.739  71.222  1.00  0.00     0.000 HD 
HETATM   51  N   UNL     1      -7.515   6.243  70.928  1.00  0.00    -0.086 NA 
HETATM   52  C   UNL     1      -8.688   6.085  70.288  1.00  0.00    -0.143 A  
ENDBRANCH  34  41
ENDBRANCH  31  32
ENDBRANCH  30  31
ENDBRANCH  27  30
ENDBRANCH  26  27
ENDBRANCH  23  26
ENDBRANCH  22  23
ENDBRANCH  21  22
ENDBRANCH  14  21
ENDBRANCH   8  12
ENDBRANCH   4   6
TORSDOF 11
ENDMDL
MODEL      297
REMARK 921   NORMALIZED FREE ENERGY PREDICTED BY IDOCK:   -0.26 KCAL/MOL
REMARK 922        TOTAL FREE ENERGY PREDICTED BY IDOCK:   -2.64 KCAL/MOL
REMARK 923 INTER-LIGAND FREE ENERGY PREDICTED BY IDOCK:   -2.41 KCAL/MOL
REMARK 924 INTRA-LIGAND FREE ENERGY PREDICTED BY IDOCK:   -0.22 KCAL/MOL
REMARK 927      BINDING AFFINITY PREDICTED BY RF-SCORE:    0.00 PKD
ROOT
HETATM    1  N   UNL     1      -5.544  16.362  70.523  1.00  0.00    -0.144 N  
HETATM    2  H1  UNL     1      -4.584  16.047  70.382  1.00  0.00     0.000 HD 
HETATM    3  H2  UNL     1      -5.724  17.336  70.768  1.00  0.00     0.000 HD 
HETATM    4  C   UNL     1      -6.579  15.505  70.388  1.00  0.00     0.184 C  
HETATM    5  O   UNL     1      -7.738  15.885  70.559  1.00  0.00     1.107 OA 
ENDROOT
BRANCH   4   6
HETATM    6  C   UNL     1      -6.243  14.104  70.045  1.00  0.00    -0.151 C  
HETATM    7  C   UNL     1      -6.843  13.596  68.952  1.00  0.00    -0.110 C  
HETATM    8  N   UNL     1      -6.590  12.320  68.456  1.00  0.00    -0.066 NA 
HETATM    9  C   UNL     1      -5.231  13.302  70.815  1.00  0.00    -0.139 C  
HETATM   10  C   UNL     1      -5.780  11.478  69.228  1.00  0.00    -0.052 C  
HETATM   11  C   UNL     1      -5.128  11.878  70.330  1.00  0.00    -0.101 C  
BRANCH   8  12
HETATM   12  C   UNL     1      -6.984  11.858  67.107  1.00  0.00    -0.142 C  
HETATM   13  O   UNL     1      -8.407  11.604  67.101  1.00  0.00    -0.150 OA 
HETATM   14  C   UNL     1      -8.607  10.224  67.479  1.00  0.00    -0.118 C  
HETATM   15  H   UNL     1      -6.102   9.671  64.795  1.00  0.00     0.000 HD 
HETATM   16  C   UNL     1      -7.318   9.474  67.152  1.00  0.00    -0.088 C  
HETATM   17  H   UNL     1      -6.769   7.962  66.001  1.00  0.00     0.000 HD 
HETATM   18  C   UNL     1      -6.396  10.543  66.573  1.00  0.00    -0.094 C  
HETATM   19  O   UNL     1      -7.571   8.429  66.204  1.00  0.00    -0.086 OA 
HETATM   20  O   UNL     1      -6.466  10.484  65.126  1.00  0.00    -0.118 OA 
BRANCH  14  21
HETATM   21  C   UNL     1      -8.973  10.125  68.968  1.00  0.00    -0.167 C  
BRANCH  21  22
HETATM   22  O   UNL     1      -8.877   8.784  69.433  1.00  0.00    -0.139 OA 
BRANCH  22  23
HETATM   23  P   UNL     1     -10.219   8.036  69.869  1.00  0.00    -0.211 P  
HETATM   24  O   UNL     1     -11.505   8.590  69.356  1.00  0.00     0.244 OA 
HETATM   25  O   UNL     1      -9.995   6.575  69.234  1.00  0.00    -0.149 OA 
BRANCH  23  26
HETATM   26  O   UNL     1     -10.121   7.748  71.420  1.00  0.00    -0.181 OA 
BRANCH  26  27
HETATM   27  P   UNL     1      -8.866   7.121  72.150  1.00  0.00    -0.128 P  
HETATM   28  O   UNL     1      -9.522   6.408  73.433  1.00  0.00    -0.137 OA 
HETATM   29  O   UNL     1      -7.781   8.042  72.593  1.00  0.00    -0.105 OA 
BRANCH  27  30
HETATM   30  O   UNL     1      -8.371   5.879  71.265  1.00  0.00    -0.121 OA 
BRANCH  30  31
HETATM   31  C   UNL     1      -9.185   4.721  71.111  1.00  0.00    -0.142 C  
BRANCH  31  32
HETATM   32  C   UNL     1      -8.454   3.544  70.473  1.00  0.00    -0.061 C  
HETATM   33  O   UNL     1      -8.804   3.400  69.083  1.00  0.00    -0.083 OA 
HETATM   34  C   UNL     1      -7.780   2.534  68.557  1.00  0.00    -0.054 C  
HETATM   35  H   UNL     1      -5.422   3.285  71.684  1.00  0.00     0.000 HD 
HETATM   36  C   UNL     1      -6.474   3.004  69.218  1.00  0.00    -0.029 C  
HETATM   37  C   UNL     1      -6.939   3.719  70.489  1.00  0.00    -0.034 C  
HETATM   38  H   UNL     1      -4.766   2.229  69.943  1.00  0.00     0.000 HD 
HETATM   39  O   UNL     1      -5.573   1.939  69.534  1.00  0.00    -0.016 OA 
HETATM   40  O   UNL     1      -6.366   3.177  71.674  1.00  0.00    -0.014 OA 
BRANCH  34  41
HETATM   41  N   UNL     1      -7.746   2.602  67.110  1.00  0.00    -0.069 NA 
HETATM   42  C   UNL     1      -8.075   1.626  66.213  1.00  0.00    -0.076 A  
HETATM   43  N   UNL     1      -7.970   2.048  64.968  1.00  0.00    -0.076 NA 
HETATM   44  C   UNL     1      -7.526   3.351  65.070  1.00  0.00    -0.073 A  
HETATM   45  C   UNL     1      -7.235   4.337  64.114  1.00  0.00    -0.054 A  
HETATM   46  N   UNL     1      -7.410   4.150  62.750  1.00  0.00    -0.047 NA 
HETATM   47  N   UNL     1      -6.758   5.530  64.541  1.00  0.00    -0.042 NA 
HETATM   48  H1  UNL     1      -7.199   4.867  62.056  1.00  0.00     0.000 HD 
HETATM   49  C   UNL     1      -6.628   5.731  65.871  1.00  0.00    -0.044 A  
HETATM   50  H2  UNL     1      -8.379   3.863  62.605  1.00  0.00     0.000 HD 
HETATM   51  N   UNL     1      -6.923   4.885  66.884  1.00  0.00    -0.062 NA 
HETATM   52  C   UNL     1      -7.353   3.705  66.398  1.00  0.00    -0.072 A  
ENDBRANCH  34  41
ENDBRANCH  31  32
ENDBRANCH  30  31
ENDBRANCH  27  30
ENDBRANCH  26  27
ENDBRANCH  23  26
ENDBRANCH  22  23
ENDBRANCH  21  22
ENDBRANCH  14  21
ENDBRANCH   8  12
ENDBRANCH   4   6
TORSDOF 11
ENDMDL
MODEL      298
REMARK 921   NORMALIZED FREE ENERGY PREDICTED BY IDOCK:   -0.26 KCAL/MOL
REMARK 922        TOTAL FREE ENERGY PREDICTED BY IDOCK:   -2.62 KCAL/MOL
REMARK 923 INTER-LIGAND FREE ENERGY PREDICTED BY IDOCK:   -5.22 KCAL/MOL
REMARK 924 INTRA-LIGAND FREE ENERGY PREDICTED BY IDOCK:    2.59 KCAL/MOL
REMARK 927      BINDING AFFINITY PREDICTED BY RF-SCORE:    0.00 PKD
ROOT
HETATM    1  N   UNL     1      -8.879   7.752  73.377  1.00  0.00    -0.213 N  
HETATM    2  H1  UNL     1      -8.216   6.977  73.370  1.00  0.00     0.000 HD 
HETATM    3  H2  UNL     1      -8.976   8.326  74.215  1.00  0.00     0.000 HD 
HETATM    4  C   UNL     1      -9.631   8.029  72.289  1.00  0.00    -0.223 C  
HETATM    5  O   UNL     1     -10.431   8.964  72.297  1.00  0.00    -0.313 OA 
ENDROOT
BRANCH   4   6
HETATM    6  C   UNL     1      -9.449   7.147  71.113  1.00  0.00    -0.157 C  
HETATM    7  C   UNL     1      -8.651   7.612  70.134  1.00  0.00    -0.140 C  
HETATM    8  N   UNL     1      -8.326   6.884  68.992  1.00  0.00    -0.124 NA 
HETATM    9  C   UNL     1     -10.051   5.771  71.032  1.00  0.00    -0.260 C  
HETATM   10  C   UNL     1      -8.988   5.667  68.794  1.00  0.00    -0.115 C  
HETATM   11  C   UNL     1      -9.799   5.105  69.702  1.00  0.00    -0.286 C  
BRANCH   8  12
HETATM   12  C   UNL     1      -7.222   7.233  68.070  1.00  0.00    -0.091 C  
HETATM   13  O   UNL     1      -7.756   8.027  66.987  1.00  0.00    -0.097 OA 
HETATM   14  C   UNL     1      -8.161   7.119  65.937  1.00  0.00    -0.122 C  
HETATM   15  H   UNL     1      -4.715   5.832  66.441  1.00  0.00     0.000 HD 
HETATM   16  C   UNL     1      -7.354   5.835  66.114  1.00  0.00    -0.078 C  
HETATM   17  H   UNL     1      -6.057   4.777  65.060  1.00  0.00     0.000 HD 
HETATM   18  C   UNL     1      -6.483   6.101  67.338  1.00  0.00    -0.046 C  
HETATM   19  O   UNL     1      -6.559   5.576  64.950  1.00  0.00    -0.038 OA 
HETATM   20  O   UNL     1      -5.172   6.531  66.893  1.00  0.00    -0.011 OA 
BRANCH  14  21
HETATM   21  C   UNL     1      -9.675   6.866  66.003  1.00  0.00     0.228 C  
BRANCH  21  22
HETATM   22  O   UNL     1     -10.340   7.910  66.703  1.00  0.00    -0.291 OA 
BRANCH  22  23
HETATM   23  P   UNL     1     -10.020   9.420  66.295  1.00  0.00    -0.218 P  
HETATM   24  O   UNL     1     -11.168  10.264  65.851  1.00  0.00     0.399 OA 
HETATM   25  O   UNL     1      -9.446  10.013  67.675  1.00  0.00    -0.143 OA 
BRANCH  23  26
HETATM   26  O   UNL     1      -8.735   9.403  65.375  1.00  0.00    -0.145 OA 
BRANCH  26  27
HETATM   27  P   UNL     1      -8.071  10.679  64.719  1.00  0.00     0.172 P  
HETATM   28  O   UNL     1      -9.330  11.645  64.468  1.00  0.00    -0.098 OA 
HETATM   29  O   UNL     1      -7.317  10.500  63.445  1.00  0.00    -0.083 OA 
BRANCH  27  30
HETATM   30  O   UNL     1      -7.260  11.442  65.875  1.00  0.00     0.118 OA 
BRANCH  30  31
HETATM   31  C   UNL     1      -6.017  10.937  66.349  1.00  0.00    -0.131 C  
BRANCH  31  32
HETATM   32  C   UNL     1      -5.433  11.747  67.503  1.00  0.00    -0.077 C  
HETATM   33  O   UNL     1      -5.640  13.159  67.311  1.00  0.00    -0.349 OA 
HETATM   34  C   UNL     1      -5.393  13.725  68.612  1.00  0.00    -0.087 C  
HETATM   35  H   UNL     1      -5.834  10.157  70.338  1.00  0.00     0.000 HD 
HETATM   36  C   UNL     1      -6.034  12.744  69.607  1.00  0.00    -0.121 C  
HETATM   37  C   UNL     1      -6.093  11.422  68.838  1.00  0.00    -0.050 C  
HETATM   38  H   UNL     1      -5.690  11.987  71.438  1.00  0.00     0.000 HD 
HETATM   39  O   UNL     1      -5.295  12.594  70.823  1.00  0.00    -0.138 OA 
HETATM   40  O   UNL     1      -5.423  10.359  69.506  1.00  0.00    -0.038 OA 
BRANCH  34  41
HETATM   41  N   UNL     1      -5.937  15.065  68.698  1.00  0.00    -0.085 NA 
HETATM   42  C   UNL     1      -5.308  16.205  69.115  1.00  0.00    -0.111 A  
HETATM   43  N   UNL     1      -6.092  17.261  69.021  1.00  0.00    -0.188 NA 
HETATM   44  C   UNL     1      -7.292  16.771  68.547  1.00  0.00    -0.205 A  
HETATM   45  C   UNL     1      -8.513  17.387  68.225  1.00  0.00    -0.249 A  
HETATM   46  N   UNL     1      -8.718  18.757  68.302  1.00  0.00    -0.322 NA 
HETATM   47  N   UNL     1      -9.543  16.606  67.822  1.00  0.00    -0.234 NA 
HETATM   48  H1  UNL     1      -9.604  19.204  68.068  1.00  0.00     0.000 HD 
HETATM   49  C   UNL     1      -9.334  15.277  67.703  1.00  0.00    -0.199 A  
HETATM   50  H2  UNL     1      -7.994  19.204  67.738  1.00  0.00     0.000 HD 
HETATM   51  N   UNL     1      -8.198  14.579  67.930  1.00  0.00    -0.142 NA 
HETATM   52  C   UNL     1      -7.224  15.400  68.366  1.00  0.00    -0.114 A  
ENDBRANCH  34  41
ENDBRANCH  31  32
ENDBRANCH  30  31
ENDBRANCH  27  30
ENDBRANCH  26  27
ENDBRANCH  23  26
ENDBRANCH  22  23
ENDBRANCH  21  22
ENDBRANCH  14  21
ENDBRANCH   8  12
ENDBRANCH   4   6
TORSDOF 11
ENDMDL
MODEL      299
REMARK 921   NORMALIZED FREE ENERGY PREDICTED BY IDOCK:   -0.22 KCAL/MOL
REMARK 922        TOTAL FREE ENERGY PREDICTED BY IDOCK:   -2.56 KCAL/MOL
REMARK 923 INTER-LIGAND FREE ENERGY PREDICTED BY IDOCK:   -2.69 KCAL/MOL
REMARK 924 INTRA-LIGAND FREE ENERGY PREDICTED BY IDOCK:    0.13 KCAL/MOL
REMARK 927      BINDING AFFINITY PREDICTED BY RF-SCORE:    0.00 PKD
ROOT
HETATM    1  N   UNL     1      -8.786   6.666  72.930  1.00  0.00    -0.126 N  
HETATM    2  H1  UNL     1      -8.733   6.146  72.054  1.00  0.00     0.000 HD 
HETATM    3  H2  UNL     1      -7.980   6.686  73.555  1.00  0.00     0.000 HD 
HETATM    4  C   UNL     1      -9.913   7.330  73.272  1.00  0.00    -0.273 C  
HETATM    5  O   UNL     1      -9.977   7.958  74.329  1.00  0.00     0.549 OA 
ENDROOT
BRANCH   4   6
HETATM    6  C   UNL     1     -11.048   7.247  72.325  1.00  0.00    -0.298 C  
HETATM    7  C   UNL     1     -10.738   7.283  71.016  1.00  0.00    -0.231 C  
HETATM    8  N   UNL     1     -11.678   7.154  69.997  1.00  0.00    -0.124 NA 
HETATM    9  C   UNL     1     -12.469   7.055  72.779  1.00  0.00     0.570 C  
HETATM   10  C   UNL     1     -13.028   7.135  70.365  1.00  0.00     0.590 C  
HETATM   11  C   UNL     1     -13.453   7.091  71.636  1.00  0.00    -0.350 C  
BRANCH   8  12
HETATM   12  C   UNL     1     -11.339   6.876  68.583  1.00  0.00     0.094 C  
HETATM   13  O   UNL     1     -10.838   5.524  68.484  1.00  0.00    -0.166 OA 
HETATM   14  C   UNL     1      -9.406   5.574  68.672  1.00  0.00    -0.125 C  
HETATM   15  H   UNL     1      -9.676   8.187  66.049  1.00  0.00     0.000 HD 
HETATM   16  C   UNL     1      -8.950   6.984  68.306  1.00  0.00    -0.128 C  
HETATM   17  H   UNL     1      -7.729   7.822  66.995  1.00  0.00     0.000 HD 
HETATM   18  C   UNL     1     -10.234   7.705  67.910  1.00  0.00    -0.198 C  
HETATM   19  O   UNL     1      -8.013   6.944  67.222  1.00  0.00    -0.111 OA 
HETATM   20  O   UNL     1     -10.360   7.674  66.466  1.00  0.00    -0.222 OA 
BRANCH  14  21
HETATM   21  C   UNL     1      -9.044   5.204  70.119  1.00  0.00    -0.128 C  
BRANCH  21  22
HETATM   22  O   UNL     1      -9.335   3.838  70.389  1.00  0.00    -0.131 OA 
BRANCH  22  23
HETATM   23  P   UNL     1      -8.554   3.118  71.580  1.00  0.00    -0.072 P  
HETATM   24  O   UNL     1      -8.936   3.496  72.972  1.00  0.00    -0.094 OA 
HETATM   25  O   UNL     1      -8.945   1.576  71.338  1.00  0.00    -0.057 OA 
BRANCH  23  26
HETATM   26  O   UNL     1      -7.015   3.136  71.221  1.00  0.00    -0.031 OA 
BRANCH  26  27
HETATM   27  P   UNL     1      -6.425   3.289  69.762  1.00  0.00    -0.034 P  
HETATM   28  O   UNL     1      -7.589   2.671  68.842  1.00  0.00    -0.047 OA 
HETATM   29  O   UNL     1      -5.134   2.610  69.454  1.00  0.00    -0.010 OA 
BRANCH  27  30
HETATM   30  O   UNL     1      -6.466   4.849  69.392  1.00  0.00    -0.033 OA 
BRANCH  30  31
HETATM   31  C   UNL     1      -5.293   5.527  68.956  1.00  0.00    -0.003 C  
BRANCH  31  32
HETATM   32  C   UNL     1      -5.125   6.911  69.576  1.00  0.00    -0.014 C  
HETATM   33  O   UNL     1      -5.253   7.949  68.585  1.00  0.00    -0.025 OA 
HETATM   34  C   UNL     1      -5.454   9.145  69.362  1.00  0.00    -0.035 C  
HETATM   35  H   UNL     1      -6.454   6.996  72.568  1.00  0.00     0.000 HD 
HETATM   36  C   UNL     1      -6.393   8.731  70.506  1.00  0.00    -0.038 C  
HETATM   37  C   UNL     1      -6.195   7.218  70.618  1.00  0.00    -0.035 C  
HETATM   38  H   UNL     1      -6.682   9.121  72.457  1.00  0.00     0.000 HD 
HETATM   39  O   UNL     1      -6.102   9.376  71.750  1.00  0.00    -0.191 OA 
HETATM   40  O   UNL     1      -5.789   6.805  71.918  1.00  0.00    -0.037 OA 
BRANCH  34  41
HETATM   41  N   UNL     1      -5.991  10.207  68.535  1.00  0.00    -0.041 NA 
HETATM   42  C   UNL     1      -6.714  10.092  67.381  1.00  0.00    -0.073 A  
HETATM   43  N   UNL     1      -7.082  11.269  66.914  1.00  0.00    -0.131 NA 
HETATM   44  C   UNL     1      -6.546  12.185  67.795  1.00  0.00    -0.100 A  
HETATM   45  C   UNL     1      -6.591  13.588  67.858  1.00  0.00    -0.152 A  
HETATM   46  N   UNL     1      -7.304  14.367  66.959  1.00  0.00    -0.335 NA 
HETATM   47  N   UNL     1      -5.903  14.212  68.843  1.00  0.00    -0.084 NA 
HETATM   48  H1  UNL     1      -7.336  15.386  67.004  1.00  0.00     0.000 HD 
HETATM   49  C   UNL     1      -5.244  13.455  69.747  1.00  0.00    -0.088 A  
HETATM   50  H2  UNL     1      -8.268  14.032  66.964  1.00  0.00     0.000 HD 
HETATM   51  N   UNL     1      -5.171  12.106  69.823  1.00  0.00    -0.073 NA 
HETATM   52  C   UNL     1      -5.838  11.543  68.798  1.00  0.00    -0.046 A  
ENDBRANCH  34  41
ENDBRANCH  31  32
ENDBRANCH  30  31
ENDBRANCH  27  30
ENDBRANCH  26  27
ENDBRANCH  23  26
ENDBRANCH  22  23
ENDBRANCH  21  22
ENDBRANCH  14  21
ENDBRANCH   8  12
ENDBRANCH   4   6
TORSDOF 11
ENDMDL
MODEL      300
REMARK 921   NORMALIZED FREE ENERGY PREDICTED BY IDOCK:   -0.15 KCAL/MOL
REMARK 922        TOTAL FREE ENERGY PREDICTED BY IDOCK:   -2.45 KCAL/MOL
REMARK 923 INTER-LIGAND FREE ENERGY PREDICTED BY IDOCK:   -3.27 KCAL/MOL
REMARK 924 INTRA-LIGAND FREE ENERGY PREDICTED BY IDOCK:    0.81 KCAL/MOL
REMARK 927      BINDING AFFINITY PREDICTED BY RF-SCORE:    0.00 PKD
ROOT
HETATM    1  N   UNL     1     -11.477   3.859  64.539  1.00  0.00    -0.108 N  
HETATM    2  H1  UNL     1     -11.829   4.588  63.918  1.00  0.00     0.000 HD 
HETATM    3  H2  UNL     1     -12.107   3.126  64.865  1.00  0.00     0.000 HD 
HETATM    4  C   UNL     1     -10.185   3.854  64.936  1.00  0.00    -0.164 C  
HETATM    5  O   UNL     1      -9.760   2.975  65.685  1.00  0.00    -0.022 OA 
ENDROOT
BRANCH   4   6
HETATM    6  C   UNL     1      -9.331   4.955  64.436  1.00  0.00     0.080 C  
HETATM    7  C   UNL     1      -8.878   5.827  65.357  1.00  0.00    -0.085 C  
HETATM    8  N   UNL     1      -8.016   6.880  65.064  1.00  0.00    -0.121 NA 
HETATM    9  C   UNL     1      -8.917   5.069  62.994  1.00  0.00     0.003 C  
HETATM   10  C   UNL     1      -7.732   7.124  63.715  1.00  0.00    -0.119 C  
HETATM   11  C   UNL     1      -8.125   6.321  62.715  1.00  0.00    -0.078 C  
BRANCH   8  12
HETATM   12  C   UNL     1      -7.264   7.646  66.082  1.00  0.00    -0.070 C  
HETATM   13  O   UNL     1      -8.107   8.709  66.580  1.00  0.00    -0.101 OA 
HETATM   14  C   UNL     1      -7.887   9.869  65.746  1.00  0.00    -0.121 C  
HETATM   15  H   UNL     1      -4.339   9.112  66.531  1.00  0.00     0.000 HD 
HETATM   16  C   UNL     1      -6.506   9.717  65.115  1.00  0.00    -0.095 C  
HETATM   17  H   UNL     1      -4.797  10.712  65.100  1.00  0.00     0.000 HD 
HETATM   18  C   UNL     1      -5.987   8.389  65.656  1.00  0.00    -0.045 C  
HETATM   19  O   UNL     1      -5.657  10.807  65.494  1.00  0.00    -0.126 OA 
HETATM   20  O   UNL     1      -5.128   8.653  66.794  1.00  0.00    -0.030 OA 
BRANCH  14  21
HETATM   21  C   UNL     1      -8.998   9.987  64.690  1.00  0.00    -0.214 C  
BRANCH  21  22
HETATM   22  O   UNL     1     -10.236   9.494  65.189  1.00  0.00     0.034 OA 
BRANCH  22  23
HETATM   23  P   UNL     1     -10.971  10.320  66.341  1.00  0.00     0.460 P  
HETATM   24  O   UNL     1     -12.055  11.256  65.922  1.00  0.00     0.271 OA 
HETATM   25  O   UNL     1     -11.620   9.140  67.220  1.00  0.00     1.028 OA 
BRANCH  23  26
HETATM   26  O   UNL     1      -9.857  10.888  67.307  1.00  0.00    -0.171 OA 
BRANCH  26  27
HETATM   27  P   UNL     1     -10.121  11.483  68.748  1.00  0.00    -0.074 P  
HETATM   28  O   UNL     1     -11.041  10.357  69.433  1.00  0.00    -0.224 OA 
HETATM   29  O   UNL     1     -10.799  12.807  68.845  1.00  0.00    -0.238 OA 
BRANCH  27  30
HETATM   30  O   UNL     1      -8.748  11.371  69.569  1.00  0.00     0.377 OA 
BRANCH  30  31
HETATM   31  C   UNL     1      -7.496  11.324  68.895  1.00  0.00    -0.123 C  
BRANCH  31  32
HETATM   32  C   UNL     1      -6.834  12.691  68.747  1.00  0.00    -0.096 C  
HETATM   33  O   UNL     1      -7.460  13.468  67.708  1.00  0.00    -0.132 OA 
HETATM   34  C   UNL     1      -6.998  14.810  67.954  1.00  0.00    -0.160 C  
HETATM   35  H   UNL     1      -5.927  13.849  71.673  1.00  0.00     0.000 HD 
HETATM   36  C   UNL     1      -7.024  14.973  69.482  1.00  0.00    -0.187 C  
HETATM   37  C   UNL     1      -6.952  13.538  70.009  1.00  0.00     0.469 C  
HETATM   38  H   UNL     1      -5.959  15.859  70.939  1.00  0.00     0.000 HD 
HETATM   39  O   UNL     1      -5.943  15.758  69.995  1.00  0.00    -0.158 OA 
HETATM   40  O   UNL     1      -5.853  13.321  70.887  1.00  0.00    -0.188 OA 
BRANCH  34  41
HETATM   41  N   UNL     1      -7.830  15.772  67.260  1.00  0.00    -0.175 NA 
HETATM   42  C   UNL     1      -7.561  17.087  67.002  1.00  0.00    -0.189 A  
HETATM   43  N   UNL     1      -8.525  17.658  66.307  1.00  0.00    -0.436 NA 
HETATM   44  C   UNL     1      -9.472  16.669  66.134  1.00  0.00    -0.287 A  
HETATM   45  C   UNL     1     -10.712  16.640  65.475  1.00  0.00    -0.223 A  
HETATM   46  N   UNL     1     -11.225  17.720  64.772  1.00  0.00    -0.499 NA 
HETATM   47  N   UNL     1     -11.446  15.503  65.530  1.00  0.00    -0.090 NA 
HETATM   48  H1  UNL     1     -12.126  17.699  64.294  1.00  0.00     0.000 HD 
HETATM   49  C   UNL     1     -10.930  14.435  66.176  1.00  0.00    -0.320 A  
HETATM   50  H2  UNL     1     -10.523  17.996  64.085  1.00  0.00     0.000 HD 
HETATM   51  N   UNL     1      -9.734  14.324  66.798  1.00  0.00    -0.265 NA 
HETATM   52  C   UNL     1      -9.069  15.493  66.746  1.00  0.00    -0.255 A  
ENDBRANCH  34  41
ENDBRANCH  31  32
ENDBRANCH  30  31
ENDBRANCH  27  30
ENDBRANCH  26  27
ENDBRANCH  23  26
ENDBRANCH  22  23
ENDBRANCH  21  22
ENDBRANCH  14  21
ENDBRANCH   8  12
ENDBRANCH   4   6
TORSDOF 11
ENDMDL
MODEL      301
REMARK 921   NORMALIZED FREE ENERGY PREDICTED BY IDOCK:    0.02 KCAL/MOL
REMARK 922        TOTAL FREE ENERGY PREDICTED BY IDOCK:   -2.18 KCAL/MOL
REMARK 923 INTER-LIGAND FREE ENERGY PREDICTED BY IDOCK:   -2.68 KCAL/MOL
REMARK 924 INTRA-LIGAND FREE ENERGY PREDICTED BY IDOCK:    0.50 KCAL/MOL
REMARK 927      BINDING AFFINITY PREDICTED BY RF-SCORE:    0.00 PKD
ROOT
HETATM    1  N   UNL     1     -10.827   4.195  73.815  1.00  0.00    -0.248 N  
HETATM    2  H1  UNL     1     -10.359   3.348  74.140  1.00  0.00     0.000 HD 
HETATM    3  H2  UNL     1     -11.594   4.588  74.362  1.00  0.00     0.000 HD 
HETATM    4  C   UNL     1     -10.444   4.801  72.670  1.00  0.00    -0.203 C  
HETATM    5  O   UNL     1     -11.010   5.822  72.279  1.00  0.00    -0.238 OA 
ENDROOT
BRANCH   4   6
HETATM    6  C   UNL     1      -9.334   4.168  71.922  1.00  0.00    -0.190 C  
HETATM    7  C   UNL     1      -9.502   4.047  70.591  1.00  0.00    -0.170 C  
HETATM    8  N   UNL     1      -8.532   3.533  69.735  1.00  0.00    -0.052 NA 
HETATM    9  C   UNL     1      -8.050   3.746  72.581  1.00  0.00    -0.088 C  
HETATM   10  C   UNL     1      -7.386   2.980  70.318  1.00  0.00    -0.040 C  
HETATM   11  C   UNL     1      -7.112   3.046  71.629  1.00  0.00    -0.032 C  
BRANCH   8  12
HETATM   12  C   UNL     1      -8.561   3.679  68.263  1.00  0.00    -0.097 C  
HETATM   13  O   UNL     1      -7.873   4.898  67.903  1.00  0.00    -0.086 OA 
HETATM   14  C   UNL     1      -8.850   5.964  67.889  1.00  0.00    -0.105 C  
HETATM   15  H   UNL     1     -10.671   3.560  65.725  1.00  0.00     0.000 HD 
HETATM   16  C   UNL     1     -10.216   5.323  67.663  1.00  0.00    -0.170 C  
HETATM   17  H   UNL     1     -11.665   5.424  66.320  1.00  0.00     0.000 HD 
HETATM   18  C   UNL     1      -9.920   3.829  67.560  1.00  0.00     0.200 C  
HETATM   19  O   UNL     1     -10.814   5.823  66.461  1.00  0.00    -0.276 OA 
HETATM   20  O   UNL     1      -9.831   3.467  66.160  1.00  0.00    -0.042 OA 
BRANCH  14  21
HETATM   21  C   UNL     1      -8.792   6.759  69.202  1.00  0.00    -0.134 C  
BRANCH  21  22
HETATM   22  O   UNL     1      -7.464   6.822  69.708  1.00  0.00    -0.087 OA 
BRANCH  22  23
HETATM   23  P   UNL     1      -6.594   8.124  69.393  1.00  0.00    -0.035 P  
HETATM   24  O   UNL     1      -6.210   8.983  70.551  1.00  0.00    -0.038 OA 
HETATM   25  O   UNL     1      -5.262   7.478  68.765  1.00  0.00    -0.020 OA 
BRANCH  23  26
HETATM   26  O   UNL     1      -7.244   8.841  68.144  1.00  0.00    -0.080 OA 
BRANCH  26  27
HETATM   27  P   UNL     1      -8.324   9.993  68.218  1.00  0.00    -0.114 P  
HETATM   28  O   UNL     1      -8.997   9.756  69.658  1.00  0.00    -0.184 OA 
HETATM   29  O   UNL     1      -9.385  10.028  67.172  1.00  0.00    -0.146 OA 
BRANCH  27  30
HETATM   30  O   UNL     1      -7.534  11.375  68.417  1.00  0.00    -0.096 OA 
BRANCH  30  31
HETATM   31  C   UNL     1      -8.224  12.620  68.395  1.00  0.00    -0.129 C  
BRANCH  31  32
HETATM   32  C   UNL     1      -9.722  12.480  68.142  1.00  0.00    -0.222 C  
HETATM   33  O   UNL     1     -10.484  12.774  69.329  1.00  0.00     0.034 OA 
HETATM   34  C   UNL     1     -11.824  12.972  68.839  1.00  0.00    -0.316 C  
HETATM   35  H   UNL     1     -10.476  13.505  65.124  1.00  0.00     0.000 HD 
HETATM   36  C   UNL     1     -11.663  13.762  67.531  1.00  0.00    -0.375 C  
HETATM   37  C   UNL     1     -10.230  13.457  67.088  1.00  0.00    -0.247 C  
HETATM   38  H   UNL     1     -12.501  13.878  65.707  1.00  0.00     0.000 HD 
HETATM   39  O   UNL     1     -12.600  13.390  66.515  1.00  0.00    -0.264 OA 
HETATM   40  O   UNL     1     -10.159  12.897  65.781  1.00  0.00    -0.284 OA 
BRANCH  34  41
HETATM   41  N   UNL     1     -12.633  13.657  69.827  1.00  0.00    -0.122 NA 
HETATM   42  C   UNL     1     -13.985  13.577  70.011  1.00  0.00     3.393 A  
HETATM   43  N   UNL     1     -14.384  14.304  71.036  1.00  0.00     0.107 NA 
HETATM   44  C   UNL     1     -13.237  14.902  71.517  1.00  0.00    -0.368 A  
HETATM   45  C   UNL     1     -12.994  15.774  72.591  1.00  0.00    -0.478 A  
HETATM   46  N   UNL     1     -13.981  16.189  73.472  1.00  0.00    -0.698 NA 
HETATM   47  N   UNL     1     -11.734  16.234  72.776  1.00  0.00    -0.427 NA 
HETATM   48  H1  UNL     1     -13.804  16.822  74.252  1.00  0.00     0.000 HD 
HETATM   49  C   UNL     1     -10.761  15.796  71.947  1.00  0.00     0.865 A  
HETATM   50  H2  UNL     1     -14.419  15.350  73.855  1.00  0.00     0.000 HD 
HETATM   51  N   UNL     1     -10.860  14.923  70.918  1.00  0.00    -0.046 NA 
HETATM   52  C   UNL     1     -12.138  14.532  70.758  1.00  0.00    -0.329 A  
ENDBRANCH  34  41
ENDBRANCH  31  32
ENDBRANCH  30  31
ENDBRANCH  27  30
ENDBRANCH  26  27
ENDBRANCH  23  26
ENDBRANCH  22  23
ENDBRANCH  21  22
ENDBRANCH  14  21
ENDBRANCH   8  12
ENDBRANCH   4   6
TORSDOF 11
ENDMDL
MODEL      302
REMARK 921   NORMALIZED FREE ENERGY PREDICTED BY IDOCK:    0.26 KCAL/MOL
REMARK 922        TOTAL FREE ENERGY PREDICTED BY IDOCK:   -1.78 KCAL/MOL
REMARK 923 INTER-LIGAND FREE ENERGY PREDICTED BY IDOCK:   -3.11 KCAL/MOL
REMARK 924 INTRA-LIGAND FREE ENERGY PREDICTED BY IDOCK:    1.33 KCAL/MOL
REMARK 927      BINDING AFFINITY PREDICTED BY RF-SCORE:    0.00 PKD
ROOT
HETATM    1  N   UNL     1      -8.309   6.325  72.906  1.00  0.00    -0.118 N  
HETATM    2  H1  UNL     1      -8.564   5.719  72.125  1.00  0.00     0.000 HD 
HETATM    3  H2  UNL     1      -7.411   6.196  73.372  1.00  0.00     0.000 HD 
HETATM    4  C   UNL     1      -9.148   7.297  73.328  1.00  0.00    -0.159 C  
HETATM    5  O   UNL     1      -8.841   8.027  74.270  1.00  0.00    -0.194 OA 
ENDROOT
BRANCH   4   6
HETATM    6  C   UNL     1     -10.440   7.418  72.615  1.00  0.00    -0.303 C  
HETATM    7  C   UNL     1     -10.413   7.193  71.288  1.00  0.00    -0.205 C  
HETATM    8  N   UNL     1     -11.548   7.205  70.481  1.00  0.00    -0.303 NA 
HETATM    9  C   UNL     1     -11.735   7.699  73.326  1.00  0.00     0.398 C  
HETATM   10  C   UNL     1     -12.750   7.621  71.065  1.00  0.00    -0.121 C  
HETATM   11  C   UNL     1     -12.894   7.866  72.376  1.00  0.00    -0.071 C  
BRANCH   8  12
HETATM   12  C   UNL     1     -11.596   6.660  69.106  1.00  0.00    -0.001 C  
HETATM   13  O   UNL     1     -11.313   5.243  69.158  1.00  0.00     0.656 OA 
HETATM   14  C   UNL     1      -9.883   5.078  69.025  1.00  0.00    -0.182 C  
HETATM   15  H   UNL     1     -10.431   7.265  66.076  1.00  0.00     0.000 HD 
HETATM   16  C   UNL     1      -9.349   6.316  68.311  1.00  0.00    -0.112 C  
HETATM   17  H   UNL     1      -8.379   6.724  66.637  1.00  0.00     0.000 HD 
HETATM   18  C   UNL     1     -10.586   7.176  68.069  1.00  0.00    -0.196 C  
HETATM   19  O   UNL     1      -8.712   5.953  67.080  1.00  0.00    -0.110 OA 
HETATM   20  O   UNL     1     -11.055   6.946  66.717  1.00  0.00    -0.321 OA 
BRANCH  14  21
HETATM   21  C   UNL     1      -9.237   4.878  70.405  1.00  0.00    -0.134 C  
BRANCH  21  22
HETATM   22  O   UNL     1      -9.005   3.500  70.669  1.00  0.00    -0.078 OA 
BRANCH  22  23
HETATM   23  P   UNL     1      -7.518   3.036  71.020  1.00  0.00    -0.036 P  
HETATM   24  O   UNL     1      -7.108   3.090  72.454  1.00  0.00    -0.033 OA 
HETATM   25  O   UNL     1      -7.540   1.499  70.547  1.00  0.00    -0.036 OA 
BRANCH  23  26
HETATM   26  O   UNL     1      -6.550   3.701  69.964  1.00  0.00    -0.032 OA 
BRANCH  26  27
HETATM   27  P   UNL     1      -6.553   3.398  68.412  1.00  0.00    -0.042 P  
HETATM   28  O   UNL     1      -8.057   2.896  68.151  1.00  0.00    -0.061 OA 
HETATM   29  O   UNL     1      -5.592   2.382  67.895  1.00  0.00    -0.017 OA 
BRANCH  27  30
HETATM   30  O   UNL     1      -6.510   4.809  67.650  1.00  0.00    -0.042 OA 
BRANCH  30  31
HETATM   31  C   UNL     1      -5.269   5.437  67.347  1.00  0.00    -0.004 C  
BRANCH  31  32
HETATM   32  C   UNL     1      -5.217   6.907  67.753  1.00  0.00    -0.012 C  
HETATM   33  O   UNL     1      -5.680   7.762  66.691  1.00  0.00    -0.037 OA 
HETATM   34  C   UNL     1      -5.928   9.022  67.344  1.00  0.00    -0.050 C  
HETATM   35  H   UNL     1      -5.997   7.250  70.916  1.00  0.00     0.000 HD 
HETATM   36  C   UNL     1      -6.574   8.658  68.691  1.00  0.00    -0.055 C  
HETATM   37  C   UNL     1      -6.122   7.217  68.941  1.00  0.00    -0.026 C  
HETATM   38  H   UNL     1      -6.575   9.286  70.601  1.00  0.00     0.000 HD 
HETATM   39  O   UNL     1      -6.176   9.511  69.768  1.00  0.00    -0.038 OA 
HETATM   40  O   UNL     1      -5.434   7.056  70.176  1.00  0.00    -0.022 OA 
BRANCH  34  41
HETATM   41  N   UNL     1      -6.764   9.870  66.518  1.00  0.00    -0.078 NA 
HETATM   42  C   UNL     1      -7.036  11.199  66.680  1.00  0.00    -0.141 A  
HETATM   43  N   UNL     1      -7.802  11.664  65.713  1.00  0.00     0.403 NA 
HETATM   44  C   UNL     1      -8.058  10.574  64.906  1.00  0.00    -0.086 A  
HETATM   45  C   UNL     1      -8.794  10.417  63.720  1.00  0.00    -0.212 A  
HETATM   46  N   UNL     1      -9.420  11.470  63.068  1.00  0.00    -0.495 NA 
HETATM   47  N   UNL     1      -8.898   9.178  63.185  1.00  0.00    -0.154 NA 
HETATM   48  H1  UNL     1      -9.954  11.356  62.207  1.00  0.00     0.000 HD 
HETATM   49  C   UNL     1      -8.253   8.159  63.792  1.00  0.00    -0.063 A  
HETATM   50  H2  UNL     1      -8.713  12.184  62.895  1.00  0.00     0.000 HD 
HETATM   51  N   UNL     1      -7.476   8.194  64.899  1.00  0.00    -0.087 NA 
HETATM   52  C   UNL     1      -7.442   9.439  65.408  1.00  0.00    -0.099 A  
ENDBRANCH  34  41
ENDBRANCH  31  32
ENDBRANCH  30  31
ENDBRANCH  27  30
ENDBRANCH  26  27
ENDBRANCH  23  26
ENDBRANCH  22  23
ENDBRANCH  21  22
ENDBRANCH  14  21
ENDBRANCH   8  12
ENDBRANCH   4   6
TORSDOF 11
ENDMDL
MODEL      303
REMARK 921   NORMALIZED FREE ENERGY PREDICTED BY IDOCK:    0.85 KCAL/MOL
REMARK 922        TOTAL FREE ENERGY PREDICTED BY IDOCK:   -0.80 KCAL/MOL
REMARK 923 INTER-LIGAND FREE ENERGY PREDICTED BY IDOCK:   -0.78 KCAL/MOL
REMARK 924 INTRA-LIGAND FREE ENERGY PREDICTED BY IDOCK:   -0.02 KCAL/MOL
REMARK 927      BINDING AFFINITY PREDICTED BY RF-SCORE:    0.00 PKD
ROOT
HETATM    1  N   UNL     1     -11.469   3.858  64.538  1.00  0.00    -0.108 N  
HETATM    2  H1  UNL     1     -11.799   4.606  63.928  1.00  0.00     0.000 HD 
HETATM    3  H2  UNL     1     -12.114   3.124  64.830  1.00  0.00     0.000 HD 
HETATM    4  C   UNL     1     -10.188   3.830  64.966  1.00  0.00    -0.080 C  
HETATM    5  O   UNL     1      -9.790   2.927  65.703  1.00  0.00     0.109 OA 
ENDROOT
BRANCH   4   6
HETATM    6  C   UNL     1      -9.311   4.935  64.515  1.00  0.00     0.050 C  
HETATM    7  C   UNL     1      -8.861   5.769  65.471  1.00  0.00    -0.113 C  
HETATM    8  N   UNL     1      -7.980   6.819  65.226  1.00  0.00    -0.121 NA 
HETATM    9  C   UNL     1      -8.874   5.089  63.085  1.00  0.00    -0.038 C  
HETATM   10  C   UNL     1      -7.672   7.103  63.890  1.00  0.00    -0.116 C  
HETATM   11  C   UNL     1      -8.060   6.339  62.858  1.00  0.00    -0.068 C  
BRANCH   8  12
HETATM   12  C   UNL     1      -7.233   7.541  66.280  1.00  0.00    -0.074 C  
HETATM   13  O   UNL     1      -8.127   8.476  66.925  1.00  0.00    -0.098 OA 
HETATM   14  C   UNL     1      -8.046   9.727  66.205  1.00  0.00    -0.113 C  
HETATM   15  H   UNL     1      -4.410   9.194  66.735  1.00  0.00     0.000 HD 
HETATM   16  C   UNL     1      -6.695   9.753  65.495  1.00  0.00    -0.090 C  
HETATM   17  H   UNL     1      -5.072  10.884  65.501  1.00  0.00     0.000 HD 
HETATM   18  C   UNL     1      -6.044   8.425  65.871  1.00  0.00    -0.048 C  
HETATM   19  O   UNL     1      -5.913  10.867  65.943  1.00  0.00    -0.133 OA 
HETATM   20  O   UNL     1      -5.146   8.647  66.987  1.00  0.00    -0.031 OA 
BRANCH  14  21
HETATM   21  C   UNL     1      -9.220   9.856  65.223  1.00  0.00    -0.226 C  
BRANCH  21  22
HETATM   22  O   UNL     1     -10.372   9.176  65.707  1.00  0.00    -0.007 OA 
BRANCH  22  23
HETATM   23  P   UNL     1     -11.006   9.653  67.093  1.00  0.00     0.390 P  
HETATM   24  O   UNL     1     -12.250  10.473  67.028  1.00  0.00     1.446 OA 
HETATM   25  O   UNL     1     -11.352   8.245  67.791  1.00  0.00     0.469 OA 
BRANCH  23  26
HETATM   26  O   UNL     1      -9.827  10.196  67.995  1.00  0.00    -0.145 OA 
BRANCH  26  27
HETATM   27  P   UNL     1      -9.995  10.782  69.454  1.00  0.00     0.063 P  
HETATM   28  O   UNL     1     -10.870   9.653  70.190  1.00  0.00    -0.241 OA 
HETATM   29  O   UNL     1     -10.661  12.107  69.604  1.00  0.00     0.108 OA 
BRANCH  27  30
HETATM   30  O   UNL     1      -8.571  10.662  70.183  1.00  0.00     0.372 OA 
BRANCH  30  31
HETATM   31  C   UNL     1      -7.364  10.644  69.429  1.00  0.00    -0.133 C  
BRANCH  31  32
HETATM   32  C   UNL     1      -6.587  11.956  69.495  1.00  0.00    -0.093 C  
HETATM   33  O   UNL     1      -7.289  13.017  68.819  1.00  0.00    -0.105 OA 
HETATM   34  C   UNL     1      -6.643  14.214  69.291  1.00  0.00    -0.120 C  
HETATM   35  H   UNL     1      -5.074  12.248  72.385  1.00  0.00     0.000 HD 
HETATM   36  C   UNL     1      -6.392  13.974  70.788  1.00  0.00     0.018 C  
HETATM   37  C   UNL     1      -6.394  12.450  70.924  1.00  0.00     1.077 C  
HETATM   38  H   UNL     1      -5.003  14.377  72.185  1.00  0.00     0.000 HD 
HETATM   39  O   UNL     1      -5.159  14.525  71.260  1.00  0.00    -0.117 OA 
HETATM   40  O   UNL     1      -5.194  11.940  71.494  1.00  0.00    -0.301 OA 
BRANCH  34  41
HETATM   41  N   UNL     1      -7.467  15.377  69.027  1.00  0.00    -0.149 NA 
HETATM   42  C   UNL     1      -8.820  15.500  69.169  1.00  0.00    -0.253 A  
HETATM   43  N   UNL     1      -9.235  16.718  68.882  1.00  0.00    -0.253 NA 
HETATM   44  C   UNL     1      -8.096  17.403  68.510  1.00  0.00    -0.270 A  
HETATM   45  C   UNL     1      -7.870  18.729  68.106  1.00  0.00    -0.288 A  
HETATM   46  N   UNL     1      -8.870  19.689  68.052  1.00  0.00    -0.315 NA 
HETATM   47  N   UNL     1      -6.614  19.089  67.750  1.00  0.00    -0.207 NA 
HETATM   48  H1  UNL     1      -8.705  20.652  67.759  1.00  0.00     0.000 HD 
HETATM   49  C   UNL     1      -5.630  18.170  67.844  1.00  0.00    -0.156 A  
HETATM   50  H2  UNL     1      -9.308  19.723  68.973  1.00  0.00     0.000 HD 
HETATM   51  N   UNL     1      -5.713  16.887  68.266  1.00  0.00    -0.124 NA 
HETATM   52  C   UNL     1      -6.987  16.575  68.567  1.00  0.00    -0.154 A  
ENDBRANCH  34  41
ENDBRANCH  31  32
ENDBRANCH  30  31
ENDBRANCH  27  30
ENDBRANCH  26  27
ENDBRANCH  23  26
ENDBRANCH  22  23
ENDBRANCH  21  22
ENDBRANCH  14  21
ENDBRANCH   8  12
ENDBRANCH   4   6
TORSDOF 11
ENDMDL
MODEL      304
REMARK 921   NORMALIZED FREE ENERGY PREDICTED BY IDOCK:    0.93 KCAL/MOL
REMARK 922        TOTAL FREE ENERGY PREDICTED BY IDOCK:   -0.67 KCAL/MOL
REMARK 923 INTER-LIGAND FREE ENERGY PREDICTED BY IDOCK:   -2.02 KCAL/MOL
REMARK 924 INTRA-LIGAND FREE ENERGY PREDICTED BY IDOCK:    1.35 KCAL/MOL
REMARK 927      BINDING AFFINITY PREDICTED BY RF-SCORE:    0.00 PKD
ROOT
HETATM    1  N   UNL     1     -13.112  15.936  64.179  1.00  0.00     0.521 N  
HETATM    2  H1  UNL     1     -12.836  16.324  65.082  1.00  0.00     0.000 HD 
HETATM    3  H2  UNL     1     -13.914  16.328  63.686  1.00  0.00     0.000 HD 
HETATM    4  C   UNL     1     -12.427  14.909  63.630  1.00  0.00     0.655 C  
HETATM    5  O   UNL     1     -12.760  14.441  62.541  1.00  0.00     0.886 OA 
ENDROOT
BRANCH   4   6
HETATM    6  C   UNL     1     -11.283  14.381  64.408  1.00  0.00    -0.235 C  
HETATM    7  C   UNL     1     -10.546  15.286  65.078  1.00  0.00    -0.418 C  
HETATM    8  N   UNL     1      -9.477  14.951  65.905  1.00  0.00    -0.296 NA 
HETATM    9  C   UNL     1     -10.989  12.910  64.518  1.00  0.00    -0.377 C  
HETATM   10  C   UNL     1      -9.064  13.614  65.913  1.00  0.00     0.358 C  
HETATM   11  C   UNL     1      -9.723  12.627  65.288  1.00  0.00    -0.044 C  
BRANCH   8  12
HETATM   12  C   UNL     1      -8.862  15.875  66.883  1.00  0.00    -0.236 C  
HETATM   13  O   UNL     1      -7.683  15.248  67.436  1.00  0.00    -0.163 OA 
HETATM   14  C   UNL     1      -8.092  14.503  68.606  1.00  0.00    -0.150 C  
HETATM   15  H   UNL     1      -9.664  17.749  69.482  1.00  0.00     0.000 HD 
HETATM   16  C   UNL     1      -9.387  15.131  69.113  1.00  0.00    -0.215 C  
HETATM   17  H   UNL     1     -10.027  16.007  70.766  1.00  0.00     0.000 HD 
HETATM   18  C   UNL     1      -9.663  16.269  68.135  1.00  0.00    -0.227 C  
HETATM   19  O   UNL     1      -9.221  15.616  70.451  1.00  0.00     0.431 OA 
HETATM   20  O   UNL     1      -9.169  17.506  68.708  1.00  0.00    -0.278 OA 
BRANCH  14  21
HETATM   21  C   UNL     1      -8.265  13.016  68.259  1.00  0.00    -0.150 C  
BRANCH  21  22
HETATM   22  O   UNL     1      -8.118  12.198  69.413  1.00  0.00     0.440 OA 
BRANCH  22  23
HETATM   23  P   UNL     1      -7.599  10.700  69.220  1.00  0.00    -0.101 P  
HETATM   24  O   UNL     1      -7.309  10.254  67.826  1.00  0.00    -0.086 OA 
HETATM   25  O   UNL     1      -6.223  10.724  70.052  1.00  0.00    -0.087 OA 
BRANCH  23  26
HETATM   26  O   UNL     1      -8.513   9.762  70.105  1.00  0.00    -0.189 OA 
BRANCH  26  27
HETATM   27  P   UNL     1     -10.076   9.597  69.937  1.00  0.00    -0.278 P  
HETATM   28  O   UNL     1     -10.429  10.685  68.809  1.00  0.00    -0.173 OA 
HETATM   29  O   UNL     1     -10.937   9.823  71.134  1.00  0.00    -0.348 OA 
BRANCH  27  30
HETATM   30  O   UNL     1     -10.331   8.204  69.183  1.00  0.00    -0.215 OA 
BRANCH  30  31
HETATM   31  C   UNL     1     -10.484   8.158  67.768  1.00  0.00    -0.214 C  
BRANCH  31  32
HETATM   32  C   UNL     1      -9.159   8.179  67.013  1.00  0.00    -0.143 C  
HETATM   33  O   UNL     1      -8.325   7.064  67.384  1.00  0.00    -0.121 OA 
HETATM   34  C   UNL     1      -7.330   7.016  66.343  1.00  0.00    -0.080 C  
HETATM   35  H   UNL     1      -9.600   9.259  63.953  1.00  0.00     0.000 HD 
HETATM   36  C   UNL     1      -8.093   7.307  65.041  1.00  0.00    -0.120 C  
HETATM   37  C   UNL     1      -9.344   8.058  65.504  1.00  0.00     0.270 C  
HETATM   38  H   UNL     1      -7.820   8.270  63.297  1.00  0.00     0.000 HD 
HETATM   39  O   UNL     1      -7.349   8.089  64.102  1.00  0.00    -0.085 OA 
HETATM   40  O   UNL     1      -9.485   9.335  64.892  1.00  0.00    -0.178 OA 
BRANCH  34  41
HETATM   41  N   UNL     1      -6.658   5.732  66.339  1.00  0.00    -0.054 NA 
HETATM   42  C   UNL     1      -5.651   5.311  65.517  1.00  0.00    -0.014 A  
HETATM   43  N   UNL     1      -5.243   4.095  65.823  1.00  0.00    -0.009 NA 
HETATM   44  C   UNL     1      -6.047   3.705  66.875  1.00  0.00    -0.025 A  
HETATM   45  C   UNL     1      -6.104   2.534  67.648  1.00  0.00    -0.024 A  
HETATM   46  N   UNL     1      -5.227   1.472  67.486  1.00  0.00    -0.011 NA 
HETATM   47  N   UNL     1      -7.063   2.435  68.599  1.00  0.00    -0.044 NA 
HETATM   48  H1  UNL     1      -5.268   0.621  68.048  1.00  0.00     0.000 HD 
HETATM   49  C   UNL     1      -7.891   3.485  68.790  1.00  0.00    -0.055 A  
HETATM   50  H2  UNL     1      -4.280   1.844  67.569  1.00  0.00     0.000 HD 
HETATM   51  N   UNL     1      -7.901   4.677  68.150  1.00  0.00    -0.081 NA 
HETATM   52  C   UNL     1      -6.955   4.702  67.193  1.00  0.00    -0.060 A  
ENDBRANCH  34  41
ENDBRANCH  31  32
ENDBRANCH  30  31
ENDBRANCH  27  30
ENDBRANCH  26  27
ENDBRANCH  23  26
ENDBRANCH  22  23
ENDBRANCH  21  22
ENDBRANCH  14  21
ENDBRANCH   8  12
ENDBRANCH   4   6
TORSDOF 11
ENDMDL
MODEL      305
REMARK 921   NORMALIZED FREE ENERGY PREDICTED BY IDOCK:    0.97 KCAL/MOL
REMARK 922        TOTAL FREE ENERGY PREDICTED BY IDOCK:   -0.60 KCAL/MOL
REMARK 923 INTER-LIGAND FREE ENERGY PREDICTED BY IDOCK:   -2.88 KCAL/MOL
REMARK 924 INTRA-LIGAND FREE ENERGY PREDICTED BY IDOCK:    2.28 KCAL/MOL
REMARK 927      BINDING AFFINITY PREDICTED BY RF-SCORE:    0.00 PKD
ROOT
HETATM    1  N   UNL     1      -7.996  20.055  66.205  1.00  0.00    -0.407 N  
HETATM    2  H1  UNL     1      -8.953  20.365  66.037  1.00  0.00     0.000 HD 
HETATM    3  H2  UNL     1      -7.301  20.140  65.463  1.00  0.00     0.000 HD 
HETATM    4  C   UNL     1      -7.638  19.532  67.399  1.00  0.00    -0.251 C  
HETATM    5  O   UNL     1      -6.483  19.158  67.601  1.00  0.00    -0.209 OA 
ENDROOT
BRANCH   4   6
HETATM    6  C   UNL     1      -8.701  19.426  68.424  1.00  0.00    -0.397 C  
HETATM    7  C   UNL     1      -9.139  18.184  68.705  1.00  0.00    -0.224 C  
HETATM    8  N   UNL     1     -10.087  17.904  69.686  1.00  0.00     0.142 NA 
HETATM    9  C   UNL     1      -9.222  20.619  69.177  1.00  0.00     1.091 C  
HETATM   10  C   UNL     1     -10.719  18.992  70.300  1.00  0.00     2.171 C  
HETATM   11  C   UNL     1     -10.362  20.269  70.101  1.00  0.00     0.715 C  
BRANCH   8  12
HETATM   12  C   UNL     1     -10.349  16.552  70.227  1.00  0.00     0.332 C  
HETATM   13  O   UNL     1      -9.512  15.603  69.529  1.00  0.00    -0.265 OA 
HETATM   14  C   UNL     1     -10.248  15.133  68.377  1.00  0.00    -0.221 C  
HETATM   15  H   UNL     1     -12.860  14.531  70.945  1.00  0.00     0.000 HD 
HETATM   16  C   UNL     1     -11.731  15.334  68.676  1.00  0.00    -0.346 C  
HETATM   17  H   UNL     1     -13.348  14.205  68.831  1.00  0.00     0.000 HD 
HETATM   18  C   UNL     1     -11.756  15.952  70.071  1.00  0.00    -0.334 C  
HETATM   19  O   UNL     1     -12.425  14.080  68.645  1.00  0.00    -0.147 OA 
HETATM   20  O   UNL     1     -11.991  14.902  71.042  1.00  0.00    -0.283 OA 
BRANCH  14  21
HETATM   21  C   UNL     1      -9.803  15.888  67.114  1.00  0.00    -0.231 C  
BRANCH  21  22
HETATM   22  O   UNL     1     -10.922  16.265  66.321  1.00  0.00    -0.162 OA 
BRANCH  22  23
HETATM   23  P   UNL     1     -11.172  15.489  64.948  1.00  0.00    -0.246 P  
HETATM   24  O   UNL     1     -11.679  16.289  63.795  1.00  0.00    -0.969 OA 
HETATM   25  O   UNL     1      -9.693  14.961  64.600  1.00  0.00     0.081 OA 
BRANCH  23  26
HETATM   26  O   UNL     1     -11.937  14.149  65.291  1.00  0.00    -0.351 OA 
BRANCH  26  27
HETATM   27  P   UNL     1     -11.324  12.696  65.166  1.00  0.00    -0.337 P  
HETATM   28  O   UNL     1     -12.529  11.858  64.511  1.00  0.00    -0.254 OA 
HETATM   29  O   UNL     1     -10.867  12.020  66.413  1.00  0.00    -0.256 OA 
BRANCH  27  30
HETATM   30  O   UNL     1     -10.236  12.737  63.988  1.00  0.00    -0.403 OA 
BRANCH  30  31
HETATM   31  C   UNL     1      -9.596  11.546  63.544  1.00  0.00    -0.279 C  
BRANCH  31  32
HETATM   32  C   UNL     1      -9.554  10.448  64.602  1.00  0.00    -0.300 C  
HETATM   33  O   UNL     1      -9.399   9.147  64.003  1.00  0.00     0.116 OA 
HETATM   34  C   UNL     1      -9.000   8.306  65.102  1.00  0.00     0.109 C  
HETATM   35  H   UNL     1      -7.969  11.488  67.273  1.00  0.00     0.000 HD 
HETATM   36  C   UNL     1      -8.017   9.154  65.925  1.00  0.00    -0.106 C  
HETATM   37  C   UNL     1      -8.371  10.596  65.552  1.00  0.00    -0.158 C  
HETATM   38  H   UNL     1      -7.518   9.476  67.845  1.00  0.00     0.000 HD 
HETATM   39  O   UNL     1      -8.125   8.952  67.337  1.00  0.00    -0.107 OA 
HETATM   40  O   UNL     1      -8.706  11.396  66.681  1.00  0.00    -0.167 OA 
BRANCH  34  41
HETATM   41  N   UNL     1      -8.422   7.069  64.615  1.00  0.00     0.072 NA 
HETATM   42  C   UNL     1      -8.867   5.794  64.819  1.00  0.00     0.117 A  
HETATM   43  N   UNL     1      -8.121   4.907  64.189  1.00  0.00    -0.108 NA 
HETATM   44  C   UNL     1      -7.132   5.647  63.574  1.00  0.00    -0.051 A  
HETATM   45  C   UNL     1      -6.050   5.295  62.752  1.00  0.00    -0.021 A  
HETATM   46  N   UNL     1      -5.797   3.994  62.342  1.00  0.00    -0.012 NA 
HETATM   47  N   UNL     1      -5.209   6.273  62.338  1.00  0.00    -0.021 NA 
HETATM   48  H1  UNL     1      -5.010   3.738  61.745  1.00  0.00     0.000 HD 
HETATM   49  C   UNL     1      -5.477   7.547  62.698  1.00  0.00    -0.046 A  
HETATM   50  H2  UNL     1      -6.645   3.647  61.893  1.00  0.00     0.000 HD 
HETATM   51  N   UNL     1      -6.510   8.014  63.437  1.00  0.00    -0.071 NA 
HETATM   52  C   UNL     1      -7.287   6.996  63.852  1.00  0.00    -0.084 A  
ENDBRANCH  34  41
ENDBRANCH  31  32
ENDBRANCH  30  31
ENDBRANCH  27  30
ENDBRANCH  26  27
ENDBRANCH  23  26
ENDBRANCH  22  23
ENDBRANCH  21  22
ENDBRANCH  14  21
ENDBRANCH   8  12
ENDBRANCH   4   6
TORSDOF 11
ENDMDL
MODEL      306
REMARK 921   NORMALIZED FREE ENERGY PREDICTED BY IDOCK:    1.57 KCAL/MOL
REMARK 922        TOTAL FREE ENERGY PREDICTED BY IDOCK:    0.38 KCAL/MOL
REMARK 923 INTER-LIGAND FREE ENERGY PREDICTED BY IDOCK:   -2.19 KCAL/MOL
REMARK 924 INTRA-LIGAND FREE ENERGY PREDICTED BY IDOCK:    2.57 KCAL/MOL
REMARK 927      BINDING AFFINITY PREDICTED BY RF-SCORE:    0.00 PKD
ROOT
HETATM    1  N   UNL     1     -11.587  14.193  68.022  1.00  0.00    -0.315 N  
HETATM    2  H1  UNL     1     -12.224  14.333  67.238  1.00  0.00     0.000 HD 
HETATM    3  H2  UNL     1     -11.695  14.754  68.867  1.00  0.00     0.000 HD 
HETATM    4  C   UNL     1     -10.601  13.271  67.955  1.00  0.00    -0.238 C  
HETATM    5  O   UNL     1      -9.832  13.102  68.901  1.00  0.00    -0.043 OA 
ENDROOT
BRANCH   4   6
HETATM    6  C   UNL     1     -10.494  12.502  66.694  1.00  0.00    -0.252 C  
HETATM    7  C   UNL     1      -9.282  12.476  66.110  1.00  0.00    -0.073 C  
HETATM    8  N   UNL     1      -8.996  11.750  64.956  1.00  0.00     0.211 NA 
HETATM    9  C   UNL     1     -11.645  11.721  66.122  1.00  0.00    -0.215 C  
HETATM   10  C   UNL     1     -10.070  11.140  64.298  1.00  0.00    -0.326 C  
HETATM   11  C   UNL     1     -11.317  11.097  64.789  1.00  0.00     0.070 C  
BRANCH   8  12
HETATM   12  C   UNL     1      -7.628  11.452  64.479  1.00  0.00     1.452 C  
HETATM   13  O   UNL     1      -7.587  10.086  64.009  1.00  0.00    -0.135 OA 
HETATM   14  C   UNL     1      -7.229   9.248  65.131  1.00  0.00    -0.094 C  
HETATM   15  H   UNL     1      -4.476  11.720  65.428  1.00  0.00     0.000 HD 
HETATM   16  C   UNL     1      -6.484  10.126  66.132  1.00  0.00    -0.096 C  
HETATM   17  H   UNL     1      -4.694  10.176  66.972  1.00  0.00     0.000 HD 
HETATM   18  C   UNL     1      -6.465  11.507  65.483  1.00  0.00     1.066 C  
HETATM   19  O   UNL     1      -5.157   9.629  66.349  1.00  0.00    -0.041 OA 
HETATM   20  O   UNL     1      -5.195  11.687  64.807  1.00  0.00     0.430 OA 
BRANCH  14  21
HETATM   21  C   UNL     1      -8.485   8.607  65.743  1.00  0.00    -0.151 C  
BRANCH  21  22
HETATM   22  O   UNL     1      -8.165   7.865  66.914  1.00  0.00    -0.113 OA 
BRANCH  22  23
HETATM   23  P   UNL     1      -7.101   6.681  66.793  1.00  0.00    -0.071 P  
HETATM   24  O   UNL     1      -5.813   6.989  66.106  1.00  0.00    -0.032 OA 
HETATM   25  O   UNL     1      -6.798   6.360  68.340  1.00  0.00    -0.065 OA 
BRANCH  23  26
HETATM   26  O   UNL     1      -7.880   5.387  66.326  1.00  0.00    -0.098 OA 
BRANCH  26  27
HETATM   27  P   UNL     1      -7.229   4.157  65.575  1.00  0.00    -0.073 P  
HETATM   28  O   UNL     1      -6.049   3.716  66.572  1.00  0.00    -0.023 OA 
HETATM   29  O   UNL     1      -6.670   4.385  64.212  1.00  0.00    -0.042 OA 
BRANCH  27  30
HETATM   30  O   UNL     1      -8.261   2.934  65.679  1.00  0.00    -0.086 OA 
BRANCH  30  31
HETATM   31  C   UNL     1      -8.588   2.360  66.940  1.00  0.00    -0.112 C  
BRANCH  31  32
HETATM   32  C   UNL     1      -9.546   3.213  67.765  1.00  0.00    -0.064 C  
HETATM   33  O   UNL     1      -9.016   3.479  69.078  1.00  0.00    -0.100 OA 
HETATM   34  C   UNL     1      -9.822   4.569  69.563  1.00  0.00    -0.207 C  
HETATM   35  H   UNL     1     -11.046   5.418  65.864  1.00  0.00     0.000 HD 
HETATM   36  C   UNL     1     -10.015   5.498  68.354  1.00  0.00    -0.159 C  
HETATM   37  C   UNL     1      -9.789   4.585  67.146  1.00  0.00    -0.189 C  
HETATM   38  H   UNL     1     -11.429   6.680  67.549  1.00  0.00     0.000 HD 
HETATM   39  O   UNL     1     -11.309   6.106  68.297  1.00  0.00    -0.253 OA 
HETATM   40  O   UNL     1     -10.894   4.564  66.250  1.00  0.00    -0.024 OA 
BRANCH  34  41
HETATM   41  N   UNL     1      -9.180   5.218  70.688  1.00  0.00    -0.144 NA 
HETATM   42  C   UNL     1      -7.843   5.371  70.922  1.00  0.00    -0.099 A  
HETATM   43  N   UNL     1      -7.612   6.056  72.025  1.00  0.00    -0.096 NA 
HETATM   44  C   UNL     1      -8.863   6.332  72.540  1.00  0.00    -0.123 A  
HETATM   45  C   UNL     1      -9.292   7.032  73.679  1.00  0.00    -0.192 A  
HETATM   46  N   UNL     1      -8.422   7.673  74.550  1.00  0.00    -0.355 NA 
HETATM   47  N   UNL     1     -10.619   7.086  73.942  1.00  0.00    -0.315 NA 
HETATM   48  H1  UNL     1      -8.734   8.182  75.378  1.00  0.00     0.000 HD 
HETATM   49  C   UNL     1     -11.471   6.502  73.072  1.00  0.00     0.034 A  
HETATM   50  H2  UNL     1      -7.854   8.314  73.996  1.00  0.00     0.000 HD 
HETATM   51  N   UNL     1     -11.185   5.849  71.922  1.00  0.00    -0.274 NA 
HETATM   52  C   UNL     1      -9.853   5.793  71.734  1.00  0.00    -0.166 A  
ENDBRANCH  34  41
ENDBRANCH  31  32
ENDBRANCH  30  31
ENDBRANCH  27  30
ENDBRANCH  26  27
ENDBRANCH  23  26
ENDBRANCH  22  23
ENDBRANCH  21  22
ENDBRANCH  14  21
ENDBRANCH   8  12
ENDBRANCH   4   6
TORSDOF 11
ENDMDL
MODEL      307
REMARK 921   NORMALIZED FREE ENERGY PREDICTED BY IDOCK:    1.75 KCAL/MOL
REMARK 922        TOTAL FREE ENERGY PREDICTED BY IDOCK:    0.68 KCAL/MOL
REMARK 923 INTER-LIGAND FREE ENERGY PREDICTED BY IDOCK:   -4.92 KCAL/MOL
REMARK 924 INTRA-LIGAND FREE ENERGY PREDICTED BY IDOCK:    5.60 KCAL/MOL
REMARK 927      BINDING AFFINITY PREDICTED BY RF-SCORE:    0.00 PKD
ROOT
HETATM    1  N   UNL     1     -12.466  14.739  63.226  1.00  0.00    -0.561 N  
HETATM    2  H1  UNL     1     -11.567  14.835  62.754  1.00  0.00     0.000 HD 
HETATM    3  H2  UNL     1     -13.324  14.986  62.732  1.00  0.00     0.000 HD 
HETATM    4  C   UNL     1     -12.534  14.288  64.498  1.00  0.00    -0.333 C  
HETATM    5  O   UNL     1     -13.619  14.172  65.068  1.00  0.00    -0.115 OA 
ENDROOT
BRANCH   4   6
HETATM    6  C   UNL     1     -11.249  13.962  65.158  1.00  0.00    -0.326 C  
HETATM    7  C   UNL     1     -11.063  14.470  66.390  1.00  0.00    -0.331 C  
HETATM    8  N   UNL     1      -9.941  14.208  67.172  1.00  0.00    -0.251 NA 
HETATM    9  C   UNL     1     -10.227  13.051  64.534  1.00  0.00    -0.331 C  
HETATM   10  C   UNL     1      -8.891  13.501  66.574  1.00  0.00     0.027 C  
HETATM   11  C   UNL     1      -8.967  12.945  65.356  1.00  0.00     0.925 C  
BRANCH   8  12
HETATM   12  C   UNL     1      -9.854  14.486  68.622  1.00  0.00    -0.232 C  
HETATM   13  O   UNL     1     -10.086  13.256  69.345  1.00  0.00     0.323 OA 
HETATM   14  C   UNL     1     -11.506  13.154  69.591  1.00  0.00    -0.191 C  
HETATM   15  H   UNL     1     -11.000  16.593  70.892  1.00  0.00     0.000 HD 
HETATM   16  C   UNL     1     -12.077  14.569  69.546  1.00  0.00    -0.306 C  
HETATM   17  H   UNL     1     -13.038  15.787  70.772  1.00  0.00     0.000 HD 
HETATM   18  C   UNL     1     -10.869  15.454  69.252  1.00  0.00    -0.253 C  
HETATM   19  O   UNL     1     -12.683  14.906  70.800  1.00  0.00    -0.322 OA 
HETATM   20  O   UNL     1     -10.373  15.995  70.502  1.00  0.00    -0.047 OA 
BRANCH  14  21
HETATM   21  C   UNL     1     -12.163  12.230  68.553  1.00  0.00     0.148 C  
BRANCH  21  22
HETATM   22  O   UNL     1     -11.727  10.886  68.713  1.00  0.00    -0.298 OA 
BRANCH  22  23
HETATM   23  P   UNL     1     -10.221  10.526  68.323  1.00  0.00    -0.185 P  
HETATM   24  O   UNL     1      -9.143  11.365  68.924  1.00  0.00    -0.127 OA 
HETATM   25  O   UNL     1     -10.089   9.028  68.894  1.00  0.00    -0.184 OA 
BRANCH  23  26
HETATM   26  O   UNL     1     -10.174  10.297  66.760  1.00  0.00    -0.211 OA 
BRANCH  26  27
HETATM   27  P   UNL     1      -8.962   9.658  65.972  1.00  0.00    -0.187 P  
HETATM   28  O   UNL     1      -8.730  10.701  64.771  1.00  0.00    -0.184 OA 
HETATM   29  O   UNL     1      -9.133   8.286  65.415  1.00  0.00    -0.082 OA 
BRANCH  27  30
HETATM   30  O   UNL     1      -7.650   9.855  66.874  1.00  0.00    -0.094 OA 
BRANCH  30  31
HETATM   31  C   UNL     1      -6.359   9.928  66.278  1.00  0.00    -0.072 C  
BRANCH  31  32
HETATM   32  C   UNL     1      -5.898   8.610  65.664  1.00  0.00    -0.051 C  
HETATM   33  O   UNL     1      -6.075   7.513  66.581  1.00  0.00    -0.041 OA 
HETATM   34  C   UNL     1      -5.967   6.344  65.747  1.00  0.00    -0.029 C  
HETATM   35  H   UNL     1      -6.614   8.521  62.469  1.00  0.00     0.000 HD 
HETATM   36  C   UNL     1      -6.718   6.699  64.454  1.00  0.00    -0.042 C  
HETATM   37  C   UNL     1      -6.702   8.230  64.425  1.00  0.00    -0.066 C  
HETATM   38  H   UNL     1      -6.580   6.381  62.473  1.00  0.00     0.000 HD 
HETATM   39  O   UNL     1      -6.116   6.162  63.273  1.00  0.00    -0.022 OA 
HETATM   40  O   UNL     1      -6.114   8.758  63.241  1.00  0.00    -0.084 OA 
BRANCH  34  41
HETATM   41  N   UNL     1      -6.508   5.182  66.423  1.00  0.00    -0.043 NA 
HETATM   42  C   UNL     1      -5.840   4.070  66.853  1.00  0.00    -0.023 A  
HETATM   43  N   UNL     1      -6.641   3.225  67.471  1.00  0.00    -0.037 NA 
HETATM   44  C   UNL     1      -7.890   3.810  67.411  1.00  0.00    -0.083 A  
HETATM   45  C   UNL     1      -9.150   3.419  67.893  1.00  0.00    -0.163 A  
HETATM   46  N   UNL     1      -9.357   2.265  68.634  1.00  0.00    -0.177 NA 
HETATM   47  N   UNL     1     -10.217   4.207  67.622  1.00  0.00     0.145 NA 
HETATM   48  H1  UNL     1     -10.272   1.982  68.984  1.00  0.00     0.000 HD 
HETATM   49  C   UNL     1     -10.013   5.355  66.940  1.00  0.00    -0.184 A  
HETATM   50  H2  UNL     1      -8.723   2.299  69.433  1.00  0.00     0.000 HD 
HETATM   51  N   UNL     1      -8.848   5.861  66.473  1.00  0.00    -0.124 NA 
HETATM   52  C   UNL     1      -7.832   5.018  66.736  1.00  0.00    -0.100 A  
ENDBRANCH  34  41
ENDBRANCH  31  32
ENDBRANCH  30  31
ENDBRANCH  27  30
ENDBRANCH  26  27
ENDBRANCH  23  26
ENDBRANCH  22  23
ENDBRANCH  21  22
ENDBRANCH  14  21
ENDBRANCH   8  12
ENDBRANCH   4   6
TORSDOF 11
ENDMDL
MODEL      308
REMARK 921   NORMALIZED FREE ENERGY PREDICTED BY IDOCK:    1.80 KCAL/MOL
REMARK 922        TOTAL FREE ENERGY PREDICTED BY IDOCK:    0.76 KCAL/MOL
REMARK 923 INTER-LIGAND FREE ENERGY PREDICTED BY IDOCK:   -5.89 KCAL/MOL
REMARK 924 INTRA-LIGAND FREE ENERGY PREDICTED BY IDOCK:    6.65 KCAL/MOL
REMARK 927      BINDING AFFINITY PREDICTED BY RF-SCORE:    0.00 PKD
ROOT
HETATM    1  N   UNL     1     -13.706  13.477  65.510  1.00  0.00     0.682 N  
HETATM    2  H1  UNL     1     -13.820  13.261  66.501  1.00  0.00     0.000 HD 
HETATM    3  H2  UNL     1     -14.415  14.030  65.029  1.00  0.00     0.000 HD 
HETATM    4  C   UNL     1     -12.625  13.037  64.827  1.00  0.00    -0.397 C  
HETATM    5  O   UNL     1     -12.488  13.297  63.632  1.00  0.00    -0.699 OA 
ENDROOT
BRANCH   4   6
HETATM    6  C   UNL     1     -11.643  12.229  65.585  1.00  0.00    -0.433 C  
HETATM    7  C   UNL     1     -11.086  11.195  64.928  1.00  0.00    -0.047 C  
HETATM    8  N   UNL     1     -10.101  10.375  65.473  1.00  0.00    -0.287 NA 
HETATM    9  C   UNL     1     -11.221  12.573  66.987  1.00  0.00    -0.353 C  
HETATM   10  C   UNL     1      -9.791  10.553  66.826  1.00  0.00    -0.193 C  
HETATM   11  C   UNL     1     -10.281  11.551  67.577  1.00  0.00    -0.207 C  
BRANCH   8  12
HETATM   12  C   UNL     1      -9.258   9.450  64.683  1.00  0.00    -0.122 C  
HETATM   13  O   UNL     1      -8.652   8.493  65.581  1.00  0.00    -0.158 OA 
HETATM   14  C   UNL     1      -7.390   9.045  66.020  1.00  0.00    -0.094 C  
HETATM   15  H   UNL     1      -6.905   9.484  62.366  1.00  0.00     0.000 HD 
HETATM   16  C   UNL     1      -6.943  10.052  64.963  1.00  0.00    -0.135 C  
HETATM   17  H   UNL     1      -5.403  10.294  63.746  1.00  0.00     0.000 HD 
HETATM   18  C   UNL     1      -8.053  10.017  63.916  1.00  0.00    -0.152 C  
HETATM   19  O   UNL     1      -5.681   9.668  64.404  1.00  0.00    -0.072 OA 
HETATM   20  O   UNL     1      -7.651   9.134  62.840  1.00  0.00    -0.102 OA 
BRANCH  14  21
HETATM   21  C   UNL     1      -7.542   9.689  67.407  1.00  0.00    -0.095 C  
BRANCH  21  22
HETATM   22  O   UNL     1      -7.401   8.722  68.441  1.00  0.00    -0.083 OA 
BRANCH  22  23
HETATM   23  P   UNL     1      -7.603   7.182  68.071  1.00  0.00    -0.115 P  
HETATM   24  O   UNL     1      -8.860   6.813  67.357  1.00  0.00    -0.118 OA 
HETATM   25  O   UNL     1      -6.356   6.919  67.090  1.00  0.00    -0.041 OA 
BRANCH  23  26
HETATM   26  O   UNL     1      -7.217   6.331  69.345  1.00  0.00    -0.077 OA 
BRANCH  26  27
HETATM   27  P   UNL     1      -6.326   5.025  69.328  1.00  0.00    -0.033 P  
HETATM   28  O   UNL     1      -5.280   5.324  68.145  1.00  0.00    -0.003 OA 
HETATM   29  O   UNL     1      -7.001   3.720  69.078  1.00  0.00    -0.045 OA 
BRANCH  27  30
HETATM   30  O   UNL     1      -5.402   5.060  70.639  1.00  0.00    -0.004 OA 
BRANCH  30  31
HETATM   31  C   UNL     1      -5.642   4.172  71.725  1.00  0.00    -0.008 C  
BRANCH  31  32
HETATM   32  C   UNL     1      -7.121   4.005  72.058  1.00  0.00    -0.050 C  
HETATM   33  O   UNL     1      -7.870   5.191  71.732  1.00  0.00    -0.104 OA 
HETATM   34  C   UNL     1      -9.240   4.747  71.738  1.00  0.00    -0.138 C  
HETATM   35  H   UNL     1      -8.094   0.939  71.444  1.00  0.00     0.000 HD 
HETATM   36  C   UNL     1      -9.219   3.361  71.074  1.00  0.00    -0.127 C  
HETATM   37  C   UNL     1      -7.777   2.883  71.260  1.00  0.00    -0.044 C  
HETATM   38  H   UNL     1     -10.128   1.575  71.243  1.00  0.00     0.000 HD 
HETATM   39  O   UNL     1     -10.141   2.432  71.653  1.00  0.00    -0.149 OA 
HETATM   40  O   UNL     1      -7.686   1.637  71.941  1.00  0.00    -0.039 OA 
BRANCH  34  41
HETATM   41  N   UNL     1     -10.089   5.699  71.050  1.00  0.00    -0.198 NA 
HETATM   42  C   UNL     1     -10.888   5.483  69.963  1.00  0.00    -0.231 A  
HETATM   43  N   UNL     1     -11.560   6.566  69.625  1.00  0.00    -0.353 NA 
HETATM   44  C   UNL     1     -11.151   7.532  70.521  1.00  0.00    -0.259 A  
HETATM   45  C   UNL     1     -11.504   8.880  70.697  1.00  0.00    -0.242 A  
HETATM   46  N   UNL     1     -12.467   9.521  69.931  1.00  0.00    -0.034 NA 
HETATM   47  N   UNL     1     -10.872   9.592  71.660  1.00  0.00    -0.177 NA 
HETATM   48  H1  UNL     1     -12.723  10.500  70.059  1.00  0.00     0.000 HD 
HETATM   49  C   UNL     1      -9.966   8.960  72.438  1.00  0.00     0.002 A  
HETATM   50  H2  UNL     1     -13.324   8.972  70.000  1.00  0.00     0.000 HD 
HETATM   51  N   UNL     1      -9.584   7.663  72.401  1.00  0.00    -0.158 NA 
HETATM   52  C   UNL     1     -10.213   7.017  71.401  1.00  0.00    -0.196 A  
ENDBRANCH  34  41
ENDBRANCH  31  32
ENDBRANCH  30  31
ENDBRANCH  27  30
ENDBRANCH  26  27
ENDBRANCH  23  26
ENDBRANCH  22  23
ENDBRANCH  21  22
ENDBRANCH  14  21
ENDBRANCH   8  12
ENDBRANCH   4   6
TORSDOF 11
ENDMDL
MODEL      309
REMARK 921   NORMALIZED FREE ENERGY PREDICTED BY IDOCK:    1.87 KCAL/MOL
REMARK 922        TOTAL FREE ENERGY PREDICTED BY IDOCK:    0.87 KCAL/MOL
REMARK 923 INTER-LIGAND FREE ENERGY PREDICTED BY IDOCK:   -2.67 KCAL/MOL
REMARK 924 INTRA-LIGAND FREE ENERGY PREDICTED BY IDOCK:    3.53 KCAL/MOL
REMARK 927      BINDING AFFINITY PREDICTED BY RF-SCORE:    0.00 PKD
ROOT
HETATM    1  N   UNL     1     -14.272  16.402  70.188  1.00  0.00     2.722 N  
HETATM    2  H1  UNL     1     -14.087  17.105  69.472  1.00  0.00     0.000 HD 
HETATM    3  H2  UNL     1     -15.127  16.458  70.742  1.00  0.00     0.000 HD 
HETATM    4  C   UNL     1     -13.397  15.397  70.412  1.00  0.00     0.009 C  
HETATM    5  O   UNL     1     -13.620  14.549  71.276  1.00  0.00    -0.371 OA 
ENDROOT
BRANCH   4   6
HETATM    6  C   UNL     1     -12.171  15.385  69.582  1.00  0.00    -0.312 C  
HETATM    7  C   UNL     1     -12.191  16.148  68.473  1.00  0.00     0.579 C  
HETATM    8  N   UNL     1     -11.102  16.298  67.619  1.00  0.00    -0.243 NA 
HETATM    9  C   UNL     1     -10.932  14.629  69.978  1.00  0.00    -0.149 C  
HETATM   10  C   UNL     1      -9.983  15.490  67.855  1.00  0.00    -0.218 C  
HETATM   11  C   UNL     1      -9.851  14.697  68.928  1.00  0.00    -0.211 C  
BRANCH   8  12
HETATM   12  C   UNL     1     -10.991  17.356  66.590  1.00  0.00     0.201 C  
HETATM   13  O   UNL     1     -10.139  16.879  65.525  1.00  0.00    -0.575 OA 
HETATM   14  C   UNL     1      -8.781  17.249  65.852  1.00  0.00     0.047 C  
HETATM   15  H   UNL     1     -10.351  20.583  66.303  1.00  0.00     0.000 HD 
HETATM   16  C   UNL     1      -8.853  18.443  66.800  1.00  0.00    -0.278 C  
HETATM   17  H   UNL     1      -8.234  20.321  66.821  1.00  0.00     0.000 HD 
HETATM   18  C   UNL     1     -10.347  18.697  66.975  1.00  0.00    -0.404 C  
HETATM   19  O   UNL     1      -8.189  19.578  66.231  1.00  0.00    -0.320 OA 
HETATM   20  O   UNL     1     -10.749  19.753  66.066  1.00  0.00    -0.472 OA 
BRANCH  14  21
HETATM   21  C   UNL     1      -8.037  16.057  66.475  1.00  0.00    -0.269 C  
BRANCH  21  22
HETATM   22  O   UNL     1      -7.470  16.406  67.732  1.00  0.00    -0.134 OA 
BRANCH  22  23
HETATM   23  P   UNL     1      -5.939  16.040  68.000  1.00  0.00    -0.144 P  
HETATM   24  O   UNL     1      -5.151  15.519  66.845  1.00  0.00    -0.071 OA 
HETATM   25  O   UNL     1      -5.337  17.466  68.435  1.00  0.00    -0.141 OA 
BRANCH  23  26
HETATM   26  O   UNL     1      -5.874  15.220  69.349  1.00  0.00    -0.097 OA 
BRANCH  26  27
HETATM   27  P   UNL     1      -6.256  13.693  69.503  1.00  0.00    -0.104 P  
HETATM   28  O   UNL     1      -6.882  13.631  70.982  1.00  0.00     0.645 OA 
HETATM   29  O   UNL     1      -5.166  12.683  69.381  1.00  0.00    -0.072 OA 
BRANCH  27  30
HETATM   30  O   UNL     1      -7.528  13.422  68.565  1.00  0.00    -0.111 OA 
BRANCH  30  31
HETATM   31  C   UNL     1      -8.175  12.154  68.560  1.00  0.00    -0.104 C  
BRANCH  31  32
HETATM   32  C   UNL     1      -7.222  10.985  68.787  1.00  0.00    -0.091 C  
HETATM   33  O   UNL     1      -7.639  10.177  69.905  1.00  0.00    -0.152 OA 
HETATM   34  C   UNL     1      -6.893   8.955  69.745  1.00  0.00    -0.046 C  
HETATM   35  H   UNL     1      -6.138   9.818  65.925  1.00  0.00     0.000 HD 
HETATM   36  C   UNL     1      -6.912   8.664  68.235  1.00  0.00    -0.073 C  
HETATM   37  C   UNL     1      -7.174  10.031  67.598  1.00  0.00    -0.088 C  
HETATM   38  H   UNL     1      -5.706   7.918  66.811  1.00  0.00     0.000 HD 
HETATM   39  O   UNL     1      -5.694   8.098  67.743  1.00  0.00    -0.037 OA 
HETATM   40  O   UNL     1      -6.168  10.412  66.666  1.00  0.00    -0.064 OA 
BRANCH  34  41
HETATM   41  N   UNL     1      -7.475   7.893  70.541  1.00  0.00    -0.071 NA 
HETATM   42  C   UNL     1      -7.057   6.597  70.652  1.00  0.00    -0.069 A  
HETATM   43  N   UNL     1      -7.797   5.914  71.502  1.00  0.00    -0.110 NA 
HETATM   44  C   UNL     1      -8.755   6.807  71.938  1.00  0.00    -0.123 A  
HETATM   45  C   UNL     1      -9.817   6.697  72.850  1.00  0.00    -0.164 A  
HETATM   46  N   UNL     1     -10.078   5.546  73.579  1.00  0.00    -0.178 NA 
HETATM   47  N   UNL     1     -10.629   7.766  73.026  1.00  0.00    -0.367 NA 
HETATM   48  H1  UNL     1     -10.850   5.466  74.241  1.00  0.00     0.000 HD 
HETATM   49  C   UNL     1     -10.352   8.903  72.352  1.00  0.00    -0.003 A  
HETATM   50  H2  UNL     1      -9.222   5.302  74.079  1.00  0.00     0.000 HD 
HETATM   51  N   UNL     1      -9.335   9.146  71.494  1.00  0.00    -0.307 NA 
HETATM   52  C   UNL     1      -8.587   8.039  71.327  1.00  0.00    -0.126 A  
ENDBRANCH  34  41
ENDBRANCH  31  32
ENDBRANCH  30  31
ENDBRANCH  27  30
ENDBRANCH  26  27
ENDBRANCH  23  26
ENDBRANCH  22  23
ENDBRANCH  21  22
ENDBRANCH  14  21
ENDBRANCH   8  12
ENDBRANCH   4   6
TORSDOF 11
ENDMDL
MODEL      310
REMARK 921   NORMALIZED FREE ENERGY PREDICTED BY IDOCK:    1.95 KCAL/MOL
REMARK 922        TOTAL FREE ENERGY PREDICTED BY IDOCK:    1.01 KCAL/MOL
REMARK 923 INTER-LIGAND FREE ENERGY PREDICTED BY IDOCK:   -1.93 KCAL/MOL
REMARK 924 INTRA-LIGAND FREE ENERGY PREDICTED BY IDOCK:    2.93 KCAL/MOL
REMARK 927      BINDING AFFINITY PREDICTED BY RF-SCORE:    0.00 PKD
ROOT
HETATM    1  N   UNL     1      -8.972   6.677  72.937  1.00  0.00    -0.129 N  
HETATM    2  H1  UNL     1      -8.936   6.252  72.010  1.00  0.00     0.000 HD 
HETATM    3  H2  UNL     1      -8.146   6.652  73.536  1.00  0.00     0.000 HD 
HETATM    4  C   UNL     1     -10.101   7.273  73.380  1.00  0.00    -0.320 C  
HETATM    5  O   UNL     1     -10.144   7.786  74.499  1.00  0.00     0.738 OA 
ENDROOT
BRANCH   4   6
HETATM    6  C   UNL     1     -11.264   7.261  72.464  1.00  0.00    -0.342 C  
HETATM    7  C   UNL     1     -11.000   7.026  71.165  1.00  0.00    -0.247 C  
HETATM    8  N   UNL     1     -11.983   6.919  70.185  1.00  0.00    -0.223 NA 
HETATM    9  C   UNL     1     -12.678   7.422  72.949  1.00  0.00     0.860 C  
HETATM   10  C   UNL     1     -13.298   7.221  70.557  1.00  0.00     0.737 C  
HETATM   11  C   UNL     1     -13.677   7.464  71.820  1.00  0.00    -0.417 C  
BRANCH   8  12
HETATM   12  C   UNL     1     -11.753   6.357  68.835  1.00  0.00     0.423 C  
HETATM   13  O   UNL     1     -11.047   5.103  68.968  1.00  0.00     0.330 OA 
HETATM   14  C   UNL     1      -9.631   5.393  68.936  1.00  0.00    -0.141 C  
HETATM   15  H   UNL     1     -10.608   7.235  65.864  1.00  0.00     0.000 HD 
HETATM   16  C   UNL     1      -9.457   6.722  68.206  1.00  0.00    -0.125 C  
HETATM   17  H   UNL     1      -8.539   7.379  66.582  1.00  0.00     0.000 HD 
HETATM   18  C   UNL     1     -10.879   7.144  67.845  1.00  0.00    -0.150 C  
HETATM   19  O   UNL     1      -8.647   6.551  67.036  1.00  0.00    -0.112 OA 
HETATM   20  O   UNL     1     -11.149   6.749  66.477  1.00  0.00    -0.091 OA 
BRANCH  14  21
HETATM   21  C   UNL     1      -9.062   5.436  70.363  1.00  0.00    -0.141 C  
BRANCH  21  22
HETATM   22  O   UNL     1      -8.769   4.128  70.839  1.00  0.00    -0.078 OA 
BRANCH  22  23
HETATM   23  P   UNL     1      -7.288   3.824  71.353  1.00  0.00    -0.041 P  
HETATM   24  O   UNL     1      -6.930   4.301  72.721  1.00  0.00    -0.056 OA 
HETATM   25  O   UNL     1      -7.268   2.215  71.346  1.00  0.00    -0.031 OA 
BRANCH  23  26
HETATM   26  O   UNL     1      -6.293   4.179  70.178  1.00  0.00    -0.026 OA 
BRANCH  26  27
HETATM   27  P   UNL     1      -6.307   3.513  68.744  1.00  0.00    -0.030 P  
HETATM   28  O   UNL     1      -7.753   2.813  68.692  1.00  0.00    -0.054 OA 
HETATM   29  O   UNL     1      -5.254   2.506  68.429  1.00  0.00    -0.011 OA 
BRANCH  27  30
HETATM   30  O   UNL     1      -6.445   4.697  67.670  1.00  0.00    -0.043 OA 
BRANCH  30  31
HETATM   31  C   UNL     1      -5.328   5.515  67.338  1.00  0.00    -0.008 C  
BRANCH  31  32
HETATM   32  C   UNL     1      -5.459   6.952  67.834  1.00  0.00    -0.016 C  
HETATM   33  O   UNL     1      -6.305   7.731  66.966  1.00  0.00    -0.051 OA 
HETATM   34  C   UNL     1      -6.626   8.895  67.752  1.00  0.00    -0.061 C  
HETATM   35  H   UNL     1      -5.540   7.033  71.107  1.00  0.00     0.000 HD 
HETATM   36  C   UNL     1      -6.866   8.368  69.176  1.00  0.00    -0.055 C  
HETATM   37  C   UNL     1      -6.108   7.038  69.211  1.00  0.00    -0.033 C  
HETATM   38  H   UNL     1      -6.544   8.922  71.082  1.00  0.00     0.000 HD 
HETATM   39  O   UNL     1      -6.396   9.248  70.201  1.00  0.00    -0.040 OA 
HETATM   40  O   UNL     1      -5.136   6.979  70.249  1.00  0.00    -0.018 OA 
BRANCH  34  41
HETATM   41  N   UNL     1      -7.773   9.585  67.196  1.00  0.00    -0.092 NA 
HETATM   42  C   UNL     1      -7.960  10.008  65.911  1.00  0.00    -0.124 A  
HETATM   43  N   UNL     1      -9.144  10.564  65.744  1.00  0.00    -0.171 NA 
HETATM   44  C   UNL     1      -9.736  10.520  66.990  1.00  0.00    -0.177 A  
HETATM   45  C   UNL     1     -10.990  10.936  67.465  1.00  0.00    -0.293 A  
HETATM   46  N   UNL     1     -11.969  11.485  66.650  1.00  0.00    -0.277 NA 
HETATM   47  N   UNL     1     -11.258  10.797  68.785  1.00  0.00    -0.251 NA 
HETATM   48  H1  UNL     1     -12.880  11.787  66.995  1.00  0.00     0.000 HD 
HETATM   49  C   UNL     1     -10.325  10.223  69.575  1.00  0.00    -0.242 A  
HETATM   50  H2  UNL     1     -12.136  10.824  65.890  1.00  0.00     0.000 HD 
HETATM   51  N   UNL     1      -9.111   9.737  69.227  1.00  0.00    -0.172 NA 
HETATM   52  C   UNL     1      -8.884   9.939  67.916  1.00  0.00    -0.129 A  
ENDBRANCH  34  41
ENDBRANCH  31  32
ENDBRANCH  30  31
ENDBRANCH  27  30
ENDBRANCH  26  27
ENDBRANCH  23  26
ENDBRANCH  22  23
ENDBRANCH  21  22
ENDBRANCH  14  21
ENDBRANCH   8  12
ENDBRANCH   4   6
TORSDOF 11
ENDMDL
MODEL      311
REMARK 921   NORMALIZED FREE ENERGY PREDICTED BY IDOCK:    2.37 KCAL/MOL
REMARK 922        TOTAL FREE ENERGY PREDICTED BY IDOCK:    1.70 KCAL/MOL
REMARK 923 INTER-LIGAND FREE ENERGY PREDICTED BY IDOCK:   -1.15 KCAL/MOL
REMARK 924 INTRA-LIGAND FREE ENERGY PREDICTED BY IDOCK:    2.85 KCAL/MOL
REMARK 927      BINDING AFFINITY PREDICTED BY RF-SCORE:    0.00 PKD
ROOT
HETATM    1  N   UNL     1      -7.051   1.514  69.386  1.00  0.00    -0.036 N  
HETATM    2  H1  UNL     1      -7.997   1.133  69.368  1.00  0.00     0.000 HD 
HETATM    3  H2  UNL     1      -6.416   1.252  70.141  1.00  0.00     0.000 HD 
HETATM    4  C   UNL     1      -6.628   2.360  68.421  1.00  0.00    -0.029 C  
HETATM    5  O   UNL     1      -5.486   2.820  68.443  1.00  0.00    -0.016 OA 
ENDROOT
BRANCH   4   6
HETATM    6  C   UNL     1      -7.606   2.707  67.365  1.00  0.00    -0.061 C  
HETATM    7  C   UNL     1      -8.493   3.674  67.664  1.00  0.00    -0.095 C  
HETATM    8  N   UNL     1      -9.436   4.161  66.764  1.00  0.00    -0.180 NA 
HETATM    9  C   UNL     1      -7.578   2.079  65.998  1.00  0.00    -0.067 C  
HETATM   10  C   UNL     1      -9.557   3.499  65.536  1.00  0.00    -0.125 C  
HETATM   11  C   UNL     1      -8.727   2.527  65.130  1.00  0.00    -0.114 C  
BRANCH   8  12
HETATM   12  C   UNL     1     -10.197   5.416  66.955  1.00  0.00    -0.240 C  
HETATM   13  O   UNL     1      -9.669   6.420  66.059  1.00  0.00    -0.021 OA 
HETATM   14  C   UNL     1      -8.613   7.117  66.758  1.00  0.00    -0.124 C  
HETATM   15  H   UNL     1     -11.249   7.426  69.354  1.00  0.00     0.000 HD 
HETATM   16  C   UNL     1      -8.875   6.954  68.253  1.00  0.00    -0.122 C  
HETATM   17  H   UNL     1      -9.219   8.130  69.805  1.00  0.00     0.000 HD 
HETATM   18  C   UNL     1     -10.146   6.112  68.324  1.00  0.00    -0.158 C  
HETATM   19  O   UNL     1      -9.056   8.232  68.875  1.00  0.00    -0.146 OA 
HETATM   20  O   UNL     1     -11.280   6.995  68.508  1.00  0.00    -0.056 OA 
BRANCH  14  21
HETATM   21  C   UNL     1      -7.241   6.562  66.345  1.00  0.00    -0.073 C  
BRANCH  21  22
HETATM   22  O   UNL     1      -6.439   7.570  65.742  1.00  0.00    -0.044 OA 
BRANCH  22  23
HETATM   23  P   UNL     1      -6.819   9.098  66.005  1.00  0.00    -0.086 P  
HETATM   24  O   UNL     1      -6.004   9.839  67.011  1.00  0.00    -0.054 OA 
HETATM   25  O   UNL     1      -6.566   9.748  64.555  1.00  0.00    -0.100 OA 
BRANCH  23  26
HETATM   26  O   UNL     1      -8.391   9.182  66.142  1.00  0.00    -0.115 OA 
BRANCH  26  27
HETATM   27  P   UNL     1      -9.193  10.456  66.627  1.00  0.00    -0.161 P  
HETATM   28  O   UNL     1     -10.360   9.817  67.529  1.00  0.00    -0.205 OA 
HETATM   29  O   UNL     1      -9.794  11.342  65.590  1.00  0.00    -0.217 OA 
BRANCH  27  30
HETATM   30  O   UNL     1      -8.280  11.212  67.707  1.00  0.00    -0.114 OA 
BRANCH  30  31
HETATM   31  C   UNL     1      -8.567  12.551  68.096  1.00  0.00    -0.189 C  
BRANCH  31  32
HETATM   32  C   UNL     1      -8.031  13.595  67.120  1.00  0.00    -0.041 C  
HETATM   33  O   UNL     1      -8.922  14.723  67.017  1.00  0.00    -0.212 OA 
HETATM   34  C   UNL     1      -8.118  15.741  66.391  1.00  0.00    -0.090 C  
HETATM   35  H   UNL     1      -4.769  13.790  67.327  1.00  0.00     0.000 HD 
HETATM   36  C   UNL     1      -6.730  15.617  67.041  1.00  0.00     0.093 C  
HETATM   37  C   UNL     1      -6.695  14.179  67.564  1.00  0.00    -0.105 C  
HETATM   38  H   UNL     1      -4.791  15.778  66.537  1.00  0.00     0.000 HD 
HETATM   39  O   UNL     1      -5.648  15.856  66.136  1.00  0.00     1.222 OA 
HETATM   40  O   UNL     1      -5.601  13.426  67.050  1.00  0.00    -0.187 OA 
BRANCH  34  41
HETATM   41  N   UNL     1      -8.719  17.048  66.570  1.00  0.00    -0.244 NA 
HETATM   42  C   UNL     1      -9.347  17.821  65.635  1.00  0.00     0.540 A  
HETATM   43  N   UNL     1      -9.817  18.937  66.157  1.00  0.00    -0.461 NA 
HETATM   44  C   UNL     1      -9.449  18.891  67.486  1.00  0.00    -0.302 A  
HETATM   45  C   UNL     1      -9.659  19.765  68.565  1.00  0.00    -0.342 A  
HETATM   46  N   UNL     1     -10.396  20.936  68.463  1.00  0.00     0.418 NA 
HETATM   47  N   UNL     1      -9.114  19.453  69.765  1.00  0.00     0.393 NA 
HETATM   48  H1  UNL     1     -10.549  21.571  69.247  1.00  0.00     0.000 HD 
HETATM   49  C   UNL     1      -8.432  18.292  69.879  1.00  0.00     1.579 A  
HETATM   50  H2  UNL     1     -11.314  20.685  68.093  1.00  0.00     0.000 HD 
HETATM   51  N   UNL     1      -8.210  17.350  68.934  1.00  0.00    -0.221 NA 
HETATM   52  C   UNL     1      -8.738  17.733  67.757  1.00  0.00    -0.241 A  
ENDBRANCH  34  41
ENDBRANCH  31  32
ENDBRANCH  30  31
ENDBRANCH  27  30
ENDBRANCH  26  27
ENDBRANCH  23  26
ENDBRANCH  22  23
ENDBRANCH  21  22
ENDBRANCH  14  21
ENDBRANCH   8  12
ENDBRANCH   4   6
TORSDOF 11
ENDMDL
MODEL      312
REMARK 921   NORMALIZED FREE ENERGY PREDICTED BY IDOCK:    2.61 KCAL/MOL
REMARK 922        TOTAL FREE ENERGY PREDICTED BY IDOCK:    2.08 KCAL/MOL
REMARK 923 INTER-LIGAND FREE ENERGY PREDICTED BY IDOCK:    1.18 KCAL/MOL
REMARK 924 INTRA-LIGAND FREE ENERGY PREDICTED BY IDOCK:    0.90 KCAL/MOL
REMARK 927      BINDING AFFINITY PREDICTED BY RF-SCORE:    0.00 PKD
ROOT
HETATM    1  N   UNL     1      -5.412  10.814  68.400  1.00  0.00    -0.044 N  
HETATM    2  H1  UNL     1      -5.891  10.372  67.615  1.00  0.00     0.000 HD 
HETATM    3  H2  UNL     1      -4.566  10.388  68.779  1.00  0.00     0.000 HD 
HETATM    4  C   UNL     1      -5.886  11.957  68.944  1.00  0.00    -0.052 C  
HETATM    5  O   UNL     1      -5.308  12.490  69.891  1.00  0.00    -0.078 OA 
ENDROOT
BRANCH   4   6
HETATM    6  C   UNL     1      -7.125  12.511  68.353  1.00  0.00    -0.107 C  
HETATM    7  C   UNL     1      -7.679  11.802  67.352  1.00  0.00    -0.151 C  
HETATM    8  N   UNL     1      -8.876  12.150  66.731  1.00  0.00    -0.201 NA 
HETATM    9  C   UNL     1      -7.786  13.755  68.878  1.00  0.00     0.005 C  
HETATM   10  C   UNL     1      -9.444  13.383  67.073  1.00  0.00    -0.247 C  
HETATM   11  C   UNL     1      -8.981  14.168  68.056  1.00  0.00    -0.183 C  
BRANCH   8  12
HETATM   12  C   UNL     1      -9.659  11.240  65.865  1.00  0.00    -0.221 C  
HETATM   13  O   UNL     1      -9.550  11.694  64.497  1.00  0.00    -0.207 OA 
HETATM   14  C   UNL     1     -10.630  12.625  64.258  1.00  0.00    -0.384 C  
HETATM   15  H   UNL     1     -12.644   9.842  65.665  1.00  0.00     0.000 HD 
HETATM   16  C   UNL     1     -11.732  12.307  65.265  1.00  0.00    -0.361 C  
HETATM   17  H   UNL     1     -13.630  11.751  65.215  1.00  0.00     0.000 HD 
HETATM   18  C   UNL     1     -11.178  11.141  66.077  1.00  0.00     0.034 C  
HETATM   19  O   UNL     1     -12.943  11.948  64.588  1.00  0.00    -0.343 OA 
HETATM   20  O   UNL     1     -11.705   9.904  65.535  1.00  0.00     2.710 OA 
BRANCH  14  21
HETATM   21  C   UNL     1     -10.127  14.071  64.386  1.00  0.00     0.406 C  
BRANCH  21  22
HETATM   22  O   UNL     1     -10.878  14.793  65.354  1.00  0.00    -0.318 OA 
BRANCH  22  23
HETATM   23  P   UNL     1     -11.715  16.064  64.870  1.00  0.00     0.412 P  
HETATM   24  O   UNL     1     -12.331  15.998  63.513  1.00  0.00    -0.440 OA 
HETATM   25  O   UNL     1     -12.889  16.116  65.968  1.00  0.00     2.844 OA 
BRANCH  23  26
HETATM   26  O   UNL     1     -10.869  17.353  65.219  1.00  0.00    -0.588 OA 
BRANCH  26  27
HETATM   27  P   UNL     1      -9.569  17.369  66.118  1.00  0.00    -0.070 P  
HETATM   28  O   UNL     1      -9.326  18.939  66.363  1.00  0.00    -0.326 OA 
HETATM   29  O   UNL     1      -8.328  16.753  65.567  1.00  0.00    -0.145 OA 
BRANCH  27  30
HETATM   30  O   UNL     1      -9.988  16.841  67.574  1.00  0.00    -0.254 OA 
BRANCH  30  31
HETATM   31  C   UNL     1     -10.707  17.677  68.474  1.00  0.00    -0.190 C  
BRANCH  31  32
HETATM   32  C   UNL     1     -11.629  16.907  69.414  1.00  0.00     0.708 C  
HETATM   33  O   UNL     1     -11.847  15.561  68.949  1.00  0.00    -0.361 OA 
HETATM   34  C   UNL     1     -12.390  14.882  70.098  1.00  0.00    -0.327 C  
HETATM   35  H   UNL     1     -11.057  17.751  72.526  1.00  0.00     0.000 HD 
HETATM   36  C   UNL     1     -11.586  15.411  71.297  1.00  0.00    -0.386 C  
HETATM   37  C   UNL     1     -11.044  16.758  70.814  1.00  0.00     0.327 C  
HETATM   38  H   UNL     1     -11.870  15.899  73.227  1.00  0.00     0.000 HD 
HETATM   39  O   UNL     1     -12.366  15.572  72.486  1.00  0.00    -0.342 OA 
HETATM   40  O   UNL     1     -11.421  17.843  71.654  1.00  0.00     2.018 OA 
BRANCH  34  41
HETATM   41  N   UNL     1     -12.297  13.446  69.934  1.00  0.00    -0.247 NA 
HETATM   42  C   UNL     1     -11.743  12.750  68.897  1.00  0.00    -0.326 A  
HETATM   43  N   UNL     1     -11.791  11.448  69.097  1.00  0.00    -0.325 NA 
HETATM   44  C   UNL     1     -12.434  11.299  70.309  1.00  0.00    -0.250 A  
HETATM   45  C   UNL     1     -12.778  10.172  71.074  1.00  0.00    -0.386 A  
HETATM   46  N   UNL     1     -12.449   8.875  70.708  1.00  0.00    -0.491 NA 
HETATM   47  N   UNL     1     -13.466  10.359  72.225  1.00  0.00    -0.253 NA 
HETATM   48  H1  UNL     1     -12.699   8.056  71.264  1.00  0.00     0.000 HD 
HETATM   49  C   UNL     1     -13.750  11.623  72.607  1.00  0.00     0.995 A  
HETATM   50  H2  UNL     1     -11.439   8.847  70.564  1.00  0.00     0.000 HD 
HETATM   51  N   UNL     1     -13.428  12.782  71.988  1.00  0.00    -0.494 NA 
HETATM   52  C   UNL     1     -12.782  12.533  70.833  1.00  0.00    -0.182 A  
ENDBRANCH  34  41
ENDBRANCH  31  32
ENDBRANCH  30  31
ENDBRANCH  27  30
ENDBRANCH  26  27
ENDBRANCH  23  26
ENDBRANCH  22  23
ENDBRANCH  21  22
ENDBRANCH  14  21
ENDBRANCH   8  12
ENDBRANCH   4   6
TORSDOF 11
ENDMDL
MODEL      313
REMARK 921   NORMALIZED FREE ENERGY PREDICTED BY IDOCK:    2.66 KCAL/MOL
REMARK 922        TOTAL FREE ENERGY PREDICTED BY IDOCK:    2.16 KCAL/MOL
REMARK 923 INTER-LIGAND FREE ENERGY PREDICTED BY IDOCK:   -3.72 KCAL/MOL
REMARK 924 INTRA-LIGAND FREE ENERGY PREDICTED BY IDOCK:    5.88 KCAL/MOL
REMARK 927      BINDING AFFINITY PREDICTED BY RF-SCORE:    0.00 PKD
ROOT
HETATM    1  N   UNL     1      -9.144   5.474  64.776  1.00  0.00    -0.360 N  
HETATM    2  H1  UNL     1      -8.591   4.618  64.824  1.00  0.00     0.000 HD 
HETATM    3  H2  UNL     1      -9.188   5.997  63.901  1.00  0.00     0.000 HD 
HETATM    4  C   UNL     1      -9.819   5.923  65.857  1.00  0.00     0.155 C  
HETATM    5  O   UNL     1     -10.486   6.956  65.798  1.00  0.00     0.998 OA 
ENDROOT
BRANCH   4   6
HETATM    6  C   UNL     1      -9.699   5.122  67.096  1.00  0.00    -0.171 C  
HETATM    7  C   UNL     1     -10.221   5.663  68.212  1.00  0.00    -0.186 C  
HETATM    8  N   UNL     1     -10.248   5.016  69.445  1.00  0.00    -0.224 NA 
HETATM    9  C   UNL     1      -9.098   3.743  67.114  1.00  0.00    -0.178 C  
HETATM   10  C   UNL     1      -9.558   3.802  69.549  1.00  0.00    -0.160 C  
HETATM   11  C   UNL     1      -9.005   3.168  68.505  1.00  0.00    -0.188 C  
BRANCH   8  12
HETATM   12  C   UNL     1     -11.081   5.443  70.590  1.00  0.00     0.095 C  
HETATM   13  O   UNL     1     -11.837   6.613  70.204  1.00  0.00    -0.389 OA 
HETATM   14  C   UNL     1     -11.042   7.775  70.528  1.00  0.00    -0.257 C  
HETATM   15  H   UNL     1     -10.847   6.077  73.823  1.00  0.00     0.000 HD 
HETATM   16  C   UNL     1     -10.070   7.366  71.631  1.00  0.00    -0.183 C  
HETATM   17  H   UNL     1      -9.675   7.903  73.493  1.00  0.00     0.000 HD 
HETATM   18  C   UNL     1     -10.385   5.894  71.885  1.00  0.00    -0.210 C  
HETATM   19  O   UNL     1     -10.280   8.158  72.806  1.00  0.00    -0.295 OA 
HETATM   20  O   UNL     1     -11.277   5.798  73.023  1.00  0.00    -0.273 OA 
BRANCH  14  21
HETATM   21  C   UNL     1     -10.314   8.291  69.276  1.00  0.00    -0.218 C  
BRANCH  21  22
HETATM   22  O   UNL     1      -8.941   7.920  69.290  1.00  0.00    -0.144 OA 
BRANCH  22  23
HETATM   23  P   UNL     1      -8.000   8.541  70.421  1.00  0.00    -0.119 P  
HETATM   24  O   UNL     1      -8.080   7.935  71.782  1.00  0.00    -0.096 OA 
HETATM   25  O   UNL     1      -6.537   8.260  69.815  1.00  0.00    -0.039 OA 
BRANCH  23  26
HETATM   26  O   UNL     1      -8.110  10.115  70.321  1.00  0.00    -0.134 OA 
BRANCH  26  27
HETATM   27  P   UNL     1      -7.443  11.002  69.195  1.00  0.00    -0.058 P  
HETATM   28  O   UNL     1      -7.517  10.050  67.903  1.00  0.00    -0.088 OA 
HETATM   29  O   UNL     1      -6.037  11.454  69.401  1.00  0.00    -0.061 OA 
BRANCH  27  30
HETATM   30  O   UNL     1      -8.477  12.174  68.835  1.00  0.00     0.029 OA 
BRANCH  30  31
HETATM   31  C   UNL     1      -8.774  12.495  67.481  1.00  0.00    -0.182 C  
BRANCH  31  32
HETATM   32  C   UNL     1      -7.985  13.689  66.952  1.00  0.00     0.223 C  
HETATM   33  O   UNL     1      -8.734  14.913  67.084  1.00  0.00    -0.192 OA 
HETATM   34  C   UNL     1      -7.743  15.944  66.913  1.00  0.00    -0.233 C  
HETATM   35  H   UNL     1      -4.800  13.352  67.635  1.00  0.00     0.000 HD 
HETATM   36  C   UNL     1      -6.502  15.442  67.669  1.00  0.00    -0.165 C  
HETATM   37  C   UNL     1      -6.692  13.924  67.725  1.00  0.00    -0.176 C  
HETATM   38  H   UNL     1      -4.499  15.466  67.498  1.00  0.00     0.000 HD 
HETATM   39  O   UNL     1      -5.266  15.777  67.031  1.00  0.00    -0.318 OA 
HETATM   40  O   UNL     1      -5.605  13.206  67.154  1.00  0.00    -0.342 OA 
BRANCH  34  41
HETATM   41  N   UNL     1      -8.238  17.214  67.403  1.00  0.00    -0.180 NA 
HETATM   42  C   UNL     1      -7.981  18.464  66.915  1.00  0.00    -0.236 A  
HETATM   43  N   UNL     1      -8.636  19.395  67.580  1.00  0.00    -0.294 NA 
HETATM   44  C   UNL     1      -9.326  18.713  68.561  1.00  0.00    -0.346 A  
HETATM   45  C   UNL     1     -10.206  19.129  69.573  1.00  0.00     0.298 A  
HETATM   46  N   UNL     1     -10.603  20.448  69.742  1.00  0.00    -0.403 NA 
HETATM   47  N   UNL     1     -10.691  18.199  70.430  1.00  0.00     1.511 NA 
HETATM   48  H1  UNL     1     -11.242  20.750  70.477  1.00  0.00     0.000 HD 
HETATM   49  C   UNL     1     -10.342  16.908  70.242  1.00  0.00     0.574 A  
HETATM   50  H2  UNL     1     -10.992  20.764  68.853  1.00  0.00     0.000 HD 
HETATM   51  N   UNL     1      -9.552  16.380  69.278  1.00  0.00    -0.233 NA 
HETATM   52  C   UNL     1      -9.069  17.354  68.484  1.00  0.00    -0.273 A  
ENDBRANCH  34  41
ENDBRANCH  31  32
ENDBRANCH  30  31
ENDBRANCH  27  30
ENDBRANCH  26  27
ENDBRANCH  23  26
ENDBRANCH  22  23
ENDBRANCH  21  22
ENDBRANCH  14  21
ENDBRANCH   8  12
ENDBRANCH   4   6
TORSDOF 11
ENDMDL
MODEL      314
REMARK 921   NORMALIZED FREE ENERGY PREDICTED BY IDOCK:    2.81 KCAL/MOL
REMARK 922        TOTAL FREE ENERGY PREDICTED BY IDOCK:    2.41 KCAL/MOL
REMARK 923 INTER-LIGAND FREE ENERGY PREDICTED BY IDOCK:   -1.50 KCAL/MOL
REMARK 924 INTRA-LIGAND FREE ENERGY PREDICTED BY IDOCK:    3.91 KCAL/MOL
REMARK 927      BINDING AFFINITY PREDICTED BY RF-SCORE:    0.00 PKD
ROOT
HETATM    1  N   UNL     1     -14.276  16.409  70.190  1.00  0.00     2.722 N  
HETATM    2  H1  UNL     1     -14.104  17.098  69.457  1.00  0.00     0.000 HD 
HETATM    3  H2  UNL     1     -15.138  16.456  70.734  1.00  0.00     0.000 HD 
HETATM    4  C   UNL     1     -13.375  15.435  70.447  1.00  0.00     0.009 C  
HETATM    5  O   UNL     1     -13.583  14.604  71.330  1.00  0.00    -0.370 OA 
ENDROOT
BRANCH   4   6
HETATM    6  C   UNL     1     -12.142  15.437  69.628  1.00  0.00    -0.354 C  
HETATM    7  C   UNL     1     -12.187  16.138  68.480  1.00  0.00     0.579 C  
HETATM    8  N   UNL     1     -11.097  16.293  67.627  1.00  0.00    -0.243 NA 
HETATM    9  C   UNL     1     -10.874  14.762  70.073  1.00  0.00    -0.146 C  
HETATM   10  C   UNL     1      -9.944  15.553  67.915  1.00  0.00    -0.218 C  
HETATM   11  C   UNL     1      -9.786  14.825  69.030  1.00  0.00    -0.190 C  
BRANCH   8  12
HETATM   12  C   UNL     1     -11.025  17.299  66.544  1.00  0.00     0.213 C  
HETATM   13  O   UNL     1     -10.136  16.809  65.515  1.00  0.00    -0.566 OA 
HETATM   14  C   UNL     1      -8.802  17.263  65.836  1.00  0.00     0.043 C  
HETATM   15  H   UNL     1     -10.540  20.534  66.090  1.00  0.00     0.000 HD 
HETATM   16  C   UNL     1      -8.945  18.501  66.717  1.00  0.00    -0.293 C  
HETATM   17  H   UNL     1      -8.420  20.406  66.644  1.00  0.00     0.000 HD 
HETATM   18  C   UNL     1     -10.452  18.689  66.862  1.00  0.00    -0.402 C  
HETATM   19  O   UNL     1      -8.331  19.636  66.095  1.00  0.00    -0.339 OA 
HETATM   20  O   UNL     1     -10.894  19.674  65.894  1.00  0.00    -0.446 OA 
BRANCH  14  21
HETATM   21  C   UNL     1      -8.009  16.145  66.530  1.00  0.00    -0.259 C  
BRANCH  21  22
HETATM   22  O   UNL     1      -7.375  16.622  67.711  1.00  0.00    -0.141 OA 
BRANCH  22  23
HETATM   23  P   UNL     1      -5.840  16.250  67.949  1.00  0.00    -0.150 P  
HETATM   24  O   UNL     1      -5.138  15.520  66.853  1.00  0.00    -0.071 OA 
HETATM   25  O   UNL     1      -5.176  17.706  68.108  1.00  0.00    -0.137 OA 
BRANCH  23  26
HETATM   26  O   UNL     1      -5.714  15.659  69.409  1.00  0.00    -0.107 OA 
BRANCH  26  27
HETATM   27  P   UNL     1      -6.164  14.207  69.843  1.00  0.00    -0.126 P  
HETATM   28  O   UNL     1      -6.519  14.396  71.399  1.00  0.00     0.127 OA 
HETATM   29  O   UNL     1      -5.184  13.094  69.688  1.00  0.00    -0.082 OA 
BRANCH  27  30
HETATM   30  O   UNL     1      -7.598  13.933  69.180  1.00  0.00    -0.062 OA 
BRANCH  30  31
HETATM   31  C   UNL     1      -8.154  12.623  69.157  1.00  0.00     0.507 C  
BRANCH  31  32
HETATM   32  C   UNL     1      -7.478  11.694  68.153  1.00  0.00    -0.103 C  
HETATM   33  O   UNL     1      -7.376  10.351  68.666  1.00  0.00    -0.078 OA 
HETATM   34  C   UNL     1      -7.088   9.556  67.500  1.00  0.00    -0.085 C  
HETATM   35  H   UNL     1      -8.357  12.475  65.096  1.00  0.00     0.000 HD 
HETATM   36  C   UNL     1      -7.973  10.139  66.386  1.00  0.00    -0.120 C  
HETATM   37  C   UNL     1      -8.264  11.567  66.852  1.00  0.00    -0.167 C  
HETATM   38  H   UNL     1      -7.896  10.501  64.410  1.00  0.00     0.000 HD 
HETATM   39  O   UNL     1      -7.350  10.141  65.098  1.00  0.00    -0.134 OA 
HETATM   40  O   UNL     1      -7.868  12.553  65.906  1.00  0.00     1.100 OA 
BRANCH  34  41
HETATM   41  N   UNL     1      -7.345   8.155  67.761  1.00  0.00    -0.091 NA 
HETATM   42  C   UNL     1      -6.441   7.175  68.064  1.00  0.00    -0.048 A  
HETATM   43  N   UNL     1      -7.029   6.016  68.286  1.00  0.00    -0.073 NA 
HETATM   44  C   UNL     1      -8.374   6.257  68.089  1.00  0.00    -0.115 A  
HETATM   45  C   UNL     1      -9.513   5.440  68.184  1.00  0.00    -0.118 A  
HETATM   46  N   UNL     1      -9.466   4.112  68.581  1.00  0.00    -0.157 NA 
HETATM   47  N   UNL     1     -10.717   5.974  67.872  1.00  0.00    -0.272 NA 
HETATM   48  H1  UNL     1     -10.293   3.519  68.651  1.00  0.00     0.000 HD 
HETATM   49  C   UNL     1     -10.773   7.279  67.528  1.00  0.00    -0.256 A  
HETATM   50  H2  UNL     1      -8.994   4.082  69.486  1.00  0.00     0.000 HD 
HETATM   51  N   UNL     1      -9.761   8.174  67.452  1.00  0.00    -0.159 NA 
HETATM   52  C   UNL     1      -8.587   7.578  67.733  1.00  0.00    -0.120 A  
ENDBRANCH  34  41
ENDBRANCH  31  32
ENDBRANCH  30  31
ENDBRANCH  27  30
ENDBRANCH  26  27
ENDBRANCH  23  26
ENDBRANCH  22  23
ENDBRANCH  21  22
ENDBRANCH  14  21
ENDBRANCH   8  12
ENDBRANCH   4   6
TORSDOF 11
ENDMDL
MODEL      315
REMARK 921   NORMALIZED FREE ENERGY PREDICTED BY IDOCK:    2.92 KCAL/MOL
REMARK 922        TOTAL FREE ENERGY PREDICTED BY IDOCK:    2.59 KCAL/MOL
REMARK 923 INTER-LIGAND FREE ENERGY PREDICTED BY IDOCK:    1.39 KCAL/MOL
REMARK 924 INTRA-LIGAND FREE ENERGY PREDICTED BY IDOCK:    1.21 KCAL/MOL
REMARK 927      BINDING AFFINITY PREDICTED BY RF-SCORE:    0.00 PKD
ROOT
HETATM    1  N   UNL     1      -7.602  15.561  71.714  1.00  0.00     3.815 N  
HETATM    2  H1  UNL     1      -6.811  16.205  71.742  1.00  0.00     0.000 HD 
HETATM    3  H2  UNL     1      -8.210  15.473  72.528  1.00  0.00     0.000 HD 
HETATM    4  C   UNL     1      -7.853  14.823  70.611  1.00  0.00     1.492 C  
HETATM    5  O   UNL     1      -8.807  14.046  70.577  1.00  0.00     2.566 OA 
ENDROOT
BRANCH   4   6
HETATM    6  C   UNL     1      -6.921  14.990  69.472  1.00  0.00    -0.187 C  
HETATM    7  C   UNL     1      -6.980  16.166  68.819  1.00  0.00    -0.148 C  
HETATM    8  N   UNL     1      -6.132  16.508  67.768  1.00  0.00    -0.124 NA 
HETATM    9  C   UNL     1      -5.904  13.947  69.098  1.00  0.00    -0.085 C  
HETATM   10  C   UNL     1      -5.280  15.512  67.279  1.00  0.00     0.282 C  
HETATM   11  C   UNL     1      -5.135  14.308  67.852  1.00  0.00    -0.048 C  
BRANCH   8  12
HETATM   12  C   UNL     1      -5.963  17.884  67.251  1.00  0.00    -0.136 C  
HETATM   13  O   UNL     1      -6.723  18.789  68.083  1.00  0.00    -0.217 OA 
HETATM   14  C   UNL     1      -8.051  18.890  67.520  1.00  0.00    -0.260 C  
HETATM   15  H   UNL     1      -6.122  19.588  64.427  1.00  0.00     0.000 HD 
HETATM   16  C   UNL     1      -7.945  18.524  66.042  1.00  0.00    -0.119 C  
HETATM   17  H   UNL     1      -8.304  19.391  64.301  1.00  0.00     0.000 HD 
HETATM   18  C   UNL     1      -6.467  18.209  65.836  1.00  0.00    -0.269 C  
HETATM   19  O   UNL     1      -8.370  19.619  65.222  1.00  0.00    -0.053 OA 
HETATM   20  O   UNL     1      -5.810  19.387  65.302  1.00  0.00    -0.174 OA 
BRANCH  14  21
HETATM   21  C   UNL     1      -9.023  17.971  68.277  1.00  0.00    -0.282 C  
BRANCH  21  22
HETATM   22  O   UNL     1      -9.032  16.662  67.721  1.00  0.00    -0.207 OA 
BRANCH  22  23
HETATM   23  P   UNL     1     -10.399  15.837  67.746  1.00  0.00    -0.288 P  
HETATM   24  O   UNL     1     -10.584  14.858  68.856  1.00  0.00    -0.231 OA 
HETATM   25  O   UNL     1     -11.483  17.014  67.909  1.00  0.00     0.013 OA 
BRANCH  23  26
HETATM   26  O   UNL     1     -10.674  15.326  66.276  1.00  0.00    -0.305 OA 
BRANCH  26  27
HETATM   27  P   UNL     1     -10.873  13.813  65.863  1.00  0.00    -0.293 P  
HETATM   28  O   UNL     1     -10.724  13.859  64.264  1.00  0.00    -0.339 OA 
HETATM   29  O   UNL     1     -12.158  13.151  66.226  1.00  0.00    -0.403 OA 
BRANCH  27  30
HETATM   30  O   UNL     1      -9.557  13.017  66.321  1.00  0.00    -0.267 OA 
BRANCH  30  31
HETATM   31  C   UNL     1      -9.471  11.603  66.174  1.00  0.00    -0.224 C  
BRANCH  31  32
HETATM   32  C   UNL     1      -8.499  10.949  67.150  1.00  0.00    -0.128 C  
HETATM   33  O   UNL     1      -9.060   9.754  67.729  1.00  0.00    -0.131 OA 
HETATM   34  C   UNL     1      -7.923   9.077  68.296  1.00  0.00    -0.104 C  
HETATM   35  H   UNL     1      -5.420  11.248  66.076  1.00  0.00     0.000 HD 
HETATM   36  C   UNL     1      -6.792   9.258  67.270  1.00  0.00    -0.080 C  
HETATM   37  C   UNL     1      -7.208  10.499  66.476  1.00  0.00    -0.124 C  
HETATM   38  H   UNL     1      -4.804   9.554  67.229  1.00  0.00     0.000 HD 
HETATM   39  O   UNL     1      -5.502   9.442  67.863  1.00  0.00    -0.037 OA 
HETATM   40  O   UNL     1      -6.224  11.528  66.496  1.00  0.00    -0.140 OA 
BRANCH  34  41
HETATM   41  N   UNL     1      -8.236   7.688  68.564  1.00  0.00    -0.124 NA 
HETATM   42  C   UNL     1      -8.072   6.613  67.738  1.00  0.00    -0.116 A  
HETATM   43  N   UNL     1      -8.421   5.485  68.324  1.00  0.00    -0.098 NA 
HETATM   44  C   UNL     1      -8.857   5.857  69.580  1.00  0.00    -0.123 A  
HETATM   45  C   UNL     1      -9.342   5.127  70.677  1.00  0.00    -0.159 A  
HETATM   46  N   UNL     1      -9.431   3.742  70.690  1.00  0.00    -0.157 NA 
HETATM   47  N   UNL     1      -9.746   5.806  71.777  1.00  0.00    -0.156 NA 
HETATM   48  H1  UNL     1      -9.783   3.212  71.486  1.00  0.00     0.000 HD 
HETATM   49  C   UNL     1      -9.620   7.150  71.785  1.00  0.00    -0.151 A  
HETATM   50  H2  UNL     1      -8.504   3.377  70.467  1.00  0.00     0.000 HD 
HETATM   51  N   UNL     1      -9.121   7.956  70.818  1.00  0.00    -0.151 NA 
HETATM   52  C   UNL     1      -8.775   7.231  69.738  1.00  0.00    -0.142 A  
ENDBRANCH  34  41
ENDBRANCH  31  32
ENDBRANCH  30  31
ENDBRANCH  27  30
ENDBRANCH  26  27
ENDBRANCH  23  26
ENDBRANCH  22  23
ENDBRANCH  21  22
ENDBRANCH  14  21
ENDBRANCH   8  12
ENDBRANCH   4   6
TORSDOF 11
ENDMDL
MODEL      316
REMARK 921   NORMALIZED FREE ENERGY PREDICTED BY IDOCK:    2.97 KCAL/MOL
REMARK 922        TOTAL FREE ENERGY PREDICTED BY IDOCK:    2.67 KCAL/MOL
REMARK 923 INTER-LIGAND FREE ENERGY PREDICTED BY IDOCK:   -5.89 KCAL/MOL
REMARK 924 INTRA-LIGAND FREE ENERGY PREDICTED BY IDOCK:    8.56 KCAL/MOL
REMARK 927      BINDING AFFINITY PREDICTED BY RF-SCORE:    0.00 PKD
ROOT
HETATM    1  N   UNL     1      -6.980   7.716  71.178  1.00  0.00    -0.049 N  
HETATM    2  H1  UNL     1      -7.092   6.961  70.501  1.00  0.00     0.000 HD 
HETATM    3  H2  UNL     1      -6.067   8.156  71.297  1.00  0.00     0.000 HD 
HETATM    4  C   UNL     1      -8.027   8.142  71.919  1.00  0.00    -0.121 C  
HETATM    5  O   UNL     1      -7.892   9.053  72.735  1.00  0.00    -0.301 OA 
ENDROOT
BRANCH   4   6
HETATM    6  C   UNL     1      -9.319   7.450  71.703  1.00  0.00    -0.162 C  
HETATM    7  C   UNL     1      -9.613   7.113  70.434  1.00  0.00    -0.169 C  
HETATM    8  N   UNL     1     -10.755   6.404  70.068  1.00  0.00    -0.233 NA 
HETATM    9  C   UNL     1     -10.231   7.067  72.837  1.00  0.00    -0.243 C  
HETATM   10  C   UNL     1     -11.711   6.167  71.063  1.00  0.00    -0.118 C  
HETATM   11  C   UNL     1     -11.524   6.455  72.359  1.00  0.00    -0.320 C  
BRANCH   8  12
HETATM   12  C   UNL     1     -10.945   5.755  68.752  1.00  0.00    -0.153 C  
HETATM   13  O   UNL     1      -9.858   4.828  68.531  1.00  0.00    -0.157 OA 
HETATM   14  C   UNL     1      -8.796   5.549  67.867  1.00  0.00    -0.105 C  
HETATM   15  H   UNL     1     -11.575   6.508  65.599  1.00  0.00     0.000 HD 
HETATM   16  C   UNL     1      -9.433   6.741  67.158  1.00  0.00    -0.142 C  
HETATM   17  H   UNL     1      -9.597   7.413  65.305  1.00  0.00     0.000 HD 
HETATM   18  C   UNL     1     -10.919   6.626  67.486  1.00  0.00    -0.338 C  
HETATM   19  O   UNL     1      -9.200   6.670  65.746  1.00  0.00    -0.049 OA 
HETATM   20  O   UNL     1     -11.591   5.970  66.382  1.00  0.00     0.426 OA 
BRANCH  14  21
HETATM   21  C   UNL     1      -7.726   5.981  68.882  1.00  0.00    -0.092 C  
BRANCH  21  22
HETATM   22  O   UNL     1      -7.552   4.997  69.894  1.00  0.00    -0.059 OA 
BRANCH  22  23
HETATM   23  P   UNL     1      -6.070   4.494  70.215  1.00  0.00    -0.019 P  
HETATM   24  O   UNL     1      -5.389   5.094  71.399  1.00  0.00    -0.004 OA 
HETATM   25  O   UNL     1      -6.314   2.930  70.496  1.00  0.00    -0.023 OA 
BRANCH  23  26
HETATM   26  O   UNL     1      -5.270   4.472  68.852  1.00  0.00    -0.003 OA 
BRANCH  26  27
HETATM   27  P   UNL     1      -5.905   4.697  67.422  1.00  0.00    -0.024 P  
HETATM   28  O   UNL     1      -7.291   3.890  67.519  1.00  0.00    -0.066 OA 
HETATM   29  O   UNL     1      -5.138   4.229  66.233  1.00  0.00    -0.008 OA 
BRANCH  27  30
HETATM   30  O   UNL     1      -6.386   6.225  67.349  1.00  0.00    -0.034 OA 
BRANCH  30  31
HETATM   31  C   UNL     1      -6.051   7.044  66.233  1.00  0.00    -0.035 C  
BRANCH  31  32
HETATM   32  C   UNL     1      -6.186   8.537  66.512  1.00  0.00    -0.057 C  
HETATM   33  O   UNL     1      -7.202   9.136  65.684  1.00  0.00    -0.081 OA 
HETATM   34  C   UNL     1      -7.464  10.402  66.320  1.00  0.00    -0.127 C  
HETATM   35  H   UNL     1      -5.759   9.151  69.701  1.00  0.00     0.000 HD 
HETATM   36  C   UNL     1      -7.446  10.108  67.829  1.00  0.00    -0.089 C  
HETATM   37  C   UNL     1      -6.616   8.827  67.947  1.00  0.00    -0.061 C  
HETATM   38  H   UNL     1      -6.863  10.977  69.545  1.00  0.00     0.000 HD 
HETATM   39  O   UNL     1      -6.875  11.159  68.613  1.00  0.00    -0.061 OA 
HETATM   40  O   UNL     1      -5.492   8.970  68.808  1.00  0.00    -0.039 OA 
BRANCH  34  41
HETATM   41  N   UNL     1      -8.721  10.954  65.859  1.00  0.00    -0.181 NA 
HETATM   42  C   UNL     1      -9.546  10.471  64.883  1.00  0.00    -0.277 A  
HETATM   43  N   UNL     1     -10.635  11.204  64.753  1.00  0.00    -0.319 NA 
HETATM   44  C   UNL     1     -10.489  12.223  65.671  1.00  0.00    -0.261 A  
HETATM   45  C   UNL     1     -11.304  13.310  66.027  1.00  0.00    -0.305 A  
HETATM   46  N   UNL     1     -12.557  13.535  65.476  1.00  0.00    -0.490 NA 
HETATM   47  N   UNL     1     -10.845  14.185  66.954  1.00  0.00    -0.293 NA 
HETATM   48  H1  UNL     1     -13.149  14.324  65.734  1.00  0.00     0.000 HD 
HETATM   49  C   UNL     1      -9.645  13.945  67.526  1.00  0.00    -0.229 A  
HETATM   50  H2  UNL     1     -13.106  12.686  65.613  1.00  0.00     0.000 HD 
HETATM   51  N   UNL     1      -8.799  12.912  67.307  1.00  0.00    -0.198 NA 
HETATM   52  C   UNL     1      -9.288  12.101  66.351  1.00  0.00    -0.224 A  
ENDBRANCH  34  41
ENDBRANCH  31  32
ENDBRANCH  30  31
ENDBRANCH  27  30
ENDBRANCH  26  27
ENDBRANCH  23  26
ENDBRANCH  22  23
ENDBRANCH  21  22
ENDBRANCH  14  21
ENDBRANCH   8  12
ENDBRANCH   4   6
TORSDOF 11
ENDMDL
MODEL      317
REMARK 921   NORMALIZED FREE ENERGY PREDICTED BY IDOCK:    3.11 KCAL/MOL
REMARK 922        TOTAL FREE ENERGY PREDICTED BY IDOCK:    2.91 KCAL/MOL
REMARK 923 INTER-LIGAND FREE ENERGY PREDICTED BY IDOCK:   -1.84 KCAL/MOL
REMARK 924 INTRA-LIGAND FREE ENERGY PREDICTED BY IDOCK:    4.75 KCAL/MOL
REMARK 927      BINDING AFFINITY PREDICTED BY RF-SCORE:    0.00 PKD
ROOT
HETATM    1  N   UNL     1     -12.709  15.393  63.784  1.00  0.00    -0.610 N  
HETATM    2  H1  UNL     1     -11.948  14.805  63.444  1.00  0.00     0.000 HD 
HETATM    3  H2  UNL     1     -13.083  16.130  63.186  1.00  0.00     0.000 HD 
HETATM    4  C   UNL     1     -13.229  15.205  65.017  1.00  0.00     1.174 C  
HETATM    5  O   UNL     1     -14.148  15.915  65.427  1.00  0.00     3.086 OA 
ENDROOT
BRANCH   4   6
HETATM    6  C   UNL     1     -12.630  14.127  65.835  1.00  0.00    -0.447 C  
HETATM    7  C   UNL     1     -12.142  14.487  67.036  1.00  0.00    -0.273 C  
HETATM    8  N   UNL     1     -11.603  13.588  67.952  1.00  0.00    -0.320 NA 
HETATM    9  C   UNL     1     -12.625  12.687  65.399  1.00  0.00    -0.288 C  
HETATM   10  C   UNL     1     -11.429  12.265  67.529  1.00  0.00    -0.347 C  
HETATM   11  C   UNL     1     -11.879  11.793  66.357  1.00  0.00     0.002 C  
BRANCH   8  12
HETATM   12  C   UNL     1     -11.357  13.900  69.378  1.00  0.00    -0.258 C  
HETATM   13  O   UNL     1     -10.806  12.728  70.021  1.00  0.00     0.456 OA 
HETATM   14  C   UNL     1     -11.911  11.947  70.527  1.00  0.00    -0.267 C  
HETATM   15  H   UNL     1     -12.866  15.216  72.003  1.00  0.00     0.000 HD 
HETATM   16  C   UNL     1     -13.089  12.899  70.719  1.00  0.00     0.187 C  
HETATM   17  H   UNL     1     -14.234  13.512  72.210  1.00  0.00     0.000 HD 
HETATM   18  C   UNL     1     -12.552  14.257  70.275  1.00  0.00    -0.319 C  
HETATM   19  O   UNL     1     -13.501  12.919  72.091  1.00  0.00    -0.523 OA 
HETATM   20  O   UNL     1     -12.127  14.995  71.448  1.00  0.00    -0.296 OA 
BRANCH  14  21
HETATM   21  C   UNL     1     -12.244  10.801  69.559  1.00  0.00    -0.221 C  
BRANCH  21  22
HETATM   22  O   UNL     1     -11.596   9.595  69.947  1.00  0.00    -0.163 OA 
BRANCH  22  23
HETATM   23  P   UNL     1     -10.040   9.433  69.624  1.00  0.00    -0.238 P  
HETATM   24  O   UNL     1      -9.098   9.454  70.780  1.00  0.00    -0.245 OA 
HETATM   25  O   UNL     1     -10.001   7.972  68.952  1.00  0.00    -0.183 OA 
BRANCH  23  26
HETATM   26  O   UNL     1      -9.707  10.376  68.400  1.00  0.00    -0.150 OA 
BRANCH  26  27
HETATM   27  P   UNL     1      -8.494  10.178  67.405  1.00  0.00    -0.120 P  
HETATM   28  O   UNL     1      -8.304  11.647  66.781  1.00  0.00    -0.167 OA 
HETATM   29  O   UNL     1      -8.646   9.184  66.305  1.00  0.00    -0.120 OA 
BRANCH  27  30
HETATM   30  O   UNL     1      -7.172   9.995  68.295  1.00  0.00    -0.075 OA 
BRANCH  30  31
HETATM   31  C   UNL     1      -6.582   8.712  68.471  1.00  0.00    -0.059 C  
BRANCH  31  32
HETATM   32  C   UNL     1      -7.507   7.560  68.088  1.00  0.00    -0.105 C  
HETATM   33  O   UNL     1      -7.313   7.164  66.716  1.00  0.00    -0.080 OA 
HETATM   34  C   UNL     1      -7.947   5.874  66.636  1.00  0.00    -0.102 C  
HETATM   35  H   UNL     1      -7.872   5.497  70.605  1.00  0.00     0.000 HD 
HETATM   36  C   UNL     1      -7.579   5.160  67.947  1.00  0.00    -0.084 C  
HETATM   37  C   UNL     1      -7.245   6.302  68.909  1.00  0.00    -0.084 C  
HETATM   38  H   UNL     1      -8.402   3.902  69.281  1.00  0.00     0.000 HD 
HETATM   39  O   UNL     1      -8.629   4.343  68.471  1.00  0.00    -0.091 OA 
HETATM   40  O   UNL     1      -8.034   6.280  70.093  1.00  0.00    -0.104 OA 
BRANCH  34  41
HETATM   41  N   UNL     1      -7.508   5.162  65.453  1.00  0.00    -0.076 NA 
HETATM   42  C   UNL     1      -7.507   5.599  64.158  1.00  0.00    -0.070 A  
HETATM   43  N   UNL     1      -6.995   4.703  63.338  1.00  0.00    -0.043 NA 
HETATM   44  C   UNL     1      -6.676   3.627  64.141  1.00  0.00    -0.043 A  
HETATM   45  C   UNL     1      -6.093   2.377  63.874  1.00  0.00    -0.014 A  
HETATM   46  N   UNL     1      -5.651   1.997  62.615  1.00  0.00    -0.007 NA 
HETATM   47  N   UNL     1      -5.955   1.499  64.895  1.00  0.00    -0.016 NA 
HETATM   48  H1  UNL     1      -5.227   1.090  62.422  1.00  0.00     0.000 HD 
HETATM   49  C   UNL     1      -6.343   1.882  66.131  1.00  0.00    -0.024 A  
HETATM   50  H2  UNL     1      -4.997   2.712  62.294  1.00  0.00     0.000 HD 
HETATM   51  N   UNL     1      -6.865   3.068  66.519  1.00  0.00    -0.051 NA 
HETATM   52  C   UNL     1      -7.015   3.884  65.459  1.00  0.00    -0.061 A  
ENDBRANCH  34  41
ENDBRANCH  31  32
ENDBRANCH  30  31
ENDBRANCH  27  30
ENDBRANCH  26  27
ENDBRANCH  23  26
ENDBRANCH  22  23
ENDBRANCH  21  22
ENDBRANCH  14  21
ENDBRANCH   8  12
ENDBRANCH   4   6
TORSDOF 11
ENDMDL
MODEL      318
REMARK 921   NORMALIZED FREE ENERGY PREDICTED BY IDOCK:    3.55 KCAL/MOL
REMARK 922        TOTAL FREE ENERGY PREDICTED BY IDOCK:    3.64 KCAL/MOL
REMARK 923 INTER-LIGAND FREE ENERGY PREDICTED BY IDOCK:   -4.52 KCAL/MOL
REMARK 924 INTRA-LIGAND FREE ENERGY PREDICTED BY IDOCK:    8.15 KCAL/MOL
REMARK 927      BINDING AFFINITY PREDICTED BY RF-SCORE:    0.00 PKD
ROOT
HETATM    1  N   UNL     1     -10.844   4.198  73.815  1.00  0.00    -0.248 N  
HETATM    2  H1  UNL     1     -10.426   3.314  74.104  1.00  0.00     0.000 HD 
HETATM    3  H2  UNL     1     -11.520   4.660  74.425  1.00  0.00     0.000 HD 
HETATM    4  C   UNL     1     -10.513   4.766  72.634  1.00  0.00    -0.203 C  
HETATM    5  O   UNL     1     -11.018   5.833  72.286  1.00  0.00    -0.238 OA 
ENDROOT
BRANCH   4   6
HETATM    6  C   UNL     1      -9.538   4.034  71.795  1.00  0.00    -0.223 C  
HETATM    7  C   UNL     1      -9.824   3.947  70.483  1.00  0.00    -0.110 C  
HETATM    8  N   UNL     1      -8.983   3.349  69.547  1.00  0.00    -0.100 NA 
HETATM    9  C   UNL     1      -8.253   3.477  72.345  1.00  0.00    -0.083 C  
HETATM   10  C   UNL     1      -7.856   2.676  70.033  1.00  0.00    -0.042 C  
HETATM   11  C   UNL     1      -7.471   2.698  71.317  1.00  0.00    -0.033 C  
BRANCH   8  12
HETATM   12  C   UNL     1      -9.116   3.516  68.083  1.00  0.00    -0.151 C  
HETATM   13  O   UNL     1      -8.267   4.607  67.661  1.00  0.00    -0.100 OA 
HETATM   14  C   UNL     1      -9.048   5.821  67.730  1.00  0.00    -0.106 C  
HETATM   15  H   UNL     1     -11.430   3.783  65.742  1.00  0.00     0.000 HD 
HETATM   16  C   UNL     1     -10.517   5.421  67.627  1.00  0.00    -0.150 C  
HETATM   17  H   UNL     1     -12.040   5.780  66.418  1.00  0.00     0.000 HD 
HETATM   18  C   UNL     1     -10.487   3.900  67.503  1.00  0.00     1.239 C  
HETATM   19  O   UNL     1     -11.125   6.030  66.481  1.00  0.00    -0.209 OA 
HETATM   20  O   UNL     1     -10.583   3.545  66.101  1.00  0.00     0.911 OA 
BRANCH  14  21
HETATM   21  C   UNL     1      -8.743   6.579  69.031  1.00  0.00    -0.128 C  
BRANCH  21  22
HETATM   22  O   UNL     1      -7.431   6.289  69.500  1.00  0.00    -0.088 OA 
BRANCH  22  23
HETATM   23  P   UNL     1      -6.255   7.306  69.138  1.00  0.00    -0.036 P  
HETATM   24  O   UNL     1      -5.633   8.057  70.267  1.00  0.00    -0.023 OA 
HETATM   25  O   UNL     1      -5.155   6.317  68.508  1.00  0.00    -0.006 OA 
BRANCH  23  26
HETATM   26  O   UNL     1      -6.718   8.143  67.880  1.00  0.00    -0.062 OA 
BRANCH  26  27
HETATM   27  P   UNL     1      -7.391   9.572  67.938  1.00  0.00    -0.082 P  
HETATM   28  O   UNL     1      -8.116   9.565  69.372  1.00  0.00    -0.099 OA 
HETATM   29  O   UNL     1      -8.381   9.924  66.880  1.00  0.00    -0.123 OA 
BRANCH  27  30
HETATM   30  O   UNL     1      -6.216  10.645  68.138  1.00  0.00    -0.056 OA 
BRANCH  30  31
HETATM   31  C   UNL     1      -6.474  12.041  68.023  1.00  0.00    -0.061 C  
BRANCH  31  32
HETATM   32  C   UNL     1      -7.882  12.435  68.455  1.00  0.00    -0.142 C  
HETATM   33  O   UNL     1      -8.012  13.865  68.581  1.00  0.00    -0.138 OA 
HETATM   34  C   UNL     1      -9.435  14.082  68.609  1.00  0.00    -0.142 C  
HETATM   35  H   UNL     1     -10.101  10.463  67.071  1.00  0.00     0.000 HD 
HETATM   36  C   UNL     1     -10.013  13.112  67.565  1.00  0.00    -0.223 C  
HETATM   37  C   UNL     1      -8.942  12.025  67.438  1.00  0.00    -0.176 C  
HETATM   38  H   UNL     1     -11.628  11.945  67.297  1.00  0.00     0.000 HD 
HETATM   39  O   UNL     1     -11.271  12.545  67.941  1.00  0.00    -0.232 OA 
HETATM   40  O   UNL     1      -9.441  10.719  67.704  1.00  0.00    -0.153 OA 
BRANCH  34  41
HETATM   41  N   UNL     1      -9.746  15.470  68.334  1.00  0.00    -0.200 NA 
HETATM   42  C   UNL     1     -10.849  16.179  68.718  1.00  0.00    -0.310 A  
HETATM   43  N   UNL     1     -10.783  17.438  68.331  1.00  0.00    -0.340 NA 
HETATM   44  C   UNL     1      -9.592  17.535  67.641  1.00  0.00    -0.266 A  
HETATM   45  C   UNL     1      -8.947  18.605  66.999  1.00  0.00    -0.285 A  
HETATM   46  N   UNL     1      -9.444  19.900  66.993  1.00  0.00    -0.356 NA 
HETATM   47  N   UNL     1      -7.783  18.362  66.352  1.00  0.00    -0.252 NA 
HETATM   48  H1  UNL     1      -8.975  20.677  66.527  1.00  0.00     0.000 HD 
HETATM   49  C   UNL     1      -7.273  17.112  66.393  1.00  0.00    -0.290 A  
HETATM   50  H2  UNL     1      -9.591  20.174  67.966  1.00  0.00     0.000 HD 
HETATM   51  N   UNL     1      -7.770  16.019  67.018  1.00  0.00    -0.206 NA 
HETATM   52  C   UNL     1      -8.944  16.311  67.608  1.00  0.00    -0.192 A  
ENDBRANCH  34  41
ENDBRANCH  31  32
ENDBRANCH  30  31
ENDBRANCH  27  30
ENDBRANCH  26  27
ENDBRANCH  23  26
ENDBRANCH  22  23
ENDBRANCH  21  22
ENDBRANCH  14  21
ENDBRANCH   8  12
ENDBRANCH   4   6
TORSDOF 11
ENDMDL
MODEL      319
REMARK 921   NORMALIZED FREE ENERGY PREDICTED BY IDOCK:    3.81 KCAL/MOL
REMARK 922        TOTAL FREE ENERGY PREDICTED BY IDOCK:    4.06 KCAL/MOL
REMARK 923 INTER-LIGAND FREE ENERGY PREDICTED BY IDOCK:   -0.37 KCAL/MOL
REMARK 924 INTRA-LIGAND FREE ENERGY PREDICTED BY IDOCK:    4.43 KCAL/MOL
REMARK 927      BINDING AFFINITY PREDICTED BY RF-SCORE:    0.00 PKD
ROOT
HETATM    1  N   UNL     1      -5.674   8.237  72.279  1.00  0.00    -0.040 N  
HETATM    2  H1  UNL     1      -5.187   8.161  71.386  1.00  0.00     0.000 HD 
HETATM    3  H2  UNL     1      -5.161   8.536  73.110  1.00  0.00     0.000 HD 
HETATM    4  C   UNL     1      -6.990   7.947  72.375  1.00  0.00    -0.075 C  
HETATM    5  O   UNL     1      -7.578   8.038  73.453  1.00  0.00    -0.133 OA 
ENDROOT
BRANCH   4   6
HETATM    6  C   UNL     1      -7.666   7.507  71.134  1.00  0.00    -0.089 C  
HETATM    7  C   UNL     1      -8.907   7.004  71.274  1.00  0.00    -0.133 C  
HETATM    8  N   UNL     1      -9.703   6.604  70.205  1.00  0.00    -0.164 NA 
HETATM    9  C   UNL     1      -7.050   7.676  69.772  1.00  0.00    -0.067 C  
HETATM   10  C   UNL     1      -9.115   6.590  68.934  1.00  0.00    -0.131 C  
HETATM   11  C   UNL     1      -7.890   7.070  68.676  1.00  0.00    -0.119 C  
BRANCH   8  12
HETATM   12  C   UNL     1     -11.158   6.350  70.300  1.00  0.00    -0.354 C  
HETATM   13  O   UNL     1     -11.833   7.137  69.293  1.00  0.00     0.295 OA 
HETATM   14  C   UNL     1     -12.158   8.416  69.881  1.00  0.00     0.922 C  
HETATM   15  H   UNL     1     -13.592   6.245  72.529  1.00  0.00     0.000 HD 
HETATM   16  C   UNL     1     -12.217   8.217  71.393  1.00  0.00    -0.297 C  
HETATM   17  H   UNL     1     -13.555   8.418  72.835  1.00  0.00     0.000 HD 
HETATM   18  C   UNL     1     -11.894   6.738  71.592  1.00  0.00    -0.326 C  
HETATM   19  O   UNL     1     -13.519   8.542  71.894  1.00  0.00    -0.348 OA 
HETATM   20  O   UNL     1     -13.137   6.005  71.730  1.00  0.00     0.382 OA 
BRANCH  14  21
HETATM   21  C   UNL     1     -11.118   9.472  69.475  1.00  0.00    -0.142 C  
BRANCH  21  22
HETATM   22  O   UNL     1     -11.310   9.891  68.130  1.00  0.00    -0.151 OA 
BRANCH  22  23
HETATM   23  P   UNL     1     -11.136  11.441  67.787  1.00  0.00    -0.300 P  
HETATM   24  O   UNL     1      -9.742  11.965  67.691  1.00  0.00    -0.179 OA 
HETATM   25  O   UNL     1     -11.822  11.531  66.336  1.00  0.00    -0.397 OA 
BRANCH  23  26
HETATM   26  O   UNL     1     -12.152  12.246  68.691  1.00  0.00    -0.272 OA 
BRANCH  26  27
HETATM   27  P   UNL     1     -12.582  11.839  70.158  1.00  0.00     0.191 P  
HETATM   28  O   UNL     1     -11.259  11.131  70.732  1.00  0.00     0.132 OA 
HETATM   29  O   UNL     1     -13.747  10.922  70.317  1.00  0.00     0.731 OA 
BRANCH  27  30
HETATM   30  O   UNL     1     -12.669  13.188  71.022  1.00  0.00    -0.337 OA 
BRANCH  30  31
HETATM   31  C   UNL     1     -12.722  14.460  70.385  1.00  0.00    -0.304 C  
BRANCH  31  32
HETATM   32  C   UNL     1     -11.469  14.788  69.579  1.00  0.00    -0.298 C  
HETATM   33  O   UNL     1     -11.803  15.294  68.272  1.00  0.00    -0.336 OA 
HETATM   34  C   UNL     1     -10.579  15.897  67.811  1.00  0.00    -0.302 C  
HETATM   35  H   UNL     1      -9.140  16.014  71.529  1.00  0.00     0.000 HD 
HETATM   36  C   UNL     1      -9.991  16.608  69.041  1.00  0.00    -0.280 C  
HETATM   37  C   UNL     1     -10.626  15.881  70.228  1.00  0.00    -0.250 C  
HETATM   38  H   UNL     1      -8.200  16.988  69.871  1.00  0.00     0.000 HD 
HETATM   39  O   UNL     1      -8.563  16.548  69.111  1.00  0.00    -0.230 OA 
HETATM   40  O   UNL     1      -9.665  15.334  71.124  1.00  0.00     1.014 OA 
BRANCH  34  41
HETATM   41  N   UNL     1     -10.836  16.791  66.700  1.00  0.00    -0.095 NA 
HETATM   42  C   UNL     1     -11.485  16.515  65.530  1.00  0.00     0.580 A  
HETATM   43  N   UNL     1     -11.579  17.580  64.758  1.00  0.00     0.210 NA 
HETATM   44  C   UNL     1     -10.935  18.582  65.455  1.00  0.00     0.502 A  
HETATM   45  C   UNL     1     -10.706  19.940  65.179  1.00  0.00     0.360 A  
HETATM   46  N   UNL     1     -11.186  20.577  64.044  1.00  0.00     1.460 NA 
HETATM   47  N   UNL     1      -9.979  20.664  66.063  1.00  0.00     0.041 NA 
HETATM   48  H1  UNL     1     -11.019  21.564  63.844  1.00  0.00     0.000 HD 
HETATM   49  C   UNL     1      -9.548  20.058  67.191  1.00  0.00    -0.402 A  
HETATM   50  H2  UNL     1     -12.195  20.428  64.016  1.00  0.00     0.000 HD 
HETATM   51  N   UNL     1      -9.749  18.781  67.590  1.00  0.00    -0.302 NA 
HETATM   52  C   UNL     1     -10.440  18.102  66.657  1.00  0.00    -0.339 A  
ENDBRANCH  34  41
ENDBRANCH  31  32
ENDBRANCH  30  31
ENDBRANCH  27  30
ENDBRANCH  26  27
ENDBRANCH  23  26
ENDBRANCH  22  23
ENDBRANCH  21  22
ENDBRANCH  14  21
ENDBRANCH   8  12
ENDBRANCH   4   6
TORSDOF 11
ENDMDL
MODEL      320
REMARK 921   NORMALIZED FREE ENERGY PREDICTED BY IDOCK:    4.08 KCAL/MOL
REMARK 922        TOTAL FREE ENERGY PREDICTED BY IDOCK:    4.50 KCAL/MOL
REMARK 923 INTER-LIGAND FREE ENERGY PREDICTED BY IDOCK:   -1.56 KCAL/MOL
REMARK 924 INTRA-LIGAND FREE ENERGY PREDICTED BY IDOCK:    6.06 KCAL/MOL
REMARK 927      BINDING AFFINITY PREDICTED BY RF-SCORE:    0.00 PKD
ROOT
HETATM    1  N   UNL     1     -10.379  20.575  68.451  1.00  0.00    -0.066 N  
HETATM    2  H1  UNL     1      -9.906  20.458  69.348  1.00  0.00     0.000 HD 
HETATM    3  H2  UNL     1     -10.932  21.414  68.279  1.00  0.00     0.000 HD 
HETATM    4  C   UNL     1     -10.281  19.630  67.490  1.00  0.00    -0.432 C  
HETATM    5  O   UNL     1     -10.851  19.772  66.408  1.00  0.00    -0.440 OA 
ENDROOT
BRANCH   4   6
HETATM    6  C   UNL     1      -9.474  18.432  67.814  1.00  0.00    -0.291 C  
HETATM    7  C   UNL     1      -9.859  17.724  68.891  1.00  0.00    -0.290 C  
HETATM    8  N   UNL     1      -9.249  16.540  69.296  1.00  0.00    -0.185 NA 
HETATM    9  C   UNL     1      -8.328  17.971  66.955  1.00  0.00    -0.263 C  
HETATM   10  C   UNL     1      -8.081  16.157  68.626  1.00  0.00    -0.203 C  
HETATM   11  C   UNL     1      -7.606  16.783  67.539  1.00  0.00    -0.179 C  
BRANCH   8  12
HETATM   12  C   UNL     1      -9.836  15.591  70.267  1.00  0.00     0.178 C  
HETATM   13  O   UNL     1      -9.187  14.309  70.114  1.00  0.00     1.112 OA 
HETATM   14  C   UNL     1      -9.934  13.554  69.134  1.00  0.00     0.271 C  
HETATM   15  H   UNL     1     -12.772  14.512  71.328  1.00  0.00     0.000 HD 
HETATM   16  C   UNL     1     -11.353  14.117  69.115  1.00  0.00    -0.279 C  
HETATM   17  H   UNL     1     -13.185  13.453  69.450  1.00  0.00     0.000 HD 
HETATM   18  C   UNL     1     -11.328  15.239  70.148  1.00  0.00    -0.289 C  
HETATM   19  O   UNL     1     -12.302  13.102  69.463  1.00  0.00    -0.191 OA 
HETATM   20  O   UNL     1     -11.849  14.730  71.401  1.00  0.00    -0.329 OA 
BRANCH  14  21
HETATM   21  C   UNL     1      -9.255  13.643  67.759  1.00  0.00    -0.214 C  
BRANCH  21  22
HETATM   22  O   UNL     1      -9.494  12.469  66.991  1.00  0.00    -0.204 OA 
BRANCH  22  23
HETATM   23  P   UNL     1     -10.362  12.601  65.657  1.00  0.00    -0.276 P  
HETATM   24  O   UNL     1     -11.399  13.673  65.621  1.00  0.00    -0.298 OA 
HETATM   25  O   UNL     1      -9.230  12.940  64.566  1.00  0.00     0.637 OA 
BRANCH  23  26
HETATM   26  O   UNL     1     -10.812  11.145  65.236  1.00  0.00    -0.242 OA 
BRANCH  26  27
HETATM   27  P   UNL     1      -9.995  10.183  64.283  1.00  0.00     0.348 P  
HETATM   28  O   UNL     1     -10.542  10.578  62.825  1.00  0.00     0.394 OA 
HETATM   29  O   UNL     1     -10.134   8.713  64.487  1.00  0.00     2.056 OA 
BRANCH  27  30
HETATM   30  O   UNL     1      -8.481  10.714  64.253  1.00  0.00    -0.156 OA 
BRANCH  30  31
HETATM   31  C   UNL     1      -7.940  11.440  65.351  1.00  0.00     0.522 C  
BRANCH  31  32
HETATM   32  C   UNL     1      -7.246  10.556  66.382  1.00  0.00    -0.129 C  
HETATM   33  O   UNL     1      -7.957  10.552  67.635  1.00  0.00    -0.105 OA 
HETATM   34  C   UNL     1      -7.416   9.416  68.336  1.00  0.00    -0.078 C  
HETATM   35  H   UNL     1      -5.962   7.909  64.942  1.00  0.00     0.000 HD 
HETATM   36  C   UNL     1      -7.259   8.320  67.270  1.00  0.00    -0.084 C  
HETATM   37  C   UNL     1      -7.184   9.094  65.951  1.00  0.00    -0.093 C  
HETATM   38  H   UNL     1      -5.998   6.829  66.789  1.00  0.00     0.000 HD 
HETATM   39  O   UNL     1      -6.095   7.506  67.448  1.00  0.00    -0.044 OA 
HETATM   40  O   UNL     1      -6.000   8.819  65.211  1.00  0.00    -0.048 OA 
BRANCH  34  41
HETATM   41  N   UNL     1      -8.283   9.030  69.430  1.00  0.00    -0.114 NA 
HETATM   42  C   UNL     1      -8.922   9.842  70.325  1.00  0.00    -0.150 A  
HETATM   43  N   UNL     1      -9.671   9.153  71.165  1.00  0.00    -0.290 NA 
HETATM   44  C   UNL     1      -9.481   7.833  70.809  1.00  0.00    -0.161 A  
HETATM   45  C   UNL     1     -10.004   6.628  71.306  1.00  0.00    -0.180 A  
HETATM   46  N   UNL     1     -10.939   6.567  72.328  1.00  0.00    -0.238 NA 
HETATM   47  N   UNL     1      -9.572   5.465  70.761  1.00  0.00    -0.166 NA 
HETATM   48  H1  UNL     1     -11.319   5.692  72.688  1.00  0.00     0.000 HD 
HETATM   49  C   UNL     1      -8.695   5.521  69.736  1.00  0.00    -0.116 A  
HETATM   50  H2  UNL     1     -11.730   7.150  72.050  1.00  0.00     0.000 HD 
HETATM   51  N   UNL     1      -8.165   6.614  69.140  1.00  0.00    -0.119 NA 
HETATM   52  C   UNL     1      -8.597   7.735  69.747  1.00  0.00    -0.134 A  
ENDBRANCH  34  41
ENDBRANCH  31  32
ENDBRANCH  30  31
ENDBRANCH  27  30
ENDBRANCH  26  27
ENDBRANCH  23  26
ENDBRANCH  22  23
ENDBRANCH  21  22
ENDBRANCH  14  21
ENDBRANCH   8  12
ENDBRANCH   4   6
TORSDOF 11
ENDMDL
MODEL      321
REMARK 921   NORMALIZED FREE ENERGY PREDICTED BY IDOCK:    5.01 KCAL/MOL
REMARK 922        TOTAL FREE ENERGY PREDICTED BY IDOCK:    6.04 KCAL/MOL
REMARK 923 INTER-LIGAND FREE ENERGY PREDICTED BY IDOCK:   -0.11 KCAL/MOL
REMARK 924 INTRA-LIGAND FREE ENERGY PREDICTED BY IDOCK:    6.14 KCAL/MOL
REMARK 927      BINDING AFFINITY PREDICTED BY RF-SCORE:    0.00 PKD
ROOT
HETATM    1  N   UNL     1      -5.563   8.349  72.110  1.00  0.00    -0.040 N  
HETATM    2  H1  UNL     1      -5.097   7.903  71.319  1.00  0.00     0.000 HD 
HETATM    3  H2  UNL     1      -5.030   8.571  72.950  1.00  0.00     0.000 HD 
HETATM    4  C   UNL     1      -6.880   8.650  72.055  1.00  0.00    -0.068 C  
HETATM    5  O   UNL     1      -7.442   9.188  73.009  1.00  0.00    -0.128 OA 
ENDROOT
BRANCH   4   6
HETATM    6  C   UNL     1      -7.594   8.287  70.810  1.00  0.00    -0.073 C  
HETATM    7  C   UNL     1      -8.590   9.109  70.431  1.00  0.00    -0.209 C  
HETATM    8  N   UNL     1      -9.319   8.947  69.256  1.00  0.00    -0.148 NA 
HETATM    9  C   UNL     1      -7.194   7.112  69.960  1.00  0.00    -0.078 C  
HETATM   10  C   UNL     1      -9.094   7.781  68.515  1.00  0.00    -0.132 C  
HETATM   11  C   UNL     1      -8.127   6.895  68.795  1.00  0.00    -0.121 C  
BRANCH   8  12
HETATM   12  C   UNL     1     -10.187   9.989  68.665  1.00  0.00    -0.180 C  
HETATM   13  O   UNL     1      -9.945  10.042  67.241  1.00  0.00    -0.179 OA 
HETATM   14  C   UNL     1      -8.881  10.994  67.013  1.00  0.00    -0.143 C  
HETATM   15  H   UNL     1     -11.060  13.142  69.115  1.00  0.00     0.000 HD 
HETATM   16  C   UNL     1      -8.866  11.950  68.203  1.00  0.00    -0.178 C  
HETATM   17  H   UNL     1      -9.087  13.891  68.512  1.00  0.00     0.000 HD 
HETATM   18  C   UNL     1      -9.992  11.450  69.103  1.00  0.00     0.019 C  
HETATM   19  O   UNL     1      -9.097  13.296  67.770  1.00  0.00    -0.183 OA 
HETATM   20  O   UNL     1     -11.180  12.239  68.844  1.00  0.00    -0.241 OA 
BRANCH  14  21
HETATM   21  C   UNL     1      -7.540  10.265  66.836  1.00  0.00    -0.105 C  
BRANCH  21  22
HETATM   22  O   UNL     1      -7.588   9.359  65.741  1.00  0.00    -0.097 OA 
BRANCH  22  23
HETATM   23  P   UNL     1      -8.533   9.714  64.504  1.00  0.00    -0.209 P  
HETATM   24  O   UNL     1      -9.748   8.871  64.310  1.00  0.00     0.904 OA 
HETATM   25  O   UNL     1      -8.995  11.211  64.870  1.00  0.00    -0.151 OA 
BRANCH  23  26
HETATM   26  O   UNL     1      -7.604   9.947  63.247  1.00  0.00    -0.127 OA 
BRANCH  26  27
HETATM   27  P   UNL     1      -6.159  10.588  63.291  1.00  0.00     0.058 P  
HETATM   28  O   UNL     1      -5.818  10.585  64.862  1.00  0.00    -0.132 OA 
HETATM   29  O   UNL     1      -5.986  11.964  62.746  1.00  0.00     1.075 OA 
BRANCH  27  30
HETATM   30  O   UNL     1      -5.136   9.501  62.702  1.00  0.00    -0.076 OA 
BRANCH  30  31
HETATM   31  C   UNL     1      -5.529   8.143  62.539  1.00  0.00    -0.069 C  
BRANCH  31  32
HETATM   32  C   UNL     1      -6.486   7.652  63.621  1.00  0.00    -0.054 C  
HETATM   33  O   UNL     1      -7.664   7.053  63.048  1.00  0.00    -0.103 OA 
HETATM   34  C   UNL     1      -8.249   6.325  64.144  1.00  0.00    -0.010 C  
HETATM   35  H   UNL     1      -4.816   6.449  66.169  1.00  0.00     0.000 HD 
HETATM   36  C   UNL     1      -7.062   5.690  64.887  1.00  0.00    -0.060 C  
HETATM   37  C   UNL     1      -5.870   6.567  64.498  1.00  0.00    -0.030 C  
HETATM   38  H   UNL     1      -6.492   5.262  66.767  1.00  0.00     0.000 HD 
HETATM   39  O   UNL     1      -7.226   5.654  66.308  1.00  0.00    -0.074 OA 
HETATM   40  O   UNL     1      -5.199   7.125  65.623  1.00  0.00    -0.023 OA 
BRANCH  34  41
HETATM   41  N   UNL     1      -9.207   5.352  63.658  1.00  0.00     0.380 NA 
HETATM   42  C   UNL     1     -10.015   5.442  62.559  1.00  0.00     1.013 A  
HETATM   43  N   UNL     1     -10.733   4.350  62.387  1.00  0.00    -0.049 NA 
HETATM   44  C   UNL     1     -10.390   3.529  63.442  1.00  0.00    -0.224 A  
HETATM   45  C   UNL     1     -10.792   2.236  63.815  1.00  0.00     0.024 A  
HETATM   46  N   UNL     1     -11.673   1.468  63.067  1.00  0.00    -0.445 NA 
HETATM   47  N   UNL     1     -10.298   1.712  64.961  1.00  0.00     0.817 NA 
HETATM   48  H1  UNL     1     -11.965   0.529  63.338  1.00  0.00     0.000 HD 
HETATM   49  C   UNL     1      -9.405   2.438  65.669  1.00  0.00     0.017 A  
HETATM   50  H2  UNL     1     -11.296   1.408  62.121  1.00  0.00     0.000 HD 
HETATM   51  N   UNL     1      -8.904   3.663  65.387  1.00  0.00    -0.119 NA 
HETATM   52  C   UNL     1      -9.460   4.149  64.261  1.00  0.00    -0.160 A  
ENDBRANCH  34  41
ENDBRANCH  31  32
ENDBRANCH  30  31
ENDBRANCH  27  30
ENDBRANCH  26  27
ENDBRANCH  23  26
ENDBRANCH  22  23
ENDBRANCH  21  22
ENDBRANCH  14  21
ENDBRANCH   8  12
ENDBRANCH   4   6
TORSDOF 11
ENDMDL
MODEL      322
REMARK 921   NORMALIZED FREE ENERGY PREDICTED BY IDOCK:    5.11 KCAL/MOL
REMARK 922        TOTAL FREE ENERGY PREDICTED BY IDOCK:    6.20 KCAL/MOL
REMARK 923 INTER-LIGAND FREE ENERGY PREDICTED BY IDOCK:    3.83 KCAL/MOL
REMARK 924 INTRA-LIGAND FREE ENERGY PREDICTED BY IDOCK:    2.37 KCAL/MOL
REMARK 927      BINDING AFFINITY PREDICTED BY RF-SCORE:    0.00 PKD
ROOT
HETATM    1  N   UNL     1     -14.197  13.090  71.489  1.00  0.00     0.817 N  
HETATM    2  H1  UNL     1     -13.803  12.355  70.902  1.00  0.00     0.000 HD 
HETATM    3  H2  UNL     1     -15.106  12.949  71.931  1.00  0.00     0.000 HD 
HETATM    4  C   UNL     1     -13.530  14.248  71.689  1.00  0.00    -0.376 C  
HETATM    5  O   UNL     1     -14.006  15.135  72.398  1.00  0.00    -0.467 OA 
ENDROOT
BRANCH   4   6
HETATM    6  C   UNL     1     -12.223  14.389  71.007  1.00  0.00    -0.422 C  
HETATM    7  C   UNL     1     -11.801  13.326  70.298  1.00  0.00    -0.234 C  
HETATM    8  N   UNL     1     -10.628  13.316  69.547  1.00  0.00     0.238 NA 
HETATM    9  C   UNL     1     -11.433  15.668  71.029  1.00  0.00    -0.439 C  
HETATM   10  C   UNL     1      -9.778  14.422  69.666  1.00  0.00     0.441 C  
HETATM   11  C   UNL     1     -10.097  15.537  70.340  1.00  0.00     0.076 C  
BRANCH   8  12
HETATM   12  C   UNL     1     -10.304  12.297  68.524  1.00  0.00    -0.223 C  
HETATM   13  O   UNL     1      -8.884  12.342  68.258  1.00  0.00    -0.185 OA 
HETATM   14  C   UNL     1      -8.670  13.286  67.185  1.00  0.00    -0.212 C  
HETATM   15  H   UNL     1     -11.310  11.244  65.560  1.00  0.00     0.000 HD 
HETATM   16  C   UNL     1      -9.976  13.385  66.401  1.00  0.00    -0.293 C  
HETATM   17  H   UNL     1     -10.588  13.053  64.549  1.00  0.00     0.000 HD 
HETATM   18  C   UNL     1     -10.923  12.432  67.124  1.00  0.00    -0.262 C  
HETATM   19  O   UNL     1      -9.775  12.992  65.037  1.00  0.00    -0.080 OA 
HETATM   20  O   UNL     1     -10.927  11.161  66.426  1.00  0.00    -0.262 OA 
BRANCH  14  21
HETATM   21  C   UNL     1      -8.229  14.646  67.749  1.00  0.00    -0.162 C  
BRANCH  21  22
HETATM   22  O   UNL     1      -8.331  15.669  66.766  1.00  0.00    -0.234 OA 
BRANCH  22  23
HETATM   23  P   UNL     1      -7.047  16.572  66.476  1.00  0.00     0.199 P  
HETATM   24  O   UNL     1      -5.791  15.867  66.090  1.00  0.00     1.190 OA 
HETATM   25  O   UNL     1      -7.548  17.455  65.228  1.00  0.00     0.282 OA 
BRANCH  23  26
HETATM   26  O   UNL     1      -6.950  17.646  67.632  1.00  0.00    -0.171 OA 
BRANCH  26  27
HETATM   27  P   UNL     1      -6.156  17.453  68.986  1.00  0.00    -0.224 P  
HETATM   28  O   UNL     1      -5.133  18.692  68.977  1.00  0.00    -0.184 OA 
HETATM   29  O   UNL     1      -5.399  16.183  69.179  1.00  0.00    -0.109 OA 
BRANCH  27  30
HETATM   30  O   UNL     1      -7.157  17.825  70.183  1.00  0.00     0.698 OA 
BRANCH  30  31
HETATM   31  C   UNL     1      -7.247  19.159  70.671  1.00  0.00     1.413 C  
BRANCH  31  32
HETATM   32  C   UNL     1      -8.217  20.031  69.880  1.00  0.00     0.897 C  
HETATM   33  O   UNL     1      -8.372  19.552  68.530  1.00  0.00    -0.343 OA 
HETATM   34  C   UNL     1      -9.561  20.218  68.062  1.00  0.00    -0.251 C  
HETATM   35  H   UNL     1     -10.661  21.062  71.801  1.00  0.00     0.000 HD 
HETATM   36  C   UNL     1     -10.534  20.193  69.252  1.00  0.00     0.230 C  
HETATM   37  C   UNL     1      -9.623  20.027  70.471  1.00  0.00     1.260 C  
HETATM   38  H   UNL     1     -11.931  21.361  70.104  1.00  0.00     0.000 HD 
HETATM   39  O   UNL     1     -11.330  21.376  69.369  1.00  0.00     1.270 OA 
HETATM   40  O   UNL     1      -9.786  21.064  71.433  1.00  0.00     1.860 OA 
BRANCH  34  41
HETATM   41  N   UNL     1     -10.083  19.560  66.881  1.00  0.00    -0.369 NA 
HETATM   42  C   UNL     1     -10.215  20.071  65.621  1.00  0.00    -0.258 A  
HETATM   43  N   UNL     1     -10.687  19.176  64.775  1.00  0.00     0.389 NA 
HETATM   44  C   UNL     1     -10.896  18.044  65.536  1.00  0.00     0.146 A  
HETATM   45  C   UNL     1     -11.369  16.759  65.223  1.00  0.00     0.323 A  
HETATM   46  N   UNL     1     -11.701  16.363  63.936  1.00  0.00    -1.527 NA 
HETATM   47  N   UNL     1     -11.509  15.861  66.227  1.00  0.00     0.232 NA 
HETATM   48  H1  UNL     1     -12.045  15.429  63.709  1.00  0.00     0.000 HD 
HETATM   49  C   UNL     1     -11.144  16.229  67.475  1.00  0.00    -0.140 A  
HETATM   50  H2  UNL     1     -10.889  16.539  63.344  1.00  0.00     0.000 HD 
HETATM   51  N   UNL     1     -10.630  17.410  67.888  1.00  0.00    -0.380 NA 
HETATM   52  C   UNL     1     -10.551  18.272  66.858  1.00  0.00    -0.329 A  
ENDBRANCH  34  41
ENDBRANCH  31  32
ENDBRANCH  30  31
ENDBRANCH  27  30
ENDBRANCH  26  27
ENDBRANCH  23  26
ENDBRANCH  22  23
ENDBRANCH  21  22
ENDBRANCH  14  21
ENDBRANCH   8  12
ENDBRANCH   4   6
TORSDOF 11
ENDMDL
MODEL      323
REMARK 921   NORMALIZED FREE ENERGY PREDICTED BY IDOCK:    5.24 KCAL/MOL
REMARK 922        TOTAL FREE ENERGY PREDICTED BY IDOCK:    6.41 KCAL/MOL
REMARK 923 INTER-LIGAND FREE ENERGY PREDICTED BY IDOCK:    0.60 KCAL/MOL
REMARK 924 INTRA-LIGAND FREE ENERGY PREDICTED BY IDOCK:    5.82 KCAL/MOL
REMARK 927      BINDING AFFINITY PREDICTED BY RF-SCORE:    0.00 PKD
ROOT
HETATM    1  N   UNL     1     -13.656  12.738  70.018  1.00  0.00     2.117 N  
HETATM    2  H1  UNL     1     -14.576  12.525  70.404  1.00  0.00     0.000 HD 
HETATM    3  H2  UNL     1     -13.561  13.474  69.318  1.00  0.00     0.000 HD 
HETATM    4  C   UNL     1     -12.562  12.057  70.424  1.00  0.00    -0.049 C  
HETATM    5  O   UNL     1     -11.452  12.314  69.959  1.00  0.00    -0.198 OA 
ENDROOT
BRANCH   4   6
HETATM    6  C   UNL     1     -12.776  10.994  71.433  1.00  0.00    -0.534 C  
HETATM    7  C   UNL     1     -12.086   9.852  71.254  1.00  0.00    -0.394 C  
HETATM    8  N   UNL     1     -12.125   8.781  72.142  1.00  0.00    -0.367 NA 
HETATM    9  C   UNL     1     -13.652  11.188  72.640  1.00  0.00     0.947 C  
HETATM   10  C   UNL     1     -13.047   8.848  73.193  1.00  0.00     0.746 C  
HETATM   11  C   UNL     1     -13.782   9.935  73.469  1.00  0.00     3.292 C  
BRANCH   8  12
HETATM   12  C   UNL     1     -11.155   7.663  72.140  1.00  0.00    -0.267 C  
HETATM   13  O   UNL     1      -9.983   8.068  71.396  1.00  0.00    -0.172 OA 
HETATM   14  C   UNL     1     -10.195   7.703  70.013  1.00  0.00    -0.213 C  
HETATM   15  H   UNL     1     -10.996   4.418  71.546  1.00  0.00     0.000 HD 
HETATM   16  C   UNL     1     -11.215   6.567  69.996  1.00  0.00    -0.393 C  
HETATM   17  H   UNL     1     -11.286   4.687  69.387  1.00  0.00     0.000 HD 
HETATM   18  C   UNL     1     -11.552   6.340  71.467  1.00  0.00    -0.287 C  
HETATM   19  O   UNL     1     -10.651   5.394  69.398  1.00  0.00    -0.276 OA 
HETATM   20  O   UNL     1     -10.751   5.237  71.962  1.00  0.00    -0.222 OA 
BRANCH  14  21
HETATM   21  C   UNL     1     -10.670   8.921  69.206  1.00  0.00    -0.162 C  
BRANCH  21  22
HETATM   22  O   UNL     1      -9.594   9.514  68.489  1.00  0.00    -0.141 OA 
BRANCH  22  23
HETATM   23  P   UNL     1      -8.202   9.718  69.245  1.00  0.00    -0.160 P  
HETATM   24  O   UNL     1      -8.246  10.353  70.594  1.00  0.00     0.350 OA 
HETATM   25  O   UNL     1      -7.695   8.201  69.404  1.00  0.00    -0.098 OA 
BRANCH  23  26
HETATM   26  O   UNL     1      -7.175  10.310  68.199  1.00  0.00    -0.081 OA 
BRANCH  26  27
HETATM   27  P   UNL     1      -7.431  10.431  66.644  1.00  0.00    -0.126 P  
HETATM   28  O   UNL     1      -8.489   9.254  66.365  1.00  0.00    -0.120 OA 
HETATM   29  O   UNL     1      -6.264  10.280  65.728  1.00  0.00    -0.090 OA 
BRANCH  27  30
HETATM   30  O   UNL     1      -8.301  11.757  66.405  1.00  0.00    -0.142 OA 
BRANCH  30  31
HETATM   31  C   UNL     1      -9.445  12.033  67.206  1.00  0.00    -0.181 C  
BRANCH  31  32
HETATM   32  C   UNL     1      -9.399  13.401  67.880  1.00  0.00    -0.216 C  
HETATM   33  O   UNL     1      -8.420  14.258  67.263  1.00  0.00    -0.191 OA 
HETATM   34  C   UNL     1      -8.764  15.574  67.737  1.00  0.00    -0.167 C  
HETATM   35  H   UNL     1     -12.404  14.332  68.790  1.00  0.00     0.000 HD 
HETATM   36  C   UNL     1     -10.300  15.625  67.708  1.00  0.00    -0.266 C  
HETATM   37  C   UNL     1     -10.720  14.154  67.766  1.00  0.00    -0.247 C  
HETATM   38  H   UNL     1     -11.821  16.391  68.777  1.00  0.00     0.000 HD 
HETATM   39  O   UNL     1     -10.872  16.360  68.794  1.00  0.00    -0.297 OA 
HETATM   40  O   UNL     1     -11.581  13.864  68.861  1.00  0.00    -0.270 OA 
BRANCH  34  41
HETATM   41  N   UNL     1      -8.142  16.592  66.914  1.00  0.00    -0.191 NA 
HETATM   42  C   UNL     1      -7.337  16.419  65.824  1.00  0.00     1.502 A  
HETATM   43  N   UNL     1      -6.982  17.570  65.288  1.00  0.00     0.282 NA 
HETATM   44  C   UNL     1      -7.565  18.530  66.090  1.00  0.00    -0.239 A  
HETATM   45  C   UNL     1      -7.575  19.934  66.043  1.00  0.00    -0.325 A  
HETATM   46  N   UNL     1      -6.963  20.666  65.036  1.00  0.00    -0.519 NA 
HETATM   47  N   UNL     1      -8.213  20.608  67.029  1.00  0.00    -0.253 NA 
HETATM   48  H1  UNL     1      -6.970  21.686  65.002  1.00  0.00     0.000 HD 
HETATM   49  C   UNL     1      -8.849  19.898  67.986  1.00  0.00    -0.271 A  
HETATM   50  H2  UNL     1      -7.334  20.330  64.147  1.00  0.00     0.000 HD 
HETATM   51  N   UNL     1      -8.955  18.555  68.108  1.00  0.00    -0.298 NA 
HETATM   52  C   UNL     1      -8.270  17.940  67.126  1.00  0.00    -0.216 A  
ENDBRANCH  34  41
ENDBRANCH  31  32
ENDBRANCH  30  31
ENDBRANCH  27  30
ENDBRANCH  26  27
ENDBRANCH  23  26
ENDBRANCH  22  23
ENDBRANCH  21  22
ENDBRANCH  14  21
ENDBRANCH   8  12
ENDBRANCH   4   6
TORSDOF 11
ENDMDL
MODEL      324
REMARK 921   NORMALIZED FREE ENERGY PREDICTED BY IDOCK:    5.49 KCAL/MOL
REMARK 922        TOTAL FREE ENERGY PREDICTED BY IDOCK:    6.81 KCAL/MOL
REMARK 923 INTER-LIGAND FREE ENERGY PREDICTED BY IDOCK:   -1.97 KCAL/MOL
REMARK 924 INTRA-LIGAND FREE ENERGY PREDICTED BY IDOCK:    8.78 KCAL/MOL
REMARK 927      BINDING AFFINITY PREDICTED BY RF-SCORE:    0.00 PKD
ROOT
HETATM    1  N   UNL     1      -8.429   7.149  70.788  1.00  0.00    -0.132 N  
HETATM    2  H1  UNL     1      -9.411   7.426  70.793  1.00  0.00     0.000 HD 
HETATM    3  H2  UNL     1      -7.809   7.481  71.527  1.00  0.00     0.000 HD 
HETATM    4  C   UNL     1      -7.941   6.349  69.815  1.00  0.00    -0.119 C  
HETATM    5  O   UNL     1      -6.756   6.016  69.809  1.00  0.00    -0.048 OA 
ENDROOT
BRANCH   4   6
HETATM    6  C   UNL     1      -8.895   5.917  68.768  1.00  0.00    -0.111 C  
HETATM    7  C   UNL     1      -8.737   6.467  67.550  1.00  0.00    -0.114 C  
HETATM    8  N   UNL     1      -9.507   6.124  66.442  1.00  0.00    -0.158 NA 
HETATM    9  C   UNL     1      -9.942   4.864  69.011  1.00  0.00    -0.237 C  
HETATM   10  C   UNL     1     -10.597   5.272  66.655  1.00  0.00    -0.270 C  
HETATM   11  C   UNL     1     -10.848   4.662  67.823  1.00  0.00     0.987 C  
BRANCH   8  12
HETATM   12  C   UNL     1      -9.157   6.470  65.047  1.00  0.00     0.539 C  
HETATM   13  O   UNL     1      -9.611   5.408  64.178  1.00  0.00     0.527 OA 
HETATM   14  C   UNL     1      -8.537   4.448  64.062  1.00  0.00    -0.121 C  
HETATM   15  H   UNL     1      -6.595   7.502  63.236  1.00  0.00     0.000 HD 
HETATM   16  C   UNL     1      -7.236   5.184  64.371  1.00  0.00    -0.055 C  
HETATM   17  H   UNL     1      -5.539   5.589  63.440  1.00  0.00     0.000 HD 
HETATM   18  C   UNL     1      -7.674   6.615  64.670  1.00  0.00    -0.112 C  
HETATM   19  O   UNL     1      -6.349   5.130  63.247  1.00  0.00    -0.025 OA 
HETATM   20  O   UNL     1      -7.512   7.412  63.470  1.00  0.00    -0.089 OA 
BRANCH  14  21
HETATM   21  C   UNL     1      -8.774   3.264  65.014  1.00  0.00    -0.115 C  
BRANCH  21  22
HETATM   22  O   UNL     1      -8.108   3.462  66.255  1.00  0.00    -0.091 OA 
BRANCH  22  23
HETATM   23  P   UNL     1      -6.819   2.574  66.574  1.00  0.00    -0.045 P  
HETATM   24  O   UNL     1      -6.489   1.482  65.612  1.00  0.00    -0.022 OA 
HETATM   25  O   UNL     1      -5.648   3.676  66.526  1.00  0.00    -0.016 OA 
BRANCH  23  26
HETATM   26  O   UNL     1      -6.867   2.198  68.108  1.00  0.00    -0.035 OA 
BRANCH  26  27
HETATM   27  P   UNL     1      -6.640   3.213  69.299  1.00  0.00    -0.034 P  
HETATM   28  O   UNL     1      -7.855   4.250  69.118  1.00  0.00    -0.058 OA 
HETATM   29  O   UNL     1      -5.351   3.960  69.347  1.00  0.00    -0.010 OA 
BRANCH  27  30
HETATM   30  O   UNL     1      -7.022   2.449  70.657  1.00  0.00    -0.032 OA 
BRANCH  30  31
HETATM   31  C   UNL     1      -6.843   3.076  71.922  1.00  0.00    -0.026 C  
BRANCH  31  32
HETATM   32  C   UNL     1      -8.152   3.341  72.660  1.00  0.00    -0.072 C  
HETATM   33  O   UNL     1      -8.337   4.747  72.911  1.00  0.00    -0.100 OA 
HETATM   34  C   UNL     1      -9.734   4.857  73.244  1.00  0.00    -0.137 C  
HETATM   35  H   UNL     1     -10.487   1.293  71.621  1.00  0.00     0.000 HD 
HETATM   36  C   UNL     1     -10.457   3.909  72.274  1.00  0.00    -0.032 C  
HETATM   37  C   UNL     1      -9.374   2.913  71.854  1.00  0.00    -0.120 C  
HETATM   38  H   UNL     1     -12.020   2.644  72.259  1.00  0.00     0.000 HD 
HETATM   39  O   UNL     1     -11.573   3.230  72.858  1.00  0.00     0.238 OA 
HETATM   40  O   UNL     1      -9.726   1.560  72.122  1.00  0.00    -0.088 OA 
BRANCH  34  41
HETATM   41  N   UNL     1     -10.178   6.232  73.138  1.00  0.00    -0.190 NA 
HETATM   42  C   UNL     1      -9.485   7.368  73.452  1.00  0.00    -0.227 A  
HETATM   43  N   UNL     1     -10.181   8.456  73.187  1.00  0.00     0.034 NA 
HETATM   44  C   UNL     1     -11.391   7.997  72.707  1.00  0.00    -0.374 A  
HETATM   45  C   UNL     1     -12.544   8.652  72.245  1.00  0.00    -0.395 A  
HETATM   46  N   UNL     1     -12.648  10.031  72.146  1.00  0.00    -0.283 NA 
HETATM   47  N   UNL     1     -13.610   7.900  71.879  1.00  0.00    -0.318 NA 
HETATM   48  H1  UNL     1     -13.485  10.507  71.810  1.00  0.00     0.000 HD 
HETATM   49  C   UNL     1     -13.497   6.555  71.932  1.00  0.00     0.196 A  
HETATM   50  H2  UNL     1     -11.866  10.354  71.575  1.00  0.00     0.000 HD 
HETATM   51  N   UNL     1     -12.429   5.813  72.305  1.00  0.00     0.108 NA 
HETATM   52  C   UNL     1     -11.418   6.612  72.695  1.00  0.00    -0.183 A  
ENDBRANCH  34  41
ENDBRANCH  31  32
ENDBRANCH  30  31
ENDBRANCH  27  30
ENDBRANCH  26  27
ENDBRANCH  23  26
ENDBRANCH  22  23
ENDBRANCH  21  22
ENDBRANCH  14  21
ENDBRANCH   8  12
ENDBRANCH   4   6
TORSDOF 11
ENDMDL
MODEL      325
REMARK 921   NORMALIZED FREE ENERGY PREDICTED BY IDOCK:    5.53 KCAL/MOL
REMARK 922        TOTAL FREE ENERGY PREDICTED BY IDOCK:    6.88 KCAL/MOL
REMARK 923 INTER-LIGAND FREE ENERGY PREDICTED BY IDOCK:   -4.74 KCAL/MOL
REMARK 924 INTRA-LIGAND FREE ENERGY PREDICTED BY IDOCK:   11.62 KCAL/MOL
REMARK 927      BINDING AFFINITY PREDICTED BY RF-SCORE:    0.00 PKD
ROOT
HETATM    1  N   UNL     1      -9.251   6.461  63.031  1.00  0.00     0.552 N  
HETATM    2  H1  UNL     1      -9.389   7.122  62.266  1.00  0.00     0.000 HD 
HETATM    3  H2  UNL     1      -9.683   5.538  62.984  1.00  0.00     0.000 HD 
HETATM    4  C   UNL     1      -8.502   6.794  64.105  1.00  0.00     0.281 C  
HETATM    5  O   UNL     1      -8.335   5.996  65.028  1.00  0.00    -0.139 OA 
ENDROOT
BRANCH   4   6
HETATM    6  C   UNL     1      -7.916   8.154  64.112  1.00  0.00    -0.142 C  
HETATM    7  C   UNL     1      -7.423   8.586  65.288  1.00  0.00    -0.086 C  
HETATM    8  N   UNL     1      -6.784   9.813  65.452  1.00  0.00    -0.087 NA 
HETATM    9  C   UNL     1      -7.799   8.991  62.869  1.00  0.00    -0.131 C  
HETATM   10  C   UNL     1      -6.795  10.694  64.365  1.00  0.00     0.221 C  
HETATM   11  C   UNL     1      -7.254  10.370  63.147  1.00  0.00    -0.068 C  
BRANCH   8  12
HETATM   12  C   UNL     1      -5.967  10.173  66.631  1.00  0.00    -0.060 C  
HETATM   13  O   UNL     1      -5.273   8.993  67.093  1.00  0.00    -0.035 OA 
HETATM   14  C   UNL     1      -6.124   8.334  68.058  1.00  0.00    -0.047 C  
HETATM   15  H   UNL     1      -6.213  11.742  69.527  1.00  0.00     0.000 HD 
HETATM   16  C   UNL     1      -7.068   9.391  68.626  1.00  0.00    -0.070 C  
HETATM   17  H   UNL     1      -7.479  10.173  70.395  1.00  0.00     0.000 HD 
HETATM   18  C   UNL     1      -6.678  10.675  67.899  1.00  0.00    -0.064 C  
HETATM   19  O   UNL     1      -6.891   9.515  70.042  1.00  0.00    -0.056 OA 
HETATM   20  O   UNL     1      -5.775  11.432  68.743  1.00  0.00    -0.043 OA 
BRANCH  14  21
HETATM   21  C   UNL     1      -6.884   7.174  67.397  1.00  0.00    -0.070 C  
BRANCH  21  22
HETATM   22  O   UNL     1      -7.993   7.649  66.643  1.00  0.00    -0.103 OA 
BRANCH  22  23
HETATM   23  P   UNL     1      -9.396   7.821  67.386  1.00  0.00    -0.153 P  
HETATM   24  O   UNL     1     -10.626   7.736  66.547  1.00  0.00    -0.179 OA 
HETATM   25  O   UNL     1      -9.378   6.575  68.404  1.00  0.00    -0.124 OA 
BRANCH  23  26
HETATM   26  O   UNL     1      -9.269   9.057  68.363  1.00  0.00    -0.136 OA 
BRANCH  26  27
HETATM   27  P   UNL     1     -10.251   9.370  69.563  1.00  0.00    -0.236 P  
HETATM   28  O   UNL     1      -9.441   8.819  70.837  1.00  0.00    -0.179 OA 
HETATM   29  O   UNL     1     -11.610   8.760  69.533  1.00  0.00     0.260 OA 
BRANCH  27  30
HETATM   30  O   UNL     1     -10.235  10.958  69.789  1.00  0.00    -0.088 OA 
BRANCH  30  31
HETATM   31  C   UNL     1     -11.364  11.628  70.340  1.00  0.00     0.284 C  
BRANCH  31  32
HETATM   32  C   UNL     1     -11.961  12.679  69.409  1.00  0.00    -0.260 C  
HETATM   33  O   UNL     1     -11.497  14.001  69.744  1.00  0.00    -0.258 OA 
HETATM   34  C   UNL     1     -11.826  14.787  68.582  1.00  0.00    -0.300 C  
HETATM   35  H   UNL     1     -12.228  11.495  66.367  1.00  0.00     0.000 HD 
HETATM   36  C   UNL     1     -11.502  13.886  67.379  1.00  0.00    -0.348 C  
HETATM   37  C   UNL     1     -11.556  12.468  67.954  1.00  0.00    -0.347 C  
HETATM   38  H   UNL     1     -12.218  13.472  65.547  1.00  0.00     0.000 HD 
HETATM   39  O   UNL     1     -12.418  14.029  66.290  1.00  0.00    -0.465 OA 
HETATM   40  O   UNL     1     -12.480  11.627  67.273  1.00  0.00     0.243 OA 
BRANCH  34  41
HETATM   41  N   UNL     1     -11.085  16.032  68.581  1.00  0.00    -0.329 NA 
HETATM   42  C   UNL     1     -10.724  16.799  69.653  1.00  0.00    -0.229 A  
HETATM   43  N   UNL     1     -10.014  17.848  69.290  1.00  0.00    -0.185 NA 
HETATM   44  C   UNL     1      -9.938  17.767  67.914  1.00  0.00    -0.322 A  
HETATM   45  C   UNL     1      -9.316  18.569  66.944  1.00  0.00    -0.294 A  
HETATM   46  N   UNL     1      -8.548  19.682  67.256  1.00  0.00    -0.297 NA 
HETATM   47  N   UNL     1      -9.472  18.243  65.639  1.00  0.00    -0.177 NA 
HETATM   48  H1  UNL     1      -8.096  20.265  66.551  1.00  0.00     0.000 HD 
HETATM   49  C   UNL     1     -10.181  17.135  65.334  1.00  0.00     0.066 A  
HETATM   50  H2  UNL     1      -7.825  19.379  67.909  1.00  0.00     0.000 HD 
HETATM   51  N   UNL     1     -10.779  16.259  66.175  1.00  0.00    -0.248 NA 
HETATM   52  C   UNL     1     -10.625  16.656  67.452  1.00  0.00    -0.295 A  
ENDBRANCH  34  41
ENDBRANCH  31  32
ENDBRANCH  30  31
ENDBRANCH  27  30
ENDBRANCH  26  27
ENDBRANCH  23  26
ENDBRANCH  22  23
ENDBRANCH  21  22
ENDBRANCH  14  21
ENDBRANCH   8  12
ENDBRANCH   4   6
TORSDOF 11
ENDMDL
MODEL      326
REMARK 921   NORMALIZED FREE ENERGY PREDICTED BY IDOCK:    5.80 KCAL/MOL
REMARK 922        TOTAL FREE ENERGY PREDICTED BY IDOCK:    7.32 KCAL/MOL
REMARK 923 INTER-LIGAND FREE ENERGY PREDICTED BY IDOCK:    4.66 KCAL/MOL
REMARK 924 INTRA-LIGAND FREE ENERGY PREDICTED BY IDOCK:    2.66 KCAL/MOL
REMARK 927      BINDING AFFINITY PREDICTED BY RF-SCORE:    0.00 PKD
ROOT
HETATM    1  N   UNL     1     -10.172   6.444  69.292  1.00  0.00    -0.181 N  
HETATM    2  H1  UNL     1      -9.199   6.742  69.229  1.00  0.00     0.000 HD 
HETATM    3  H2  UNL     1     -10.429   5.693  69.933  1.00  0.00     0.000 HD 
HETATM    4  C   UNL     1     -11.126   7.032  68.536  1.00  0.00    -0.006 C  
HETATM    5  O   UNL     1     -12.300   6.671  68.612  1.00  0.00     1.813 OA 
ENDROOT
BRANCH   4   6
HETATM    6  C   UNL     1     -10.680   8.105  67.619  1.00  0.00    -0.203 C  
HETATM    7  C   UNL     1      -9.473   8.645  67.872  1.00  0.00    -0.139 C  
HETATM    8  N   UNL     1      -8.880   9.618  67.071  1.00  0.00    -0.131 NA 
HETATM    9  C   UNL     1     -11.481   8.529  66.418  1.00  0.00     3.446 C  
HETATM   10  C   UNL     1      -9.653  10.160  66.038  1.00  0.00    -0.210 C  
HETATM   11  C   UNL     1     -10.864   9.698  65.692  1.00  0.00     1.104 C  
BRANCH   8  12
HETATM   12  C   UNL     1      -7.451   9.994  67.141  1.00  0.00    -0.091 C  
HETATM   13  O   UNL     1      -6.734   8.964  67.857  1.00  0.00    -0.067 OA 
HETATM   14  C   UNL     1      -6.751   9.313  69.260  1.00  0.00    -0.049 C  
HETATM   15  H   UNL     1      -5.518  12.553  67.931  1.00  0.00     0.000 HD 
HETATM   16  C   UNL     1      -6.957  10.823  69.348  1.00  0.00    -0.116 C  
HETATM   17  H   UNL     1      -5.980  12.384  70.070  1.00  0.00     0.000 HD 
HETATM   18  C   UNL     1      -7.058  11.276  67.894  1.00  0.00    -0.078 C  
HETATM   19  O   UNL     1      -5.852  11.444  70.016  1.00  0.00    -0.094 OA 
HETATM   20  O   UNL     1      -5.761  11.761  67.466  1.00  0.00    -0.061 OA 
BRANCH  14  21
HETATM   21  C   UNL     1      -7.855   8.533  69.992  1.00  0.00    -0.102 C  
BRANCH  21  22
HETATM   22  O   UNL     1      -7.870   7.168  69.594  1.00  0.00    -0.113 OA 
BRANCH  22  23
HETATM   23  P   UNL     1      -7.681   6.049  70.717  1.00  0.00    -0.101 P  
HETATM   24  O   UNL     1      -8.394   4.754  70.516  1.00  0.00    -0.091 OA 
HETATM   25  O   UNL     1      -6.096   5.783  70.645  1.00  0.00    -0.027 OA 
BRANCH  23  26
HETATM   26  O   UNL     1      -7.841   6.754  72.123  1.00  0.00    -0.095 OA 
BRANCH  26  27
HETATM   27  P   UNL     1      -9.208   7.263  72.733  1.00  0.00    -0.163 P  
HETATM   28  O   UNL     1      -8.730   8.345  73.821  1.00  0.00    -0.240 OA 
HETATM   29  O   UNL     1     -10.100   6.262  73.384  1.00  0.00    -0.177 OA 
BRANCH  27  30
HETATM   30  O   UNL     1      -9.921   8.169  71.617  1.00  0.00    -0.172 OA 
BRANCH  30  31
HETATM   31  C   UNL     1      -9.600   9.549  71.484  1.00  0.00     0.382 C  
BRANCH  31  32
HETATM   32  C   UNL     1     -10.815  10.432  71.219  1.00  0.00     0.848 C  
HETATM   33  O   UNL     1     -10.473  11.563  70.394  1.00  0.00     1.129 OA 
HETATM   34  C   UNL     1     -11.747  12.054  69.934  1.00  0.00    -0.299 C  
HETATM   35  H   UNL     1     -13.509   8.602  70.874  1.00  0.00     0.000 HD 
HETATM   36  C   UNL     1     -12.574  10.797  69.619  1.00  0.00     0.026 C  
HETATM   37  C   UNL     1     -11.916   9.700  70.459  1.00  0.00    -0.172 C  
HETATM   38  H   UNL     1     -14.473  10.149  69.751  1.00  0.00     0.000 HD 
HETATM   39  O   UNL     1     -13.961  10.925  69.946  1.00  0.00     1.612 OA 
HETATM   40  O   UNL     1     -12.824   9.058  71.347  1.00  0.00    -0.320 OA 
BRANCH  34  41
HETATM   41  N   UNL     1     -11.575  12.928  68.792  1.00  0.00    -0.289 NA 
HETATM   42  C   UNL     1     -11.542  12.590  67.469  1.00  0.00    -0.361 A  
HETATM   43  N   UNL     1     -11.415  13.649  66.694  1.00  0.00    -0.329 NA 
HETATM   44  C   UNL     1     -11.335  14.718  67.563  1.00  0.00    -0.344 A  
HETATM   45  C   UNL     1     -11.206  16.102  67.363  1.00  0.00    -0.048 A  
HETATM   46  N   UNL     1     -11.178  16.690  66.107  1.00  0.00     0.307 NA 
HETATM   47  N   UNL     1     -11.102  16.904  68.449  1.00  0.00    -0.297 NA 
HETATM   48  H1  UNL     1     -11.085  17.695  65.962  1.00  0.00     0.000 HD 
HETATM   49  C   UNL     1     -11.173  16.340  69.675  1.00  0.00    -0.311 A  
HETATM   50  H2  UNL     1     -12.018  16.389  65.612  1.00  0.00     0.000 HD 
HETATM   51  N   UNL     1     -11.348  15.036  69.993  1.00  0.00    -0.259 NA 
HETATM   52  C   UNL     1     -11.405  14.285  68.877  1.00  0.00    -0.274 A  
ENDBRANCH  34  41
ENDBRANCH  31  32
ENDBRANCH  30  31
ENDBRANCH  27  30
ENDBRANCH  26  27
ENDBRANCH  23  26
ENDBRANCH  22  23
ENDBRANCH  21  22
ENDBRANCH  14  21
ENDBRANCH   8  12
ENDBRANCH   4   6
TORSDOF 11
ENDMDL
MODEL      327
REMARK 921   NORMALIZED FREE ENERGY PREDICTED BY IDOCK:    6.35 KCAL/MOL
REMARK 922        TOTAL FREE ENERGY PREDICTED BY IDOCK:    8.24 KCAL/MOL
REMARK 923 INTER-LIGAND FREE ENERGY PREDICTED BY IDOCK:    8.76 KCAL/MOL
REMARK 924 INTRA-LIGAND FREE ENERGY PREDICTED BY IDOCK:   -0.52 KCAL/MOL
REMARK 927      BINDING AFFINITY PREDICTED BY RF-SCORE:    0.00 PKD
ROOT
HETATM    1  N   UNL     1     -10.695  18.450  72.043  1.00  0.00     1.916 N  
HETATM    2  H1  UNL     1      -9.963  17.900  72.494  1.00  0.00     0.000 HD 
HETATM    3  H2  UNL     1     -11.664  18.340  72.340  1.00  0.00     0.000 HD 
HETATM    4  C   UNL     1     -10.393  19.321  71.055  1.00  0.00     2.364 C  
HETATM    5  O   UNL     1     -11.275  19.984  70.510  1.00  0.00     2.689 OA 
ENDROOT
BRANCH   4   6
HETATM    6  C   UNL     1      -8.968  19.419  70.666  1.00  0.00     2.220 C  
HETATM    7  C   UNL     1      -8.620  18.817  69.513  1.00  0.00     0.516 C  
HETATM    8  N   UNL     1      -7.337  18.867  68.973  1.00  0.00    -0.310 NA 
HETATM    9  C   UNL     1      -7.964  20.208  71.460  1.00  0.00     1.964 C  
HETATM   10  C   UNL     1      -6.333  19.449  69.754  1.00  0.00    -0.281 C  
HETATM   11  C   UNL     1      -6.563  20.082  70.914  1.00  0.00     0.041 C  
BRANCH   8  12
HETATM   12  C   UNL     1      -7.007  18.493  67.580  1.00  0.00    -0.209 C  
HETATM   13  O   UNL     1      -8.202  17.996  66.937  1.00  0.00    -0.227 OA 
HETATM   14  C   UNL     1      -8.257  16.569  67.159  1.00  0.00    -0.179 C  
HETATM   15  H   UNL     1      -4.785  16.759  65.859  1.00  0.00     0.000 HD 
HETATM   16  C   UNL     1      -6.830  16.096  67.424  1.00  0.00    -0.182 C  
HETATM   17  H   UNL     1      -5.540  14.839  66.607  1.00  0.00     0.000 HD 
HETATM   18  C   UNL     1      -5.989  17.367  67.337  1.00  0.00    -0.137 C  
HETATM   19  O   UNL     1      -6.429  15.133  66.442  1.00  0.00     1.240 OA 
HETATM   20  O   UNL     1      -5.414  17.455  66.010  1.00  0.00    -0.248 OA 
BRANCH  14  21
HETATM   21  C   UNL     1      -9.201  16.246  68.328  1.00  0.00    -0.197 C  
BRANCH  21  22
HETATM   22  O   UNL     1     -10.458  15.773  67.857  1.00  0.00    -0.257 OA 
BRANCH  22  23
HETATM   23  P   UNL     1     -10.682  14.196  67.751  1.00  0.00    -0.253 P  
HETATM   24  O   UNL     1     -11.329  13.520  68.913  1.00  0.00    -0.255 OA 
HETATM   25  O   UNL     1     -11.665  14.094  66.482  1.00  0.00    -0.361 OA 
BRANCH  23  26
HETATM   26  O   UNL     1      -9.346  13.561  67.195  1.00  0.00    -0.222 OA 
BRANCH  26  27
HETATM   27  P   UNL     1      -9.240  12.159  66.472  1.00  0.00    -0.165 P  
HETATM   28  O   UNL     1      -8.723  12.556  65.003  1.00  0.00     1.058 OA 
HETATM   29  O   UNL     1     -10.476  11.333  66.359  1.00  0.00    -0.241 OA 
BRANCH  27  30
HETATM   30  O   UNL     1      -7.978  11.393  67.099  1.00  0.00    -0.140 OA 
BRANCH  30  31
HETATM   31  C   UNL     1      -7.354  11.866  68.288  1.00  0.00    -0.093 C  
BRANCH  31  32
HETATM   32  C   UNL     1      -6.854  10.748  69.198  1.00  0.00    -0.084 C  
HETATM   33  O   UNL     1      -7.729  10.557  70.326  1.00  0.00    -0.082 OA 
HETATM   34  C   UNL     1      -7.348   9.269  70.846  1.00  0.00    -0.103 C  
HETATM   35  H   UNL     1      -5.522   8.337  67.426  1.00  0.00     0.000 HD 
HETATM   36  C   UNL     1      -7.103   8.391  69.608  1.00  0.00    -0.052 C  
HETATM   37  C   UNL     1      -6.808   9.397  68.493  1.00  0.00    -0.062 C  
HETATM   38  H   UNL     1      -5.866   6.927  68.998  1.00  0.00     0.000 HD 
HETATM   39  O   UNL     1      -6.018   7.470  69.763  1.00  0.00    -0.023 OA 
HETATM   40  O   UNL     1      -5.550   9.179  67.865  1.00  0.00    -0.035 OA 
BRANCH  34  41
HETATM   41  N   UNL     1      -8.376   8.748  71.724  1.00  0.00    -0.319 NA 
HETATM   42  C   UNL     1      -8.373   8.699  73.089  1.00  0.00     0.136 A  
HETATM   43  N   UNL     1      -9.496   8.199  73.565  1.00  0.00    -0.187 NA 
HETATM   44  C   UNL     1     -10.246   7.885  72.450  1.00  0.00    -0.264 A  
HETATM   45  C   UNL     1     -11.529   7.337  72.287  1.00  0.00    -0.278 A  
HETATM   46  N   UNL     1     -12.365   7.027  73.350  1.00  0.00     0.929 NA 
HETATM   47  N   UNL     1     -11.974   7.098  71.030  1.00  0.00    -0.335 NA 
HETATM   48  H1  UNL     1     -13.297   6.630  73.231  1.00  0.00     0.000 HD 
HETATM   49  C   UNL     1     -11.181   7.440  69.992  1.00  0.00    -0.180 A  
HETATM   50  H2  UNL     1     -12.465   7.872  73.914  1.00  0.00     0.000 HD 
HETATM   51  N   UNL     1      -9.958   8.018  70.020  1.00  0.00    -0.189 NA 
HETATM   52  C   UNL     1      -9.553   8.194  71.291  1.00  0.00    -0.162 A  
ENDBRANCH  34  41
ENDBRANCH  31  32
ENDBRANCH  30  31
ENDBRANCH  27  30
ENDBRANCH  26  27
ENDBRANCH  23  26
ENDBRANCH  22  23
ENDBRANCH  21  22
ENDBRANCH  14  21
ENDBRANCH   8  12
ENDBRANCH   4   6
TORSDOF 11
ENDMDL
MODEL      328
REMARK 921   NORMALIZED FREE ENERGY PREDICTED BY IDOCK:    7.27 KCAL/MOL
REMARK 922        TOTAL FREE ENERGY PREDICTED BY IDOCK:    9.74 KCAL/MOL
REMARK 923 INTER-LIGAND FREE ENERGY PREDICTED BY IDOCK:    9.87 KCAL/MOL
REMARK 924 INTRA-LIGAND FREE ENERGY PREDICTED BY IDOCK:   -0.13 KCAL/MOL
REMARK 927      BINDING AFFINITY PREDICTED BY RF-SCORE:    0.00 PKD
ROOT
HETATM    1  N   UNL     1      -7.369  18.330  69.695  1.00  0.00     0.218 N  
HETATM    2  H1  UNL     1      -7.769  17.801  68.920  1.00  0.00     0.000 HD 
HETATM    3  H2  UNL     1      -6.520  17.994  70.150  1.00  0.00     0.000 HD 
HETATM    4  C   UNL     1      -7.950  19.471  70.127  1.00  0.00     0.988 C  
HETATM    5  O   UNL     1      -7.468  20.109  71.063  1.00  0.00     0.472 OA 
ENDROOT
BRANCH   4   6
HETATM    6  C   UNL     1      -9.187  19.892  69.430  1.00  0.00     0.209 C  
HETATM    7  C   UNL     1      -9.479  19.245  68.286  1.00  0.00    -0.359 C  
HETATM    8  N   UNL     1     -10.634  19.475  67.543  1.00  0.00    -0.470 NA 
HETATM    9  C   UNL     1     -10.120  20.930  69.992  1.00  0.00     1.193 C  
HETATM   10  C   UNL     1     -11.451  20.542  67.936  1.00  0.00     2.159 C  
HETATM   11  C   UNL     1     -11.260  21.251  69.058  1.00  0.00     2.078 C  
BRANCH   8  12
HETATM   12  C   UNL     1     -11.129  18.577  66.477  1.00  0.00     0.400 C  
HETATM   13  O   UNL     1     -11.827  17.469  67.090  1.00  0.00     1.353 OA 
HETATM   14  C   UNL     1     -10.860  16.422  67.331  1.00  0.00    -0.219 C  
HETATM   15  H   UNL     1     -10.088  17.030  63.751  1.00  0.00     0.000 HD 
HETATM   16  C   UNL     1      -9.708  16.636  66.353  1.00  0.00    -0.286 C  
HETATM   17  H   UNL     1      -8.838  15.630  64.889  1.00  0.00     0.000 HD 
HETATM   18  C   UNL     1     -10.109  17.879  65.563  1.00  0.00     0.312 C  
HETATM   19  O   UNL     1      -9.555  15.497  65.498  1.00  0.00    -0.312 OA 
HETATM   20  O   UNL     1     -10.719  17.462  64.316  1.00  0.00     0.218 OA 
BRANCH  14  21
HETATM   21  C   UNL     1     -10.393  16.453  68.794  1.00  0.00    -0.275 C  
BRANCH  21  22
HETATM   22  O   UNL     1      -9.166  15.752  68.956  1.00  0.00    -0.209 OA 
BRANCH  22  23
HETATM   23  P   UNL     1      -9.009  14.779  70.213  1.00  0.00     1.867 P  
HETATM   24  O   UNL     1      -9.799  15.112  71.434  1.00  0.00     1.195 OA 
HETATM   25  O   UNL     1      -9.547  13.387  69.613  1.00  0.00     0.973 OA 
BRANCH  23  26
HETATM   26  O   UNL     1      -7.467  14.491  70.403  1.00  0.00     0.340 OA 
BRANCH  26  27
HETATM   27  P   UNL     1      -6.441  14.226  69.230  1.00  0.00    -0.128 P  
HETATM   28  O   UNL     1      -5.439  15.477  69.344  1.00  0.00    -0.104 OA 
HETATM   29  O   UNL     1      -6.973  14.140  67.840  1.00  0.00    -0.128 OA 
BRANCH  27  30
HETATM   30  O   UNL     1      -5.520  12.989  69.671  1.00  0.00    -0.079 OA 
BRANCH  30  31
HETATM   31  C   UNL     1      -6.060  11.676  69.771  1.00  0.00    -0.131 C  
BRANCH  31  32
HETATM   32  C   UNL     1      -5.591  10.740  68.662  1.00  0.00    -0.040 C  
HETATM   33  O   UNL     1      -6.109   9.407  68.846  1.00  0.00    -0.043 OA 
HETATM   34  C   UNL     1      -5.907   8.779  67.566  1.00  0.00    -0.043 C  
HETATM   35  H   UNL     1      -5.462  12.327  65.800  1.00  0.00     0.000 HD 
HETATM   36  C   UNL     1      -6.258   9.856  66.527  1.00  0.00    -0.069 C  
HETATM   37  C   UNL     1      -6.081  11.174  67.285  1.00  0.00    -0.068 C  
HETATM   38  H   UNL     1      -5.645  10.489  64.720  1.00  0.00     0.000 HD 
HETATM   39  O   UNL     1      -5.428   9.823  65.362  1.00  0.00    -0.047 OA 
HETATM   40  O   UNL     1      -5.157  12.056  66.658  1.00  0.00    -0.307 OA 
BRANCH  34  41
HETATM   41  N   UNL     1      -6.718   7.584  67.450  1.00  0.00    -0.065 NA 
HETATM   42  C   UNL     1      -7.511   7.008  68.402  1.00  0.00    -0.102 A  
HETATM   43  N   UNL     1      -8.146   5.950  67.938  1.00  0.00    -0.105 NA 
HETATM   44  C   UNL     1      -7.719   5.823  66.632  1.00  0.00    -0.100 A  
HETATM   45  C   UNL     1      -8.032   4.912  65.610  1.00  0.00    -0.103 A  
HETATM   46  N   UNL     1      -8.966   3.897  65.756  1.00  0.00    -0.125 NA 
HETATM   47  N   UNL     1      -7.390   5.028  64.423  1.00  0.00    -0.058 NA 
HETATM   48  H1  UNL     1      -9.194   3.236  65.013  1.00  0.00     0.000 HD 
HETATM   49  C   UNL     1      -6.512   6.042  64.263  1.00  0.00    -0.033 A  
HETATM   50  H2  UNL     1      -9.841   4.330  66.055  1.00  0.00     0.000 HD 
HETATM   51  N   UNL     1      -6.169   7.007  65.147  1.00  0.00    -0.036 NA 
HETATM   52  C   UNL     1      -6.806   6.817  66.318  1.00  0.00    -0.060 A  
ENDBRANCH  34  41
ENDBRANCH  31  32
ENDBRANCH  30  31
ENDBRANCH  27  30
ENDBRANCH  26  27
ENDBRANCH  23  26
ENDBRANCH  22  23
ENDBRANCH  21  22
ENDBRANCH  14  21
ENDBRANCH   8  12
ENDBRANCH   4   6
TORSDOF 11
ENDMDL
MODEL      329
REMARK 921   NORMALIZED FREE ENERGY PREDICTED BY IDOCK:    9.18 KCAL/MOL
REMARK 922        TOTAL FREE ENERGY PREDICTED BY IDOCK:   12.87 KCAL/MOL
REMARK 923 INTER-LIGAND FREE ENERGY PREDICTED BY IDOCK:   -0.72 KCAL/MOL
REMARK 924 INTRA-LIGAND FREE ENERGY PREDICTED BY IDOCK:   13.60 KCAL/MOL
REMARK 927      BINDING AFFINITY PREDICTED BY RF-SCORE:    0.00 PKD
ROOT
HETATM    1  N   UNL     1      -8.248   8.965  64.756  1.00  0.00    -0.154 N  
HETATM    2  H1  UNL     1      -7.910   9.424  65.602  1.00  0.00     0.000 HD 
HETATM    3  H2  UNL     1      -7.869   8.056  64.490  1.00  0.00     0.000 HD 
HETATM    4  C   UNL     1      -9.191   9.548  63.983  1.00  0.00    -0.060 C  
HETATM    5  O   UNL     1      -9.598   8.995  62.961  1.00  0.00     0.855 OA 
ENDROOT
BRANCH   4   6
HETATM    6  C   UNL     1      -9.685  10.873  64.422  1.00  0.00    -0.342 C  
HETATM    7  C   UNL     1      -8.975  11.486  65.387  1.00  0.00     0.018 C  
HETATM    8  N   UNL     1      -9.267  12.760  65.868  1.00  0.00     0.019 NA 
HETATM    9  C   UNL     1     -10.867  11.548  63.783  1.00  0.00    -0.486 C  
HETATM   10  C   UNL     1     -10.450  13.361  65.422  1.00  0.00    -0.302 C  
HETATM   11  C   UNL     1     -11.231  12.845  64.462  1.00  0.00    -0.372 C  
BRANCH   8  12
HETATM   12  C   UNL     1      -8.339  13.573  66.684  1.00  0.00     0.270 C  
HETATM   13  O   UNL     1      -8.231  12.978  67.997  1.00  0.00    -0.140 OA 
HETATM   14  C   UNL     1      -9.257  13.566  68.829  1.00  0.00     0.082 C  
HETATM   15  H   UNL     1      -7.768  16.712  67.539  1.00  0.00     0.000 HD 
HETATM   16  C   UNL     1      -9.610  14.921  68.223  1.00  0.00    -0.214 C  
HETATM   17  H   UNL     1      -9.573  16.818  68.783  1.00  0.00     0.000 HD 
HETATM   18  C   UNL     1      -8.710  15.032  66.996  1.00  0.00    -0.237 C  
HETATM   19  O   UNL     1      -9.353  15.974  69.160  1.00  0.00    -0.228 OA 
HETATM   20  O   UNL     1      -7.538  15.810  67.346  1.00  0.00    -0.154 OA 
BRANCH  14  21
HETATM   21  C   UNL     1     -10.475  12.633  68.915  1.00  0.00    -0.080 C  
BRANCH  21  22
HETATM   22  O   UNL     1     -10.128  11.300  68.560  1.00  0.00    -0.190 OA 
BRANCH  22  23
HETATM   23  P   UNL     1      -8.803  10.669  69.190  1.00  0.00    -0.007 P  
HETATM   24  O   UNL     1      -7.773  10.159  68.239  1.00  0.00    -0.086 OA 
HETATM   25  O   UNL     1      -8.194  11.925  69.987  1.00  0.00     1.607 OA 
BRANCH  23  26
HETATM   26  O   UNL     1      -9.246   9.707  70.364  1.00  0.00    -0.250 OA 
BRANCH  26  27
HETATM   27  P   UNL     1      -8.302   9.202  71.528  1.00  0.00     0.482 P  
HETATM   28  O   UNL     1      -7.567   7.936  70.865  1.00  0.00    -0.074 OA 
HETATM   29  O   UNL     1      -8.935   8.794  72.815  1.00  0.00    -0.361 OA 
BRANCH  27  30
HETATM   30  O   UNL     1      -7.113  10.269  71.675  1.00  0.00     0.699 OA 
BRANCH  30  31
HETATM   31  C   UNL     1      -5.752   9.853  71.650  1.00  0.00     0.045 C  
BRANCH  31  32
HETATM   32  C   UNL     1      -5.391   9.029  70.418  1.00  0.00    -0.026 C  
HETATM   33  O   UNL     1      -5.866   7.674  70.534  1.00  0.00    -0.030 OA 
HETATM   34  C   UNL     1      -5.793   7.165  69.189  1.00  0.00    -0.019 C  
HETATM   35  H   UNL     1      -5.591  10.865  67.713  1.00  0.00     0.000 HD 
HETATM   36  C   UNL     1      -6.269   8.321  68.294  1.00  0.00    -0.050 C  
HETATM   37  C   UNL     1      -6.031   9.571  69.145  1.00  0.00    -0.038 C  
HETATM   38  H   UNL     1      -5.862   9.125  66.496  1.00  0.00     0.000 HD 
HETATM   39  O   UNL     1      -5.568   8.411  67.050  1.00  0.00    -0.036 OA 
HETATM   40  O   UNL     1      -5.193  10.527  68.506  1.00  0.00    -0.038 OA 
BRANCH  34  41
HETATM   41  N   UNL     1      -6.595   5.966  69.052  1.00  0.00    -0.049 NA 
HETATM   42  C   UNL     1      -6.373   4.737  69.605  1.00  0.00    -0.027 A  
HETATM   43  N   UNL     1      -7.333   3.884  69.306  1.00  0.00    -0.053 NA 
HETATM   44  C   UNL     1      -8.199   4.592  68.498  1.00  0.00    -0.082 A  
HETATM   45  C   UNL     1      -9.408   4.254  67.868  1.00  0.00    -0.156 A  
HETATM   46  N   UNL     1     -10.021   3.017  68.012  1.00  0.00     0.077 NA 
HETATM   47  N   UNL     1     -10.007   5.179  67.081  1.00  0.00    -0.173 NA 
HETATM   48  H1  UNL     1     -10.899   2.772  67.555  1.00  0.00     0.000 HD 
HETATM   49  C   UNL     1      -9.437   6.399  66.975  1.00  0.00    -0.139 A  
HETATM   50  H2  UNL     1     -10.142   2.853  69.012  1.00  0.00     0.000 HD 
HETATM   51  N   UNL     1      -8.311   6.857  67.570  1.00  0.00    -0.122 NA 
HETATM   52  C   UNL     1      -7.740   5.885  68.305  1.00  0.00    -0.101 A  
ENDBRANCH  34  41
ENDBRANCH  31  32
ENDBRANCH  30  31
ENDBRANCH  27  30
ENDBRANCH  26  27
ENDBRANCH  23  26
ENDBRANCH  22  23
ENDBRANCH  21  22
ENDBRANCH  14  21
ENDBRANCH   8  12
ENDBRANCH   4   6
TORSDOF 11
ENDMDL
MODEL      330
REMARK 921   NORMALIZED FREE ENERGY PREDICTED BY IDOCK:   10.43 KCAL/MOL
REMARK 922        TOTAL FREE ENERGY PREDICTED BY IDOCK:   14.94 KCAL/MOL
REMARK 923 INTER-LIGAND FREE ENERGY PREDICTED BY IDOCK:   13.02 KCAL/MOL
REMARK 924 INTRA-LIGAND FREE ENERGY PREDICTED BY IDOCK:    1.91 KCAL/MOL
REMARK 927      BINDING AFFINITY PREDICTED BY RF-SCORE:    0.00 PKD
ROOT
HETATM    1  N   UNL     1      -5.591  10.612  67.245  1.00  0.00    -0.041 N  
HETATM    2  H1  UNL     1      -6.065  10.251  66.417  1.00  0.00     0.000 HD 
HETATM    3  H2  UNL     1      -4.836  10.073  67.670  1.00  0.00     0.000 HD 
HETATM    4  C   UNL     1      -5.952  11.797  67.786  1.00  0.00    -0.057 C  
HETATM    5  O   UNL     1      -5.380  12.232  68.786  1.00  0.00    -0.050 OA 
ENDROOT
BRANCH   4   6
HETATM    6  C   UNL     1      -7.064  12.519  67.127  1.00  0.00    -0.058 C  
HETATM    7  C   UNL     1      -7.694  11.867  66.132  1.00  0.00     0.461 C  
HETATM    8  N   UNL     1      -8.797  12.377  65.452  1.00  0.00     0.591 NA 
HETATM    9  C   UNL     1      -7.530  13.875  67.580  1.00  0.00    -0.184 C  
HETATM   10  C   UNL     1      -9.166  13.699  65.726  1.00  0.00     0.317 C  
HETATM   11  C   UNL     1      -8.614  14.441  66.696  1.00  0.00    -0.053 C  
BRANCH   8  12
HETATM   12  C   UNL     1      -9.689  11.569  64.591  1.00  0.00    -0.212 C  
HETATM   13  O   UNL     1      -9.882  12.267  63.340  1.00  0.00    -0.374 OA 
HETATM   14  C   UNL     1     -11.035  13.125  63.492  1.00  0.00     0.081 C  
HETATM   15  H   UNL     1     -12.575   9.968  64.691  1.00  0.00     0.000 HD 
HETATM   16  C   UNL     1     -11.894  12.536  64.608  1.00  0.00    -0.378 C  
HETATM   17  H   UNL     1     -13.730  11.830  64.810  1.00  0.00     0.000 HD 
HETATM   18  C   UNL     1     -11.126  11.298  65.061  1.00  0.00    -0.089 C  
HETATM   19  O   UNL     1     -13.196  12.197  64.115  1.00  0.00    -0.740 OA 
HETATM   20  O   UNL     1     -11.686  10.135  64.401  1.00  0.00     3.248 OA 
BRANCH  14  21
HETATM   21  C   UNL     1     -10.594  14.565  63.797  1.00  0.00     2.097 C  
BRANCH  21  22
HETATM   22  O   UNL     1     -11.356  15.121  64.862  1.00  0.00    -0.385 OA 
BRANCH  22  23
HETATM   23  P   UNL     1     -12.092  16.517  64.618  1.00  0.00     2.226 P  
HETATM   24  O   UNL     1     -12.134  17.030  63.218  1.00  0.00     2.786 OA 
HETATM   25  O   UNL     1     -13.592  16.178  65.090  1.00  0.00     2.938 OA 
BRANCH  23  26
HETATM   26  O   UNL     1     -11.603  17.516  65.741  1.00  0.00     1.135 OA 
BRANCH  26  27
HETATM   27  P   UNL     1     -10.454  17.216  66.785  1.00  0.00    -0.150 P  
HETATM   28  O   UNL     1     -10.574  18.449  67.809  1.00  0.00    -0.409 OA 
HETATM   29  O   UNL     1      -9.055  17.124  66.279  1.00  0.00    -0.317 OA 
BRANCH  27  30
HETATM   30  O   UNL     1     -10.929  15.968  67.673  1.00  0.00    -0.325 OA 
BRANCH  30  31
HETATM   31  C   UNL     1     -12.304  15.609  67.751  1.00  0.00     0.970 C  
BRANCH  31  32
HETATM   32  C   UNL     1     -12.549  14.297  68.490  1.00  0.00     0.499 C  
HETATM   33  O   UNL     1     -11.589  13.292  68.108  1.00  0.00    -0.295 OA 
HETATM   34  C   UNL     1     -11.710  12.291  69.136  1.00  0.00    -0.323 C  
HETATM   35  H   UNL     1     -13.545  14.876  71.555  1.00  0.00     0.000 HD 
HETATM   36  C   UNL     1     -11.872  13.075  70.448  1.00  0.00    -0.165 C  
HETATM   37  C   UNL     1     -12.401  14.440  70.000  1.00  0.00    -0.336 C  
HETATM   38  H   UNL     1     -12.870  12.946  72.189  1.00  0.00     0.000 HD 
HETATM   39  O   UNL     1     -12.769  12.462  71.378  1.00  0.00    -0.348 OA 
HETATM   40  O   UNL     1     -13.637  14.787  70.615  1.00  0.00    -0.222 OA 
BRANCH  34  41
HETATM   41  N   UNL     1     -10.558  11.413  69.132  1.00  0.00    -0.194 NA 
HETATM   42  C   UNL     1      -9.284  11.692  69.541  1.00  0.00     1.012 A  
HETATM   43  N   UNL     1      -8.494  10.641  69.439  1.00  0.00    -0.099 NA 
HETATM   44  C   UNL     1      -9.293   9.646  68.912  1.00  0.00    -0.151 A  
HETATM   45  C   UNL     1      -9.050   8.302  68.583  1.00  0.00    -0.140 A  
HETATM   46  N   UNL     1      -7.833   7.674  68.801  1.00  0.00    -0.118 NA 
HETATM   47  N   UNL     1     -10.052   7.584  68.023  1.00  0.00    -0.175 NA 
HETATM   48  H1  UNL     1      -7.656   6.698  68.562  1.00  0.00     0.000 HD 
HETATM   49  C   UNL     1     -11.252   8.179  67.850  1.00  0.00     0.635 A  
HETATM   50  H2  UNL     1      -7.603   7.790  69.789  1.00  0.00     0.000 HD 
HETATM   51  N   UNL     1     -11.621   9.440  68.174  1.00  0.00     0.628 NA 
HETATM   52  C   UNL     1     -10.576  10.116  68.688  1.00  0.00    -0.210 A  
ENDBRANCH  34  41
ENDBRANCH  31  32
ENDBRANCH  30  31
ENDBRANCH  27  30
ENDBRANCH  26  27
ENDBRANCH  23  26
ENDBRANCH  22  23
ENDBRANCH  21  22
ENDBRANCH  14  21
ENDBRANCH   8  12
ENDBRANCH   4   6
TORSDOF 11
ENDMDL
MODEL      331
REMARK 921   NORMALIZED FREE ENERGY PREDICTED BY IDOCK:   10.92 KCAL/MOL
REMARK 922        TOTAL FREE ENERGY PREDICTED BY IDOCK:   15.74 KCAL/MOL
REMARK 923 INTER-LIGAND FREE ENERGY PREDICTED BY IDOCK:   12.71 KCAL/MOL
REMARK 924 INTRA-LIGAND FREE ENERGY PREDICTED BY IDOCK:    3.03 KCAL/MOL
REMARK 927      BINDING AFFINITY PREDICTED BY RF-SCORE:    0.00 PKD
ROOT
HETATM    1  N   UNL     1     -10.339  15.224  63.344  1.00  0.00     4.535 N  
HETATM    2  H1  UNL     1      -9.455  15.480  63.784  1.00  0.00     0.000 HD 
HETATM    3  H2  UNL     1     -10.777  15.865  62.683  1.00  0.00     0.000 HD 
HETATM    4  C   UNL     1     -10.936  14.045  63.628  1.00  0.00     1.066 C  
HETATM    5  O   UNL     1     -12.002  13.736  63.097  1.00  0.00    -0.255 OA 
ENDROOT
BRANCH   4   6
HETATM    6  C   UNL     1     -10.250  13.171  64.607  1.00  0.00    -0.327 C  
HETATM    7  C   UNL     1      -9.012  13.544  64.979  1.00  0.00     1.949 C  
HETATM    8  N   UNL     1      -8.257  12.870  65.935  1.00  0.00     1.297 NA 
HETATM    9  C   UNL     1     -10.913  11.969  65.222  1.00  0.00    -0.356 C  
HETATM   10  C   UNL     1      -8.763  11.657  66.416  1.00  0.00    -0.170 C  
HETATM   11  C   UNL     1      -9.984  11.189  66.119  1.00  0.00    -0.273 C  
BRANCH   8  12
HETATM   12  C   UNL     1      -7.049  13.426  66.583  1.00  0.00     1.519 C  
HETATM   13  O   UNL     1      -6.458  12.403  67.417  1.00  0.00    -0.132 OA 
HETATM   14  C   UNL     1      -7.046  12.517  68.732  1.00  0.00    -0.092 C  
HETATM   15  H   UNL     1      -6.055  16.068  68.297  1.00  0.00     0.000 HD 
HETATM   16  C   UNL     1      -7.552  13.949  68.879  1.00  0.00    -0.060 C  
HETATM   17  H   UNL     1      -7.218  15.494  70.068  1.00  0.00     0.000 HD 
HETATM   18  C   UNL     1      -7.205  14.611  67.549  1.00  0.00    -0.192 C  
HETATM   19  O   UNL     1      -6.902  14.602  69.977  1.00  0.00    -0.162 OA 
HETATM   20  O   UNL     1      -5.958  15.335  67.700  1.00  0.00    -0.206 OA 
BRANCH  14  21
HETATM   21  C   UNL     1      -8.170  11.483  68.906  1.00  0.00    -0.017 C  
BRANCH  21  22
HETATM   22  O   UNL     1      -8.995  11.804  70.019  1.00  0.00     1.983 OA 
BRANCH  22  23
HETATM   23  P   UNL     1     -10.386  12.539  69.745  1.00  0.00     1.831 P  
HETATM   24  O   UNL     1     -10.863  13.503  70.780  1.00  0.00     1.369 OA 
HETATM   25  O   UNL     1     -10.061  13.351  68.395  1.00  0.00    -0.241 OA 
BRANCH  23  26
HETATM   26  O   UNL     1     -11.412  11.447  69.244  1.00  0.00    -0.247 OA 
BRANCH  26  27
HETATM   27  P   UNL     1     -11.504   9.967  69.795  1.00  0.00    -0.085 P  
HETATM   28  O   UNL     1     -12.391   9.227  68.678  1.00  0.00     2.066 OA 
HETATM   29  O   UNL     1     -12.116   9.757  71.138  1.00  0.00    -0.319 OA 
BRANCH  27  30
HETATM   30  O   UNL     1     -10.059   9.297  69.605  1.00  0.00    -0.181 OA 
BRANCH  30  31
HETATM   31  C   UNL     1      -9.632   8.232  70.448  1.00  0.00    -0.168 C  
BRANCH  31  32
HETATM   32  C   UNL     1      -8.469   7.430  69.872  1.00  0.00    -0.139 C  
HETATM   33  O   UNL     1      -8.917   6.176  69.323  1.00  0.00    -0.123 OA 
HETATM   34  C   UNL     1      -7.812   5.741  68.508  1.00  0.00    -0.097 C  
HETATM   35  H   UNL     1      -6.288   9.426  68.463  1.00  0.00     0.000 HD 
HETATM   36  C   UNL     1      -7.297   7.013  67.813  1.00  0.00    -0.097 C  
HETATM   37  C   UNL     1      -7.778   8.149  68.718  1.00  0.00    -0.107 C  
HETATM   38  H   UNL     1      -5.557   7.835  67.233  1.00  0.00     0.000 HD 
HETATM   39  O   UNL     1      -5.875   7.049  67.661  1.00  0.00    -0.019 OA 
HETATM   40  O   UNL     1      -6.718   8.978  69.181  1.00  0.00    -0.049 OA 
BRANCH  34  41
HETATM   41  N   UNL     1      -8.235   4.713  67.579  1.00  0.00    -0.101 NA 
HETATM   42  C   UNL     1      -9.495   4.220  67.385  1.00  0.00    -0.180 A  
HETATM   43  N   UNL     1      -9.526   3.317  66.424  1.00  0.00    -0.132 NA 
HETATM   44  C   UNL     1      -8.218   3.205  65.999  1.00  0.00    -0.094 A  
HETATM   45  C   UNL     1      -7.602   2.429  65.004  1.00  0.00    -0.072 A  
HETATM   46  N   UNL     1      -8.302   1.581  64.158  1.00  0.00    -0.069 NA 
HETATM   47  N   UNL     1      -6.257   2.510  64.863  1.00  0.00    -0.019 NA 
HETATM   48  H1  UNL     1      -7.854   1.017  63.435  1.00  0.00     0.000 HD 
HETATM   49  C   UNL     1      -5.578   3.368  65.654  1.00  0.00    -0.018 A  
HETATM   50  H2  UNL     1      -9.028   2.136  63.704  1.00  0.00     0.000 HD 
HETATM   51  N   UNL     1      -6.062   4.200  66.605  1.00  0.00    -0.030 NA 
HETATM   52  C   UNL     1      -7.393   4.047  66.727  1.00  0.00    -0.072 A  
ENDBRANCH  34  41
ENDBRANCH  31  32
ENDBRANCH  30  31
ENDBRANCH  27  30
ENDBRANCH  26  27
ENDBRANCH  23  26
ENDBRANCH  22  23
ENDBRANCH  21  22
ENDBRANCH  14  21
ENDBRANCH   8  12
ENDBRANCH   4   6
TORSDOF 11
ENDMDL
MODEL      332
REMARK 921   NORMALIZED FREE ENERGY PREDICTED BY IDOCK:   10.94 KCAL/MOL
REMARK 922        TOTAL FREE ENERGY PREDICTED BY IDOCK:   15.78 KCAL/MOL
REMARK 923 INTER-LIGAND FREE ENERGY PREDICTED BY IDOCK:    8.64 KCAL/MOL
REMARK 924 INTRA-LIGAND FREE ENERGY PREDICTED BY IDOCK:    7.15 KCAL/MOL
REMARK 927      BINDING AFFINITY PREDICTED BY RF-SCORE:    0.00 PKD
ROOT
HETATM    1  N   UNL     1      -9.472   5.859  68.379  1.00  0.00    -0.119 N  
HETATM    2  H1  UNL     1      -8.561   6.235  68.113  1.00  0.00     0.000 HD 
HETATM    3  H2  UNL     1      -9.525   5.110  69.070  1.00  0.00     0.000 HD 
HETATM    4  C   UNL     1     -10.607   6.343  67.829  1.00  0.00    -0.266 C  
HETATM    5  O   UNL     1     -11.705   5.889  68.150  1.00  0.00     0.784 OA 
ENDROOT
BRANCH   4   6
HETATM    6  C   UNL     1     -10.453   7.420  66.825  1.00  0.00    -0.316 C  
HETATM    7  C   UNL     1      -9.239   7.995  66.745  1.00  0.00    -0.165 C  
HETATM    8  N   UNL     1      -8.909   8.977  65.814  1.00  0.00    -0.167 NA 
HETATM    9  C   UNL     1     -11.558   7.812  65.883  1.00  0.00     6.040 C  
HETATM   10  C   UNL     1      -9.946   9.489  65.026  1.00  0.00     0.217 C  
HETATM   11  C   UNL     1     -11.191   8.992  65.017  1.00  0.00     6.700 C  
BRANCH   8  12
HETATM   12  C   UNL     1      -7.525   9.392  65.499  1.00  0.00    -0.095 C  
HETATM   13  O   UNL     1      -6.619   8.348  65.922  1.00  0.00    -0.052 OA 
HETATM   14  C   UNL     1      -6.242   8.624  67.290  1.00  0.00    -0.056 C  
HETATM   15  H   UNL     1      -5.484  11.964  65.856  1.00  0.00     0.000 HD 
HETATM   16  C   UNL     1      -6.436  10.121  67.519  1.00  0.00    -0.066 C  
HETATM   17  H   UNL     1      -5.317  11.671  68.025  1.00  0.00     0.000 HD 
HETATM   18  C   UNL     1      -6.953  10.644  66.182  1.00  0.00    -0.135 C  
HETATM   19  O   UNL     1      -5.196  10.739  67.882  1.00  0.00    -0.037 OA 
HETATM   20  O   UNL     1      -5.838  11.189  65.434  1.00  0.00    -0.053 OA 
BRANCH  14  21
HETATM   21  C   UNL     1      -7.081   7.775  68.258  1.00  0.00    -0.084 C  
BRANCH  21  22
HETATM   22  O   UNL     1      -7.202   6.436  67.794  1.00  0.00    -0.082 OA 
BRANCH  22  23
HETATM   23  P   UNL     1      -6.771   5.252  68.775  1.00  0.00    -0.052 P  
HETATM   24  O   UNL     1      -7.556   3.986  68.701  1.00  0.00    -0.058 OA 
HETATM   25  O   UNL     1      -5.268   4.958  68.286  1.00  0.00    -0.009 OA 
BRANCH  23  26
HETATM   26  O   UNL     1      -6.544   5.880  70.208  1.00  0.00    -0.041 OA 
BRANCH  26  27
HETATM   27  P   UNL     1      -7.673   6.531  71.104  1.00  0.00    -0.099 P  
HETATM   28  O   UNL     1      -6.839   7.506  72.071  1.00  0.00    -0.059 OA 
HETATM   29  O   UNL     1      -8.526   5.624  71.924  1.00  0.00    -0.125 OA 
BRANCH  27  30
HETATM   30  O   UNL     1      -8.486   7.557  70.176  1.00  0.00    -0.133 OA 
BRANCH  30  31
HETATM   31  C   UNL     1      -8.012   8.882  69.965  1.00  0.00    -0.109 C  
BRANCH  31  32
HETATM   32  C   UNL     1      -9.127   9.918  69.870  1.00  0.00    -0.210 C  
HETATM   33  O   UNL     1      -8.774  10.991  68.975  1.00  0.00    -0.147 OA 
HETATM   34  C   UNL     1     -10.028  11.645  68.707  1.00  0.00    -0.135 C  
HETATM   35  H   UNL     1     -12.058   8.462  69.991  1.00  0.00     0.000 HD 
HETATM   36  C   UNL     1     -11.052  10.509  68.554  1.00  0.00    -0.275 C  
HETATM   37  C   UNL     1     -10.420   9.336  69.307  1.00  0.00    -0.218 C  
HETATM   38  H   UNL     1     -12.975  10.119  68.994  1.00  0.00     0.000 HD 
HETATM   39  O   UNL     1     -12.342  10.821  69.088  1.00  0.00    -0.400 OA 
HETATM   40  O   UNL     1     -11.253   8.824  70.341  1.00  0.00    -0.253 OA 
BRANCH  34  41
HETATM   41  N   UNL     1      -9.925  12.485  67.531  1.00  0.00    -0.199 NA 
HETATM   42  C   UNL     1     -10.127  12.137  66.226  1.00  0.00    -0.224 A  
HETATM   43  N   UNL     1      -9.991  13.168  65.415  1.00  0.00    -0.234 NA 
HETATM   44  C   UNL     1      -9.659  14.225  66.238  1.00  0.00    -0.288 A  
HETATM   45  C   UNL     1      -9.398  15.582  65.988  1.00  0.00    -0.344 A  
HETATM   46  N   UNL     1      -9.486  16.155  64.727  1.00  0.00     1.006 NA 
HETATM   47  N   UNL     1      -9.041  16.372  67.028  1.00  0.00    -0.208 NA 
HETATM   48  H1  UNL     1      -9.297  17.140  64.546  1.00  0.00     0.000 HD 
HETATM   49  C   UNL     1      -8.997  15.829  68.264  1.00  0.00    -0.182 A  
HETATM   50  H2  UNL     1     -10.420  15.954  64.367  1.00  0.00     0.000 HD 
HETATM   51  N   UNL     1      -9.276  14.558  68.635  1.00  0.00    -0.197 NA 
HETATM   52  C   UNL     1      -9.585  13.813  67.558  1.00  0.00    -0.219 A  
ENDBRANCH  34  41
ENDBRANCH  31  32
ENDBRANCH  30  31
ENDBRANCH  27  30
ENDBRANCH  26  27
ENDBRANCH  23  26
ENDBRANCH  22  23
ENDBRANCH  21  22
ENDBRANCH  14  21
ENDBRANCH   8  12
ENDBRANCH   4   6
TORSDOF 11
ENDMDL
MODEL      333
REMARK 921   NORMALIZED FREE ENERGY PREDICTED BY IDOCK:   10.96 KCAL/MOL
REMARK 922        TOTAL FREE ENERGY PREDICTED BY IDOCK:   15.81 KCAL/MOL
REMARK 923 INTER-LIGAND FREE ENERGY PREDICTED BY IDOCK:    7.95 KCAL/MOL
REMARK 924 INTRA-LIGAND FREE ENERGY PREDICTED BY IDOCK:    7.86 KCAL/MOL
REMARK 927      BINDING AFFINITY PREDICTED BY RF-SCORE:    0.00 PKD
ROOT
HETATM    1  N   UNL     1      -7.122   1.547  69.516  1.00  0.00    -0.036 N  
HETATM    2  H1  UNL     1      -7.986   1.081  69.239  1.00  0.00     0.000 HD 
HETATM    3  H2  UNL     1      -6.527   1.125  70.229  1.00  0.00     0.000 HD 
HETATM    4  C   UNL     1      -6.757   2.719  68.950  1.00  0.00    -0.037 C  
HETATM    5  O   UNL     1      -5.715   3.282  69.285  1.00  0.00    -0.020 OA 
ENDROOT
BRANCH   4   6
HETATM    6  C   UNL     1      -7.675   3.281  67.933  1.00  0.00    -0.064 C  
HETATM    7  C   UNL     1      -8.801   3.855  68.396  1.00  0.00    -0.110 C  
HETATM    8  N   UNL     1      -9.737   4.485  67.580  1.00  0.00    -0.168 NA 
HETATM    9  C   UNL     1      -7.349   3.289  66.465  1.00  0.00    -0.075 C  
HETATM   10  C   UNL     1      -9.561   4.378  66.196  1.00  0.00    -0.190 C  
HETATM   11  C   UNL     1      -8.477   3.832  65.623  1.00  0.00    -0.110 C  
BRANCH   8  12
HETATM   12  C   UNL     1     -10.802   5.384  68.077  1.00  0.00     0.134 C  
HETATM   13  O   UNL     1     -10.260   6.718  68.208  1.00  0.00    -0.157 OA 
HETATM   14  C   UNL     1      -9.723   6.843  69.544  1.00  0.00    -0.158 C  
HETATM   15  H   UNL     1     -13.089   5.567  70.453  1.00  0.00     0.000 HD 
HETATM   16  C   UNL     1     -10.442   5.819  70.418  1.00  0.00    -0.273 C  
HETATM   17  H   UNL     1     -11.587   5.833  72.031  1.00  0.00     0.000 HD 
HETATM   18  C   UNL     1     -11.407   5.119  69.465  1.00  0.00     1.945 C  
HETATM   19  O   UNL     1     -11.140   6.471  71.487  1.00  0.00    -0.245 OA 
HETATM   20  O   UNL     1     -12.715   5.730  69.594  1.00  0.00     3.734 OA 
BRANCH  14  21
HETATM   21  C   UNL     1      -8.201   6.628  69.531  1.00  0.00    -0.130 C  
BRANCH  21  22
HETATM   22  O   UNL     1      -7.511   7.856  69.333  1.00  0.00    -0.086 OA 
BRANCH  22  23
HETATM   23  P   UNL     1      -8.245   9.213  69.746  1.00  0.00    -0.160 P  
HETATM   24  O   UNL     1      -7.487  10.160  70.614  1.00  0.00    -0.277 OA 
HETATM   25  O   UNL     1      -8.480   9.902  68.311  1.00  0.00    -0.109 OA 
BRANCH  23  26
HETATM   26  O   UNL     1      -9.716   8.843  70.188  1.00  0.00    -0.166 OA 
BRANCH  26  27
HETATM   27  P   UNL     1     -10.789   9.874  70.723  1.00  0.00    -0.157 P  
HETATM   28  O   UNL     1     -11.227   9.233  72.130  1.00  0.00    -0.272 OA 
HETATM   29  O   UNL     1     -12.000  10.121  69.890  1.00  0.00    -0.191 OA 
BRANCH  27  30
HETATM   30  O   UNL     1      -9.999  11.199  71.165  1.00  0.00     3.366 OA 
BRANCH  30  31
HETATM   31  C   UNL     1     -10.136  12.410  70.430  1.00  0.00     3.934 C  
BRANCH  31  32
HETATM   32  C   UNL     1      -9.639  12.307  68.991  1.00  0.00     0.329 C  
HETATM   33  O   UNL     1     -10.329  13.232  68.129  1.00  0.00    -0.231 OA 
HETATM   34  C   UNL     1      -9.507  13.283  66.948  1.00  0.00    -0.249 C  
HETATM   35  H   UNL     1      -6.415  11.730  68.931  1.00  0.00     0.000 HD 
HETATM   36  C   UNL     1      -8.058  13.283  67.463  1.00  0.00    -0.186 C  
HETATM   37  C   UNL     1      -8.161  12.659  68.857  1.00  0.00     0.244 C  
HETATM   38  H   UNL     1      -6.260  12.540  66.957  1.00  0.00     0.000 HD 
HETATM   39  O   UNL     1      -7.155  12.541  66.638  1.00  0.00     0.209 OA 
HETATM   40  O   UNL     1      -7.336  11.511  69.015  1.00  0.00    -0.115 OA 
BRANCH  34  41
HETATM   41  N   UNL     1      -9.831  14.448  66.150  1.00  0.00    -0.307 NA 
HETATM   42  C   UNL     1     -10.081  14.507  64.808  1.00  0.00    -0.074 A  
HETATM   43  N   UNL     1     -10.388  15.729  64.418  1.00  0.00     0.193 NA 
HETATM   44  C   UNL     1     -10.305  16.497  65.562  1.00  0.00    -0.284 A  
HETATM   45  C   UNL     1     -10.525  17.862  65.812  1.00  0.00    -0.196 A  
HETATM   46  N   UNL     1     -10.955  18.754  64.840  1.00  0.00    -0.146 NA 
HETATM   47  N   UNL     1     -10.305  18.332  67.062  1.00  0.00    -0.374 NA 
HETATM   48  H1  UNL     1     -11.115  19.745  65.022  1.00  0.00     0.000 HD 
HETATM   49  C   UNL     1      -9.929  17.459  68.021  1.00  0.00    -0.302 A  
HETATM   50  H2  UNL     1     -11.815  18.376  64.440  1.00  0.00     0.000 HD 
HETATM   51  N   UNL     1      -9.738  16.123  67.916  1.00  0.00    -0.224 NA 
HETATM   52  C   UNL     1      -9.931  15.721  66.647  1.00  0.00    -0.257 A  
ENDBRANCH  34  41
ENDBRANCH  31  32
ENDBRANCH  30  31
ENDBRANCH  27  30
ENDBRANCH  26  27
ENDBRANCH  23  26
ENDBRANCH  22  23
ENDBRANCH  21  22
ENDBRANCH  14  21
ENDBRANCH   8  12
ENDBRANCH   4   6
TORSDOF 11
ENDMDL
MODEL      334
REMARK 921   NORMALIZED FREE ENERGY PREDICTED BY IDOCK:   12.21 KCAL/MOL
REMARK 922        TOTAL FREE ENERGY PREDICTED BY IDOCK:   17.85 KCAL/MOL
REMARK 923 INTER-LIGAND FREE ENERGY PREDICTED BY IDOCK:    5.89 KCAL/MOL
REMARK 924 INTRA-LIGAND FREE ENERGY PREDICTED BY IDOCK:   11.96 KCAL/MOL
REMARK 927      BINDING AFFINITY PREDICTED BY RF-SCORE:    0.00 PKD
ROOT
HETATM    1  N   UNL     1     -12.790  15.474  63.850  1.00  0.00    -0.375 N  
HETATM    2  H1  UNL     1     -12.115  14.756  63.588  1.00  0.00     0.000 HD 
HETATM    3  H2  UNL     1     -13.088  16.163  63.158  1.00  0.00     0.000 HD 
HETATM    4  C   UNL     1     -13.296  15.525  65.102  1.00  0.00     1.963 C  
HETATM    5  O   UNL     1     -14.110  16.392  65.418  1.00  0.00     5.117 OA 
ENDROOT
BRANCH   4   6
HETATM    6  C   UNL     1     -12.809  14.503  66.057  1.00  0.00     0.142 C  
HETATM    7  C   UNL     1     -12.202  14.963  67.167  1.00  0.00     0.160 C  
HETATM    8  N   UNL     1     -11.744  14.140  68.193  1.00  0.00    -0.336 NA 
HETATM    9  C   UNL     1     -13.039  13.031  65.854  1.00  0.00     0.844 C  
HETATM   10  C   UNL     1     -11.788  12.758  67.978  1.00  0.00    -0.336 C  
HETATM   11  C   UNL     1     -12.372  12.188  66.913  1.00  0.00     0.679 C  
BRANCH   8  12
HETATM   12  C   UNL     1     -11.369  14.622  69.541  1.00  0.00    -0.280 C  
HETATM   13  O   UNL     1     -10.904  13.499  70.323  1.00  0.00     0.533 OA 
HETATM   14  C   UNL     1     -12.049  12.931  70.997  1.00  0.00     0.050 C  
HETATM   15  H   UNL     1     -12.546  16.467  72.014  1.00  0.00     0.000 HD 
HETATM   16  C   UNL     1     -13.102  14.031  71.105  1.00  0.00    -0.303 C  
HETATM   17  H   UNL     1     -14.071  14.980  72.544  1.00  0.00     0.000 HD 
HETATM   18  C   UNL     1     -12.455  15.240  70.435  1.00  0.00    -0.381 C  
HETATM   19  O   UNL     1     -13.415  14.295  72.478  1.00  0.00    -0.439 OA 
HETATM   20  O   UNL     1     -11.875  16.085  71.461  1.00  0.00    -0.430 OA 
BRANCH  14  21
HETATM   21  C   UNL     1     -12.567  11.705  70.230  1.00  0.00    -0.082 C  
BRANCH  21  22
HETATM   22  O   UNL     1     -11.794  10.548  70.528  1.00  0.00    -0.291 OA 
BRANCH  22  23
HETATM   23  P   UNL     1     -10.385  10.370  69.798  1.00  0.00    -0.079 P  
HETATM   24  O   UNL     1      -9.161  10.478  70.644  1.00  0.00     0.812 OA 
HETATM   25  O   UNL     1     -10.498   8.866  69.241  1.00  0.00    -0.221 OA 
BRANCH  23  26
HETATM   26  O   UNL     1     -10.425  11.226  68.470  1.00  0.00    -0.181 OA 
BRANCH  26  27
HETATM   27  P   UNL     1      -9.603  10.905  67.158  1.00  0.00    -0.168 P  
HETATM   28  O   UNL     1      -9.514  12.338  66.435  1.00  0.00    -0.231 OA 
HETATM   29  O   UNL     1     -10.162   9.902  66.208  1.00  0.00    -0.243 OA 
BRANCH  27  30
HETATM   30  O   UNL     1      -8.085  10.634  67.601  1.00  0.00    -0.106 OA 
BRANCH  30  31
HETATM   31  C   UNL     1      -7.615   9.308  67.823  1.00  0.00    -0.084 C  
BRANCH  31  32
HETATM   32  C   UNL     1      -8.705   8.348  68.290  1.00  0.00    -0.143 C  
HETATM   33  O   UNL     1      -9.336   7.688  67.175  1.00  0.00    -0.136 OA 
HETATM   34  C   UNL     1     -10.032   6.581  67.778  1.00  0.00    -0.131 C  
HETATM   35  H   UNL     1      -7.823   6.886  71.084  1.00  0.00     0.000 HD 
HETATM   36  C   UNL     1      -9.075   6.039  68.852  1.00  0.00    -0.121 C  
HETATM   37  C   UNL     1      -8.158   7.224  69.163  1.00  0.00    -0.121 C  
HETATM   38  H   UNL     1      -9.146   5.248  70.699  1.00  0.00     0.000 HD 
HETATM   39  O   UNL     1      -9.737   5.583  70.036  1.00  0.00    -0.158 OA 
HETATM   40  O   UNL     1      -8.163   7.585  70.540  1.00  0.00    -0.115 OA 
BRANCH  34  41
HETATM   41  N   UNL     1     -10.388   5.595  66.778  1.00  0.00    -0.235 NA 
HETATM   42  C   UNL     1     -11.627   5.316  66.273  1.00  0.00     1.526 A  
HETATM   43  N   UNL     1     -11.579   4.386  65.339  1.00  0.00     0.660 NA 
HETATM   44  C   UNL     1     -10.247   4.031  65.260  1.00  0.00    -0.139 A  
HETATM   45  C   UNL     1      -9.551   3.113  64.457  1.00  0.00    -0.151 A  
HETATM   46  N   UNL     1     -10.159   2.357  63.465  1.00  0.00    -0.138 NA 
HETATM   47  N   UNL     1      -8.222   2.956  64.659  1.00  0.00    -0.086 NA 
HETATM   48  H1  UNL     1      -9.653   1.690  62.881  1.00  0.00     0.000 HD 
HETATM   49  C   UNL     1      -7.619   3.723  65.593  1.00  0.00    -0.081 A  
HETATM   50  H2  UNL     1     -10.639   3.005  62.839  1.00  0.00     0.000 HD 
HETATM   51  N   UNL     1      -8.167   4.672  66.387  1.00  0.00    -0.107 NA 
HETATM   52  C   UNL     1      -9.493   4.755  66.169  1.00  0.00    -0.163 A  
ENDBRANCH  34  41
ENDBRANCH  31  32
ENDBRANCH  30  31
ENDBRANCH  27  30
ENDBRANCH  26  27
ENDBRANCH  23  26
ENDBRANCH  22  23
ENDBRANCH  21  22
ENDBRANCH  14  21
ENDBRANCH   8  12
ENDBRANCH   4   6
TORSDOF 11
ENDMDL
MODEL      335
REMARK 921   NORMALIZED FREE ENERGY PREDICTED BY IDOCK:   12.97 KCAL/MOL
REMARK 922        TOTAL FREE ENERGY PREDICTED BY IDOCK:   19.11 KCAL/MOL
REMARK 923 INTER-LIGAND FREE ENERGY PREDICTED BY IDOCK:    0.50 KCAL/MOL
REMARK 924 INTRA-LIGAND FREE ENERGY PREDICTED BY IDOCK:   18.61 KCAL/MOL
REMARK 927      BINDING AFFINITY PREDICTED BY RF-SCORE:    0.00 PKD
ROOT
HETATM    1  N   UNL     1      -6.049  15.594  67.282  1.00  0.00    -0.040 N  
HETATM    2  H1  UNL     1      -6.295  16.225  68.045  1.00  0.00     0.000 HD 
HETATM    3  H2  UNL     1      -5.146  15.692  66.817  1.00  0.00     0.000 HD 
HETATM    4  C   UNL     1      -6.906  14.629  66.879  1.00  0.00     0.989 C  
HETATM    5  O   UNL     1      -6.609  13.868  65.958  1.00  0.00     3.875 OA 
ENDROOT
BRANCH   4   6
HETATM    6  C   UNL     1      -8.203  14.554  67.588  1.00  0.00    -0.187 C  
HETATM    7  C   UNL     1      -9.202  13.922  66.943  1.00  0.00    -0.259 C  
HETATM    8  N   UNL     1     -10.463  13.709  67.494  1.00  0.00    -0.240 NA 
HETATM    9  C   UNL     1      -8.394  15.079  68.985  1.00  0.00    -0.194 C  
HETATM   10  C   UNL     1     -10.740  14.319  68.723  1.00  0.00    -0.254 C  
HETATM   11  C   UNL     1      -9.823  14.968  69.456  1.00  0.00    -0.136 C  
BRANCH   8  12
HETATM   12  C   UNL     1     -11.459  12.761  66.948  1.00  0.00    -0.340 C  
HETATM   13  O   UNL     1     -12.238  12.227  68.042  1.00  0.00    -0.383 OA 
HETATM   14  C   UNL     1     -11.570  11.036  68.515  1.00  0.00    -0.310 C  
HETATM   15  H   UNL     1     -11.673  10.176  64.905  1.00  0.00     0.000 HD 
HETATM   16  C   UNL     1     -10.718  10.508  67.364  1.00  0.00    -0.281 C  
HETATM   17  H   UNL     1     -10.594   8.854  66.286  1.00  0.00     0.000 HD 
HETATM   18  C   UNL     1     -10.962  11.498  66.228  1.00  0.00    -0.275 C  
HETATM   19  O   UNL     1     -11.125   9.183  67.002  1.00  0.00     0.037 OA 
HETATM   20  O   UNL     1     -11.980  10.957  65.350  1.00  0.00     0.788 OA 
BRANCH  14  21
HETATM   21  C   UNL     1     -10.729  11.354  69.761  1.00  0.00     0.145 C  
BRANCH  21  22
HETATM   22  O   UNL     1      -9.424  10.797  69.656  1.00  0.00    -0.025 OA 
BRANCH  22  23
HETATM   23  P   UNL     1      -9.035  10.027  68.313  1.00  0.00    -0.122 P  
HETATM   24  O   UNL     1      -9.814   8.798  67.982  1.00  0.00    -0.157 OA 
HETATM   25  O   UNL     1      -9.337  11.146  67.199  1.00  0.00    -0.163 OA 
BRANCH  23  26
HETATM   26  O   UNL     1      -7.459   9.919  68.265  1.00  0.00    -0.079 OA 
BRANCH  26  27
HETATM   27  P   UNL     1      -6.583   8.987  69.194  1.00  0.00    -0.051 P  
HETATM   28  O   UNL     1      -7.567   8.694  70.431  1.00  0.00    -0.064 OA 
HETATM   29  O   UNL     1      -5.288   9.522  69.703  1.00  0.00    -0.034 OA 
BRANCH  27  30
HETATM   30  O   UNL     1      -6.480   7.557  68.474  1.00  0.00    -0.042 OA 
BRANCH  30  31
HETATM   31  C   UNL     1      -7.649   6.874  68.036  1.00  0.00    -0.108 C  
BRANCH  31  32
HETATM   32  C   UNL     1      -7.547   5.357  68.155  1.00  0.00    -0.081 C  
HETATM   33  O   UNL     1      -8.049   4.894  69.424  1.00  0.00    -0.077 OA 
HETATM   34  C   UNL     1      -8.238   3.480  69.227  1.00  0.00    -0.059 C  
HETATM   35  H   UNL     1      -8.152   3.937  65.266  1.00  0.00     0.000 HD 
HETATM   36  C   UNL     1      -8.819   3.344  67.810  1.00  0.00    -0.128 C  
HETATM   37  C   UNL     1      -8.382   4.631  67.105  1.00  0.00    -0.105 C  
HETATM   38  H   UNL     1      -8.706   2.108  66.228  1.00  0.00     0.000 HD 
HETATM   39  O   UNL     1      -8.347   2.192  67.104  1.00  0.00    -0.076 OA 
HETATM   40  O   UNL     1      -7.632   4.389  65.920  1.00  0.00    -0.087 OA 
BRANCH  34  41
HETATM   41  N   UNL     1      -9.100   2.932  70.254  1.00  0.00    -0.104 NA 
HETATM   42  C   UNL     1      -9.438   1.624  70.460  1.00  0.00    -0.092 A  
HETATM   43  N   UNL     1     -10.210   1.478  71.519  1.00  0.00    -0.087 NA 
HETATM   44  C   UNL     1     -10.399   2.757  72.001  1.00  0.00     0.064 A  
HETATM   45  C   UNL     1     -11.106   3.267  73.102  1.00  0.00    -0.059 A  
HETATM   46  N   UNL     1     -11.772   2.464  74.017  1.00  0.00     0.147 NA 
HETATM   47  N   UNL     1     -11.142   4.609  73.281  1.00  0.00    -0.300 NA 
HETATM   48  H1  UNL     1     -12.286   2.835  74.816  1.00  0.00     0.000 HD 
HETATM   49  C   UNL     1     -10.458   5.391  72.418  1.00  0.00    -0.217 A  
HETATM   50  H2  UNL     1     -11.097   1.788  74.376  1.00  0.00     0.000 HD 
HETATM   51  N   UNL     1      -9.703   5.018  71.359  1.00  0.00    -0.163 NA 
HETATM   52  C   UNL     1      -9.737   3.681  71.208  1.00  0.00    -0.169 A  
ENDBRANCH  34  41
ENDBRANCH  31  32
ENDBRANCH  30  31
ENDBRANCH  27  30
ENDBRANCH  26  27
ENDBRANCH  23  26
ENDBRANCH  22  23
ENDBRANCH  21  22
ENDBRANCH  14  21
ENDBRANCH   8  12
ENDBRANCH   4   6
TORSDOF 11
ENDMDL
MODEL      336
REMARK 921   NORMALIZED FREE ENERGY PREDICTED BY IDOCK:   14.00 KCAL/MOL
REMARK 922        TOTAL FREE ENERGY PREDICTED BY IDOCK:   20.81 KCAL/MOL
REMARK 923 INTER-LIGAND FREE ENERGY PREDICTED BY IDOCK:    9.66 KCAL/MOL
REMARK 924 INTRA-LIGAND FREE ENERGY PREDICTED BY IDOCK:   11.15 KCAL/MOL
REMARK 927      BINDING AFFINITY PREDICTED BY RF-SCORE:    0.00 PKD
ROOT
HETATM    1  N   UNL     1     -12.808  15.495  63.878  1.00  0.00    -0.375 N  
HETATM    2  H1  UNL     1     -12.151  14.743  63.668  1.00  0.00     0.000 HD 
HETATM    3  H2  UNL     1     -13.101  16.130  63.136  1.00  0.00     0.000 HD 
HETATM    4  C   UNL     1     -13.293  15.660  65.129  1.00  0.00     2.226 C  
HETATM    5  O   UNL     1     -14.084  16.568  65.382  1.00  0.00     5.697 OA 
ENDROOT
BRANCH   4   6
HETATM    6  C   UNL     1     -12.813  14.711  66.159  1.00  0.00     0.409 C  
HETATM    7  C   UNL     1     -12.159  15.245  67.207  1.00  0.00     0.368 C  
HETATM    8  N   UNL     1     -11.699  14.501  68.290  1.00  0.00    -0.328 NA 
HETATM    9  C   UNL     1     -13.097  13.235  66.095  1.00  0.00     0.804 C  
HETATM   10  C   UNL     1     -11.795  13.107  68.201  1.00  0.00    -0.348 C  
HETATM   11  C   UNL     1     -12.428  12.467  67.208  1.00  0.00     0.933 C  
BRANCH   8  12
HETATM   12  C   UNL     1     -11.269  15.087  69.579  1.00  0.00    -0.276 C  
HETATM   13  O   UNL     1     -10.836  14.020  70.452  1.00  0.00     0.306 OA 
HETATM   14  C   UNL     1     -11.988  13.571  71.200  1.00  0.00     0.113 C  
HETATM   15  H   UNL     1     -12.301  17.205  71.893  1.00  0.00     0.000 HD 
HETATM   16  C   UNL     1     -12.988  14.724  71.227  1.00  0.00    -0.346 C  
HETATM   17  H   UNL     1     -13.877  15.846  72.591  1.00  0.00     0.000 HD 
HETATM   18  C   UNL     1     -12.304  15.835  70.434  1.00  0.00    -0.333 C  
HETATM   19  O   UNL     1     -13.255  15.128  72.575  1.00  0.00    -0.340 OA 
HETATM   20  O   UNL     1     -11.661  16.742  71.364  1.00  0.00    -0.084 OA 
BRANCH  14  21
HETATM   21  C   UNL     1     -12.580  12.305  70.562  1.00  0.00    -0.092 C  
BRANCH  21  22
HETATM   22  O   UNL     1     -11.777  11.165  70.843  1.00  0.00    -0.246 OA 
BRANCH  22  23
HETATM   23  P   UNL     1     -10.459  10.932  69.973  1.00  0.00     0.638 P  
HETATM   24  O   UNL     1      -9.395  11.975  70.056  1.00  0.00     2.196 OA 
HETATM   25  O   UNL     1      -9.893   9.565  70.602  1.00  0.00    -0.263 OA 
BRANCH  23  26
HETATM   26  O   UNL     1     -10.915  10.476  68.530  1.00  0.00    -0.218 OA 
BRANCH  26  27
HETATM   27  P   UNL     1     -10.082   9.536  67.569  1.00  0.00    -0.235 P  
HETATM   28  O   UNL     1     -10.655   9.916  66.117  1.00  0.00    -0.121 OA 
HETATM   29  O   UNL     1     -10.180   8.063  67.774  1.00  0.00    -0.196 OA 
BRANCH  27  30
HETATM   30  O   UNL     1      -8.584  10.108  67.523  1.00  0.00    -0.119 OA 
BRANCH  30  31
HETATM   31  C   UNL     1      -7.595   9.637  68.432  1.00  0.00    -0.081 C  
BRANCH  31  32
HETATM   32  C   UNL     1      -8.164   9.205  69.780  1.00  0.00    -0.128 C  
HETATM   33  O   UNL     1      -8.509   7.806  69.780  1.00  0.00    -0.130 OA 
HETATM   34  C   UNL     1      -8.654   7.486  71.177  1.00  0.00    -0.121 C  
HETATM   35  H   UNL     1      -6.639  10.765  72.222  1.00  0.00     0.000 HD 
HETATM   36  C   UNL     1      -7.514   8.238  71.884  1.00  0.00    -0.098 C  
HETATM   37  C   UNL     1      -7.163   9.372  70.918  1.00  0.00    -0.081 C  
HETATM   38  H   UNL     1      -7.173   9.221  73.604  1.00  0.00     0.000 HD 
HETATM   39  O   UNL     1      -7.877   8.756  73.167  1.00  0.00    -0.395 OA 
HETATM   40  O   UNL     1      -7.262  10.661  71.513  1.00  0.00     1.590 OA 
BRANCH  34  41
HETATM   41  N   UNL     1      -8.607   6.052  71.380  1.00  0.00    -0.128 NA 
HETATM   42  C   UNL     1      -9.634   5.215  71.714  1.00  0.00    -0.152 A  
HETATM   43  N   UNL     1      -9.242   3.957  71.773  1.00  0.00    -0.118 NA 
HETATM   44  C   UNL     1      -7.892   3.992  71.491  1.00  0.00    -0.065 A  
HETATM   45  C   UNL     1      -6.913   2.990  71.387  1.00  0.00    -0.032 A  
HETATM   46  N   UNL     1      -7.191   1.638  71.527  1.00  0.00    -0.031 NA 
HETATM   47  N   UNL     1      -5.634   3.360  71.140  1.00  0.00    -0.012 NA 
HETATM   48  H1  UNL     1      -6.480   0.910  71.451  1.00  0.00     0.000 HD 
HETATM   49  C   UNL     1      -5.368   4.672  70.959  1.00  0.00    -0.004 A  
HETATM   50  H2  UNL     1      -7.931   1.409  70.862  1.00  0.00     0.000 HD 
HETATM   51  N   UNL     1      -6.227   5.717  70.982  1.00  0.00    -0.033 NA 
HETATM   52  C   UNL     1      -7.472   5.294  71.271  1.00  0.00    -0.091 A  
ENDBRANCH  34  41
ENDBRANCH  31  32
ENDBRANCH  30  31
ENDBRANCH  27  30
ENDBRANCH  26  27
ENDBRANCH  23  26
ENDBRANCH  22  23
ENDBRANCH  21  22
ENDBRANCH  14  21
ENDBRANCH   8  12
ENDBRANCH   4   6
TORSDOF 11
ENDMDL
MODEL      337
REMARK 921   NORMALIZED FREE ENERGY PREDICTED BY IDOCK:   15.66 KCAL/MOL
REMARK 922        TOTAL FREE ENERGY PREDICTED BY IDOCK:   23.53 KCAL/MOL
REMARK 923 INTER-LIGAND FREE ENERGY PREDICTED BY IDOCK:    9.80 KCAL/MOL
REMARK 924 INTRA-LIGAND FREE ENERGY PREDICTED BY IDOCK:   13.74 KCAL/MOL
REMARK 927      BINDING AFFINITY PREDICTED BY RF-SCORE:    0.00 PKD
ROOT
HETATM    1  N   UNL     1      -6.274   9.563  69.851  1.00  0.00    -0.043 N  
HETATM    2  H1  UNL     1      -5.390   9.206  69.486  1.00  0.00     0.000 HD 
HETATM    3  H2  UNL     1      -6.654   9.179  70.717  1.00  0.00     0.000 HD 
HETATM    4  C   UNL     1      -6.946  10.538  69.201  1.00  0.00    -0.080 C  
HETATM    5  O   UNL     1      -8.012  10.968  69.642  1.00  0.00     0.037 OA 
ENDROOT
BRANCH   4   6
HETATM    6  C   UNL     1      -6.343  11.038  67.945  1.00  0.00    -0.057 C  
HETATM    7  C   UNL     1      -5.978  10.107  67.044  1.00  0.00    -0.051 C  
HETATM    8  N   UNL     1      -5.455  10.410  65.790  1.00  0.00    -0.072 NA 
HETATM    9  C   UNL     1      -6.209  12.505  67.639  1.00  0.00    -0.141 C  
HETATM   10  C   UNL     1      -5.160  11.752  65.522  1.00  0.00     1.132 C  
HETATM   11  C   UNL     1      -5.484  12.763  66.342  1.00  0.00     1.927 C  
BRANCH   8  12
HETATM   12  C   UNL     1      -5.343   9.439  64.679  1.00  0.00    -0.054 C  
HETATM   13  O   UNL     1      -5.314  10.165  63.429  1.00  0.00    -0.094 OA 
HETATM   14  C   UNL     1      -6.679  10.313  62.977  1.00  0.00    -0.126 C  
HETATM   15  H   UNL     1      -6.725   6.650  63.575  1.00  0.00     0.000 HD 
HETATM   16  C   UNL     1      -7.493   9.195  63.622  1.00  0.00    -0.106 C  
HETATM   17  H   UNL     1      -8.590   7.663  63.019  1.00  0.00     0.000 HD 
HETATM   18  C   UNL     1      -6.479   8.426  64.464  1.00  0.00    -0.066 C  
HETATM   19  O   UNL     1      -8.083   8.360  62.618  1.00  0.00    -0.160 OA 
HETATM   20  O   UNL     1      -6.022   7.276  63.709  1.00  0.00    -0.043 OA 
BRANCH  14  21
HETATM   21  C   UNL     1      -7.214  11.706  63.344  1.00  0.00     2.329 C  
BRANCH  21  22
HETATM   22  O   UNL     1      -7.938  11.673  64.568  1.00  0.00     1.148 OA 
BRANCH  22  23
HETATM   23  P   UNL     1      -9.381  10.988  64.576  1.00  0.00    -0.132 P  
HETATM   24  O   UNL     1      -9.766  10.196  63.372  1.00  0.00    -0.271 OA 
HETATM   25  O   UNL     1      -9.258   9.991  65.832  1.00  0.00    -0.151 OA 
BRANCH  23  26
HETATM   26  O   UNL     1     -10.416  12.062  65.098  1.00  0.00    -0.268 OA 
BRANCH  26  27
HETATM   27  P   UNL     1     -11.924  12.170  64.635  1.00  0.00    -0.230 P  
HETATM   28  O   UNL     1     -12.679  11.185  65.656  1.00  0.00     2.453 OA 
HETATM   29  O   UNL     1     -12.256  11.784  63.233  1.00  0.00    -0.489 OA 
BRANCH  27  30
HETATM   30  O   UNL     1     -12.456  13.618  65.075  1.00  0.00    -0.451 OA 
BRANCH  30  31
HETATM   31  C   UNL     1     -11.865  14.312  66.168  1.00  0.00    -0.402 C  
BRANCH  31  32
HETATM   32  C   UNL     1     -11.669  13.442  67.406  1.00  0.00    -0.373 C  
HETATM   33  O   UNL     1     -11.979  12.061  67.132  1.00  0.00    -0.601 OA 
HETATM   34  C   UNL     1     -11.393  11.350  68.238  1.00  0.00    -0.286 C  
HETATM   35  H   UNL     1      -9.094  14.480  69.142  1.00  0.00     0.000 HD 
HETATM   36  C   UNL     1     -10.044  12.042  68.495  1.00  0.00    -0.196 C  
HETATM   37  C   UNL     1     -10.226  13.439  67.896  1.00  0.00    -0.241 C  
HETATM   38  H   UNL     1      -8.862  12.551  70.039  1.00  0.00     0.000 HD 
HETATM   39  O   UNL     1      -9.695  12.123  69.880  1.00  0.00     1.583 OA 
HETATM   40  O   UNL     1      -9.993  14.482  68.836  1.00  0.00    -0.228 OA 
BRANCH  34  41
HETATM   41  N   UNL     1     -11.263   9.940  67.927  1.00  0.00    -0.153 NA 
HETATM   42  C   UNL     1     -10.694   9.369  66.824  1.00  0.00    -0.059 A  
HETATM   43  N   UNL     1     -10.708   8.053  66.890  1.00  0.00    -0.264 NA 
HETATM   44  C   UNL     1     -11.344   7.763  68.080  1.00  0.00     0.785 A  
HETATM   45  C   UNL     1     -11.657   6.555  68.725  1.00  0.00     0.202 A  
HETATM   46  N   UNL     1     -11.296   5.312  68.228  1.00  0.00     0.957 NA 
HETATM   47  N   UNL     1     -12.348   6.605  69.888  1.00  0.00     0.273 NA 
HETATM   48  H1  UNL     1     -11.523   4.434  68.696  1.00  0.00     0.000 HD 
HETATM   49  C   UNL     1     -12.663   7.816  70.398  1.00  0.00     0.658 A  
HETATM   50  H2  UNL     1     -10.286   5.325  68.082  1.00  0.00     0.000 HD 
HETATM   51  N   UNL     1     -12.372   9.041  69.902  1.00  0.00     0.817 NA 
HETATM   52  C   UNL     1     -11.722   8.928  68.728  1.00  0.00     1.382 A  
ENDBRANCH  34  41
ENDBRANCH  31  32
ENDBRANCH  30  31
ENDBRANCH  27  30
ENDBRANCH  26  27
ENDBRANCH  23  26
ENDBRANCH  22  23
ENDBRANCH  21  22
ENDBRANCH  14  21
ENDBRANCH   8  12
ENDBRANCH   4   6
TORSDOF 11
ENDMDL
MODEL      338
REMARK 921   NORMALIZED FREE ENERGY PREDICTED BY IDOCK:   16.56 KCAL/MOL
REMARK 922        TOTAL FREE ENERGY PREDICTED BY IDOCK:   25.01 KCAL/MOL
REMARK 923 INTER-LIGAND FREE ENERGY PREDICTED BY IDOCK:   12.91 KCAL/MOL
REMARK 924 INTRA-LIGAND FREE ENERGY PREDICTED BY IDOCK:   12.10 KCAL/MOL
REMARK 927      BINDING AFFINITY PREDICTED BY RF-SCORE:    0.00 PKD
ROOT
HETATM    1  N   UNL     1     -14.303   7.567  72.675  1.00  0.00    -0.335 N  
HETATM    2  H1  UNL     1     -14.399   7.085  71.781  1.00  0.00     0.000 HD 
HETATM    3  H2  UNL     1     -15.138   7.854  73.186  1.00  0.00     0.000 HD 
HETATM    4  C   UNL     1     -13.081   7.828  73.192  1.00  0.00     1.488 C  
HETATM    5  O   UNL     1     -12.966   8.409  74.271  1.00  0.00     4.800 OA 
ENDROOT
BRANCH   4   6
HETATM    6  C   UNL     1     -11.914   7.394  72.392  1.00  0.00    -0.232 C  
HETATM    7  C   UNL     1     -11.734   8.015  71.211  1.00  0.00    -0.282 C  
HETATM    8  N   UNL     1     -10.653   7.770  70.367  1.00  0.00    -0.223 NA 
HETATM    9  C   UNL     1     -10.927   6.373  72.887  1.00  0.00    -0.281 C  
HETATM   10  C   UNL     1      -9.798   6.716  70.707  1.00  0.00    -0.183 C  
HETATM   11  C   UNL     1      -9.878   6.033  71.858  1.00  0.00    -0.183 C  
BRANCH   8  12
HETATM   12  C   UNL     1     -10.266   8.645  69.238  1.00  0.00    -0.211 C  
HETATM   13  O   UNL     1      -9.639   9.835  69.767  1.00  0.00    -0.203 OA 
HETATM   14  C   UNL     1     -10.678  10.815  69.988  1.00  0.00    -0.078 C  
HETATM   15  H   UNL     1     -11.514   9.953  66.475  1.00  0.00     0.000 HD 
HETATM   16  C   UNL     1     -11.840  10.459  69.065  1.00  0.00    -0.023 C  
HETATM   17  H   UNL     1     -12.834  11.312  67.583  1.00  0.00     0.000 HD 
HETATM   18  C   UNL     1     -11.367   9.210  68.327  1.00  0.00     0.550 C  
HETATM   19  O   UNL     1     -12.110  11.534  68.157  1.00  0.00    -0.604 OA 
HETATM   20  O   UNL     1     -10.833   9.604  67.039  1.00  0.00    -0.201 OA 
BRANCH  14  21
HETATM   21  C   UNL     1     -11.095  10.829  71.467  1.00  0.00     1.867 C  
BRANCH  21  22
HETATM   22  O   UNL     1     -11.538  12.121  71.864  1.00  0.00     2.300 OA 
BRANCH  22  23
HETATM   23  P   UNL     1     -12.075  13.117  70.737  1.00  0.00     0.136 P  
HETATM   24  O   UNL     1     -13.484  12.936  70.282  1.00  0.00     0.900 OA 
HETATM   25  O   UNL     1     -11.950  14.539  71.477  1.00  0.00    -0.348 OA 
BRANCH  23  26
HETATM   26  O   UNL     1     -10.961  13.217  69.620  1.00  0.00    -0.029 OA 
BRANCH  26  27
HETATM   27  P   UNL     1     -11.158  13.882  68.199  1.00  0.00    -0.285 P  
HETATM   28  O   UNL     1      -9.702  14.484  67.884  1.00  0.00    -0.211 OA 
HETATM   29  O   UNL     1     -12.182  14.957  68.064  1.00  0.00    -0.168 OA 
BRANCH  27  30
HETATM   30  O   UNL     1     -11.292  12.692  67.131  1.00  0.00    -0.283 OA 
BRANCH  30  31
HETATM   31  C   UNL     1     -11.058  12.925  65.746  1.00  0.00    -0.284 C  
BRANCH  31  32
HETATM   32  C   UNL     1     -11.760  14.169  65.212  1.00  0.00    -0.353 C  
HETATM   33  O   UNL     1     -11.411  15.339  65.977  1.00  0.00    -0.286 OA 
HETATM   34  C   UNL     1     -11.826  16.436  65.141  1.00  0.00     0.889 C  
HETATM   35  H   UNL     1     -11.968  14.055  61.945  1.00  0.00     0.000 HD 
HETATM   36  C   UNL     1     -11.441  16.022  63.711  1.00  0.00     0.868 C  
HETATM   37  C   UNL     1     -11.360  14.495  63.777  1.00  0.00     0.708 C  
HETATM   38  H   UNL     1     -12.146  16.185  61.835  1.00  0.00     0.000 HD 
HETATM   39  O   UNL     1     -12.383  16.440  62.719  1.00  0.00     3.971 OA 
HETATM   40  O   UNL     1     -12.216  13.852  62.839  1.00  0.00    -0.339 OA 
BRANCH  34  41
HETATM   41  N   UNL     1     -11.199  17.670  65.569  1.00  0.00     0.200 NA 
HETATM   42  C   UNL     1     -10.962  18.795  64.831  1.00  0.00     1.838 A  
HETATM   43  N   UNL     1     -10.412  19.751  65.554  1.00  0.00    -0.430 NA 
HETATM   44  C   UNL     1     -10.262  19.202  66.812  1.00  0.00    -0.400 A  
HETATM   45  C   UNL     1      -9.755  19.710  68.019  1.00  0.00    -0.396 A  
HETATM   46  N   UNL     1      -9.309  21.016  68.168  1.00  0.00     0.380 NA 
HETATM   47  N   UNL     1      -9.695  18.886  69.091  1.00  0.00    -0.278 NA 
HETATM   48  H1  UNL     1      -8.941  21.384  69.045  1.00  0.00     0.000 HD 
HETATM   49  C   UNL     1     -10.169  17.627  68.963  1.00  0.00    -0.314 A  
HETATM   50  H2  UNL     1     -10.069  21.631  67.875  1.00  0.00     0.000 HD 
HETATM   51  N   UNL     1     -10.726  17.044  67.876  1.00  0.00    -0.362 NA 
HETATM   52  C   UNL     1     -10.721  17.896  66.833  1.00  0.00    -0.176 A  
ENDBRANCH  34  41
ENDBRANCH  31  32
ENDBRANCH  30  31
ENDBRANCH  27  30
ENDBRANCH  26  27
ENDBRANCH  23  26
ENDBRANCH  22  23
ENDBRANCH  21  22
ENDBRANCH  14  21
ENDBRANCH   8  12
ENDBRANCH   4   6
TORSDOF 11
ENDMDL
MODEL      339
REMARK 921   NORMALIZED FREE ENERGY PREDICTED BY IDOCK:   17.59 KCAL/MOL
REMARK 922        TOTAL FREE ENERGY PREDICTED BY IDOCK:   26.69 KCAL/MOL
REMARK 923 INTER-LIGAND FREE ENERGY PREDICTED BY IDOCK:   26.81 KCAL/MOL
REMARK 924 INTRA-LIGAND FREE ENERGY PREDICTED BY IDOCK:   -0.12 KCAL/MOL
REMARK 927      BINDING AFFINITY PREDICTED BY RF-SCORE:    0.00 PKD
ROOT
HETATM    1  N   UNL     1     -11.640   4.801  69.596  1.00  0.00     3.938 N  
HETATM    2  H1  UNL     1     -12.027   5.322  68.809  1.00  0.00     0.000 HD 
HETATM    3  H2  UNL     1     -11.941   3.841  69.763  1.00  0.00     0.000 HD 
HETATM    4  C   UNL     1     -10.731   5.369  70.419  1.00  0.00    -0.206 C  
HETATM    5  O   UNL     1     -10.263   4.741  71.369  1.00  0.00    -0.199 OA 
ENDROOT
BRANCH   4   6
HETATM    6  C   UNL     1     -10.350   6.769  70.125  1.00  0.00    -0.228 C  
HETATM    7  C   UNL     1     -11.325   7.690  70.235  1.00  0.00    -0.181 C  
HETATM    8  N   UNL     1     -11.120   9.056  70.054  1.00  0.00    -0.220 NA 
HETATM    9  C   UNL     1      -8.938   7.172  69.795  1.00  0.00    -0.142 C  
HETATM   10  C   UNL     1      -9.864   9.462  69.589  1.00  0.00    -0.193 C  
HETATM   11  C   UNL     1      -8.819   8.634  69.447  1.00  0.00    -0.144 C  
BRANCH   8  12
HETATM   12  C   UNL     1     -12.079  10.103  70.471  1.00  0.00    -0.291 C  
HETATM   13  O   UNL     1     -12.718  10.642  69.292  1.00  0.00    -0.202 OA 
HETATM   14  C   UNL     1     -11.919  11.754  68.831  1.00  0.00    -0.271 C  
HETATM   15  H   UNL     1     -12.256  12.792  72.380  1.00  0.00     0.000 HD 
HETATM   16  C   UNL     1     -11.127  12.270  70.030  1.00  0.00     0.428 C  
HETATM   17  H   UNL     1     -10.962  13.959  71.045  1.00  0.00     0.000 HD 
HETATM   18  C   UNL     1     -11.544  11.357  71.179  1.00  0.00     0.832 C  
HETATM   19  O   UNL     1     -11.456  13.639  70.299  1.00  0.00    -0.145 OA 
HETATM   20  O   UNL     1     -12.587  12.016  71.942  1.00  0.00    -0.136 OA 
BRANCH  14  21
HETATM   21  C   UNL     1     -11.004  11.313  67.678  1.00  0.00    -0.259 C  
BRANCH  21  22
HETATM   22  O   UNL     1     -10.165  12.380  67.251  1.00  0.00    -0.214 OA 
BRANCH  22  23
HETATM   23  P   UNL     1     -10.495  13.095  65.863  1.00  0.00    -0.286 P  
HETATM   24  O   UNL     1      -9.475  14.042  65.324  1.00  0.00     0.033 OA 
HETATM   25  O   UNL     1     -10.606  11.836  64.869  1.00  0.00    -0.271 OA 
BRANCH  23  26
HETATM   26  O   UNL     1     -11.990  13.603  65.932  1.00  0.00    -0.362 OA 
BRANCH  26  27
HETATM   27  P   UNL     1     -12.707  14.470  64.821  1.00  0.00     0.353 P  
HETATM   28  O   UNL     1     -14.259  14.345  65.219  1.00  0.00     1.199 OA 
HETATM   29  O   UNL     1     -12.524  14.073  63.396  1.00  0.00    -0.826 OA 
BRANCH  27  30
HETATM   30  O   UNL     1     -12.381  16.010  65.133  1.00  0.00     0.849 OA 
BRANCH  30  31
HETATM   31  C   UNL     1     -11.820  16.854  64.134  1.00  0.00     1.793 C  
BRANCH  31  32
HETATM   32  C   UNL     1     -10.773  17.823  64.675  1.00  0.00     1.946 C  
HETATM   33  O   UNL     1     -11.263  18.535  65.828  1.00  0.00     0.214 OA 
HETATM   34  C   UNL     1     -10.073  19.089  66.423  1.00  0.00    -0.415 C  
HETATM   35  H   UNL     1      -7.772  16.543  64.392  1.00  0.00     0.000 HD 
HETATM   36  C   UNL     1      -9.010  17.985  66.304  1.00  0.00    -0.172 C  
HETATM   37  C   UNL     1      -9.509  17.113  65.149  1.00  0.00     1.678 C  
HETATM   38  H   UNL     1      -7.038  17.798  65.962  1.00  0.00     0.000 HD 
HETATM   39  O   UNL     1      -7.695  18.480  66.036  1.00  0.00    -0.396 OA 
HETATM   40  O   UNL     1      -8.559  16.985  64.097  1.00  0.00     7.211 OA 
BRANCH  34  41
HETATM   41  N   UNL     1     -10.328  19.495  67.790  1.00  0.00    -0.426 NA 
HETATM   42  C   UNL     1     -10.415  20.763  68.291  1.00  0.00     0.466 A  
HETATM   43  N   UNL     1     -10.703  20.765  69.577  1.00  0.00     0.603 NA 
HETATM   44  C   UNL     1     -10.776  19.432  69.927  1.00  0.00     1.536 A  
HETATM   45  C   UNL     1     -11.058  18.777  71.137  1.00  0.00     4.223 A  
HETATM   46  N   UNL     1     -11.390  19.448  72.305  1.00  0.00     4.809 NA 
HETATM   47  N   UNL     1     -11.002  17.425  71.167  1.00  0.00     1.186 NA 
HETATM   48  H1  UNL     1     -11.595  18.972  73.184  1.00  0.00     0.000 HD 
HETATM   49  C   UNL     1     -10.723  16.766  70.021  1.00  0.00    -0.049 A  
HETATM   50  H2  UNL     1     -12.186  20.051  72.094  1.00  0.00     0.000 HD 
HETATM   51  N   UNL     1     -10.488  17.279  68.791  1.00  0.00    -0.346 NA 
HETATM   52  C   UNL     1     -10.517  18.624  68.831  1.00  0.00     0.091 A  
ENDBRANCH  34  41
ENDBRANCH  31  32
ENDBRANCH  30  31
ENDBRANCH  27  30
ENDBRANCH  26  27
ENDBRANCH  23  26
ENDBRANCH  22  23
ENDBRANCH  21  22
ENDBRANCH  14  21
ENDBRANCH   8  12
ENDBRANCH   4   6
TORSDOF 11
ENDMDL
MODEL      340
REMARK 921   NORMALIZED FREE ENERGY PREDICTED BY IDOCK:   19.90 KCAL/MOL
REMARK 922        TOTAL FREE ENERGY PREDICTED BY IDOCK:   30.50 KCAL/MOL
REMARK 923 INTER-LIGAND FREE ENERGY PREDICTED BY IDOCK:   -2.29 KCAL/MOL
REMARK 924 INTRA-LIGAND FREE ENERGY PREDICTED BY IDOCK:   32.79 KCAL/MOL
REMARK 927      BINDING AFFINITY PREDICTED BY RF-SCORE:    0.00 PKD
ROOT
HETATM    1  N   UNL     1      -5.351   7.930  72.166  1.00  0.00    -0.035 N  
HETATM    2  H1  UNL     1      -4.993   7.531  71.298  1.00  0.00     0.000 HD 
HETATM    3  H2  UNL     1      -4.729   8.029  72.969  1.00  0.00     0.000 HD 
HETATM    4  C   UNL     1      -6.638   8.328  72.265  1.00  0.00    -0.080 C  
HETATM    5  O   UNL     1      -7.070   8.810  73.312  1.00  0.00    -0.340 OA 
ENDROOT
BRANCH   4   6
HETATM    6  C   UNL     1      -7.486   8.142  71.065  1.00  0.00    -0.067 C  
HETATM    7  C   UNL     1      -8.498   9.015  70.906  1.00  0.00    -0.208 C  
HETATM    8  N   UNL     1      -9.348   9.019  69.803  1.00  0.00    -0.164 NA 
HETATM    9  C   UNL     1      -7.202   7.090  70.028  1.00  0.00    -0.079 C  
HETATM   10  C   UNL     1      -9.227   7.962  68.894  1.00  0.00    -0.144 C  
HETATM   11  C   UNL     1      -8.256   7.039  68.950  1.00  0.00    -0.122 C  
BRANCH   8  12
HETATM   12  C   UNL     1     -10.249  10.139  69.452  1.00  0.00    -0.227 C  
HETATM   13  O   UNL     1     -10.261  10.291  68.014  1.00  0.00    -0.156 OA 
HETATM   14  C   UNL     1      -9.205  11.213  67.663  1.00  0.00    -0.151 C  
HETATM   15  H   UNL     1     -10.858  13.281  70.266  1.00  0.00     0.000 HD 
HETATM   16  C   UNL     1      -8.928  12.073  68.894  1.00  0.00     0.213 C  
HETATM   17  H   UNL     1      -8.985  13.992  69.369  1.00  0.00     0.000 HD 
HETATM   18  C   UNL     1      -9.902  11.552  69.946  1.00  0.00     1.402 C  
HETATM   19  O   UNL     1      -9.158  13.457  68.603  1.00  0.00    -0.117 OA 
HETATM   20  O   UNL     1     -11.072  12.407  69.961  1.00  0.00     0.128 OA 
BRANCH  14  21
HETATM   21  C   UNL     1      -7.958  10.446  67.198  1.00  0.00    -0.115 C  
BRANCH  21  22
HETATM   22  O   UNL     1      -8.270   9.553  66.136  1.00  0.00    -0.113 OA 
BRANCH  22  23
HETATM   23  P   UNL     1      -9.766   9.007  66.021  1.00  0.00    -0.133 P  
HETATM   24  O   UNL     1      -9.942   7.541  65.806  1.00  0.00     0.432 OA 
HETATM   25  O   UNL     1     -10.363   9.393  67.464  1.00  0.00    -0.222 OA 
BRANCH  23  26
HETATM   26  O   UNL     1     -10.556   9.980  65.058  1.00  0.00     0.066 OA 
BRANCH  26  27
HETATM   27  P   UNL     1     -10.222  11.510  64.840  1.00  0.00    -0.305 P  
HETATM   28  O   UNL     1      -9.122  11.798  65.976  1.00  0.00    -0.212 OA 
HETATM   29  O   UNL     1     -11.335  12.494  64.963  1.00  0.00    -0.296 OA 
BRANCH  27  30
HETATM   30  O   UNL     1      -9.373  11.625  63.483  1.00  0.00    -0.185 OA 
BRANCH  30  31
HETATM   31  C   UNL     1      -8.594  10.530  63.015  1.00  0.00    -0.190 C  
BRANCH  31  32
HETATM   32  C   UNL     1      -8.047   9.650  64.135  1.00  0.00    -0.151 C  
HETATM   33  O   UNL     1      -8.588   8.317  64.068  1.00  0.00    -0.015 OA 
HETATM   34  C   UNL     1      -7.713   7.545  64.912  1.00  0.00    -0.115 C  
HETATM   35  H   UNL     1      -4.910  10.376  64.733  1.00  0.00     0.000 HD 
HETATM   36  C   UNL     1      -6.299   8.068  64.613  1.00  0.00    -0.052 C  
HETATM   37  C   UNL     1      -6.534   9.473  64.053  1.00  0.00    -0.100 C  
HETATM   38  H   UNL     1      -4.574   8.439  65.579  1.00  0.00     0.000 HD 
HETATM   39  O   UNL     1      -5.448   8.115  65.763  1.00  0.00    -0.028 OA 
HETATM   40  O   UNL     1      -5.852  10.486  64.784  1.00  0.00    -0.132 OA 
BRANCH  34  41
HETATM   41  N   UNL     1      -7.867   6.129  64.649  1.00  0.00    -0.108 NA 
HETATM   42  C   UNL     1      -8.796   5.515  63.856  1.00  0.00     0.219 A  
HETATM   43  N   UNL     1      -8.616   4.210  63.809  1.00  0.00    -0.100 NA 
HETATM   44  C   UNL     1      -7.535   3.970  64.634  1.00  0.00    -0.072 A  
HETATM   45  C   UNL     1      -6.850   2.797  64.991  1.00  0.00    -0.044 A  
HETATM   46  N   UNL     1      -7.161   1.548  64.476  1.00  0.00    -0.045 NA 
HETATM   47  N   UNL     1      -5.836   2.889  65.884  1.00  0.00    -0.022 NA 
HETATM   48  H1  UNL     1      -6.663   0.696  64.735  1.00  0.00     0.000 HD 
HETATM   49  C   UNL     1      -5.501   4.111  66.354  1.00  0.00    -0.013 A  
HETATM   50  H2  UNL     1      -7.126   1.621  63.458  1.00  0.00     0.000 HD 
HETATM   51  N   UNL     1      -6.047   5.310  66.047  1.00  0.00    -0.029 NA 
HETATM   52  C   UNL     1      -7.072   5.152  65.189  1.00  0.00    -0.063 A  
ENDBRANCH  34  41
ENDBRANCH  31  32
ENDBRANCH  30  31
ENDBRANCH  27  30
ENDBRANCH  26  27
ENDBRANCH  23  26
ENDBRANCH  22  23
ENDBRANCH  21  22
ENDBRANCH  14  21
ENDBRANCH   8  12
ENDBRANCH   4   6
TORSDOF 11
ENDMDL
MODEL      341
REMARK 921   NORMALIZED FREE ENERGY PREDICTED BY IDOCK:   20.11 KCAL/MOL
REMARK 922        TOTAL FREE ENERGY PREDICTED BY IDOCK:   30.83 KCAL/MOL
REMARK 923 INTER-LIGAND FREE ENERGY PREDICTED BY IDOCK:   27.51 KCAL/MOL
REMARK 924 INTRA-LIGAND FREE ENERGY PREDICTED BY IDOCK:    3.33 KCAL/MOL
REMARK 927      BINDING AFFINITY PREDICTED BY RF-SCORE:    0.00 PKD
ROOT
HETATM    1  N   UNL     1      -9.725  14.431  70.287  1.00  0.00     0.501 N  
HETATM    2  H1  UNL     1      -9.749  14.582  69.278  1.00  0.00     0.000 HD 
HETATM    3  H2  UNL     1      -8.992  14.870  70.845  1.00  0.00     0.000 HD 
HETATM    4  C   UNL     1     -10.652  13.657  70.892  1.00  0.00     3.077 C  
HETATM    5  O   UNL     1     -10.623  13.475  72.109  1.00  0.00     5.650 OA 
ENDROOT
BRANCH   4   6
HETATM    6  C   UNL     1     -11.677  13.041  70.019  1.00  0.00    -0.285 C  
HETATM    7  C   UNL     1     -11.596  13.327  68.707  1.00  0.00    -0.312 C  
HETATM    8  N   UNL     1     -12.441  12.782  67.744  1.00  0.00     0.083 NA 
HETATM    9  C   UNL     1     -12.714  12.084  70.540  1.00  0.00    -0.082 C  
HETATM   10  C   UNL     1     -13.521  12.015  68.196  1.00  0.00     6.817 C  
HETATM   11  C   UNL     1     -13.700  11.663  69.478  1.00  0.00     4.393 C  
BRANCH   8  12
HETATM   12  C   UNL     1     -12.182  12.826  66.288  1.00  0.00    -0.219 C  
HETATM   13  O   UNL     1     -10.785  12.537  66.056  1.00  0.00    -0.254 OA 
HETATM   14  C   UNL     1     -10.067  13.791  66.082  1.00  0.00    -0.307 C  
HETATM   15  H   UNL     1     -12.709  14.752  63.657  1.00  0.00     0.000 HD 
HETATM   16  C   UNL     1     -11.069  14.892  65.745  1.00  0.00    -0.342 C  
HETATM   17  H   UNL     1     -11.292  16.278  64.352  1.00  0.00     0.000 HD 
HETATM   18  C   UNL     1     -12.388  14.153  65.540  1.00  0.00    -0.458 C  
HETATM   19  O   UNL     1     -10.668  15.592  64.561  1.00  0.00    -0.321 OA 
HETATM   20  O   UNL     1     -12.581  13.932  64.120  1.00  0.00    -0.675 OA 
BRANCH  14  21
HETATM   21  C   UNL     1      -9.411  14.004  67.455  1.00  0.00    -0.221 C  
BRANCH  21  22
HETATM   22  O   UNL     1      -8.992  12.768  68.021  1.00  0.00    -0.183 OA 
BRANCH  22  23
HETATM   23  P   UNL     1      -7.439  12.400  67.970  1.00  0.00    -0.143 P  
HETATM   24  O   UNL     1      -6.537  13.116  68.919  1.00  0.00    -0.093 OA 
HETATM   25  O   UNL     1      -7.464  10.839  68.360  1.00  0.00    -0.087 OA 
BRANCH  23  26
HETATM   26  O   UNL     1      -7.008  12.361  66.451  1.00  0.00     0.409 OA 
BRANCH  26  27
HETATM   27  P   UNL     1      -7.714  11.500  65.328  1.00  0.00     1.530 P  
HETATM   28  O   UNL     1      -8.043  12.594  64.197  1.00  0.00     3.758 OA 
HETATM   29  O   UNL     1      -8.960  10.766  65.689  1.00  0.00    -0.178 OA 
BRANCH  27  30
HETATM   30  O   UNL     1      -6.582  10.599  64.634  1.00  0.00    -0.013 OA 
BRANCH  30  31
HETATM   31  C   UNL     1      -6.655  10.273  63.251  1.00  0.00    -0.112 C  
BRANCH  31  32
HETATM   32  C   UNL     1      -7.378   8.959  62.973  1.00  0.00    -0.097 C  
HETATM   33  O   UNL     1      -6.608   7.829  63.430  1.00  0.00    -0.065 OA 
HETATM   34  C   UNL     1      -7.560   6.748  63.450  1.00  0.00    -0.090 C  
HETATM   35  H   UNL     1     -10.608   9.319  63.380  1.00  0.00     0.000 HD 
HETATM   36  C   UNL     1      -8.858   7.363  63.998  1.00  0.00     0.912 C  
HETATM   37  C   UNL     1      -8.711   8.858  63.708  1.00  0.00    -0.022 C  
HETATM   38  H   UNL     1     -10.845   7.220  63.726  1.00  0.00     0.000 HD 
HETATM   39  O   UNL     1     -10.043   6.840  63.388  1.00  0.00     4.749 OA 
HETATM   40  O   UNL     1      -9.778   9.381  62.924  1.00  0.00     0.531 OA 
BRANCH  34  41
HETATM   41  N   UNL     1      -7.064   5.647  64.252  1.00  0.00    -0.051 NA 
HETATM   42  C   UNL     1      -6.883   4.346  63.876  1.00  0.00    -0.044 A  
HETATM   43  N   UNL     1      -6.371   3.620  64.850  1.00  0.00    -0.027 NA 
HETATM   44  C   UNL     1      -6.243   4.492  65.913  1.00  0.00    -0.031 A  
HETATM   45  C   UNL     1      -5.754   4.336  67.220  1.00  0.00    -0.022 A  
HETATM   46  N   UNL     1      -5.217   3.149  67.695  1.00  0.00    -0.012 NA 
HETATM   47  N   UNL     1      -5.810   5.396  68.061  1.00  0.00    -0.016 NA 
HETATM   48  H1  UNL     1      -4.861   3.036  68.645  1.00  0.00     0.000 HD 
HETATM   49  C   UNL     1      -6.292   6.567  67.589  1.00  0.00    -0.043 A  
HETATM   50  H2  UNL     1      -4.468   2.877  67.057  1.00  0.00     0.000 HD 
HETATM   51  N   UNL     1      -6.739   6.853  66.344  1.00  0.00    -0.051 NA 
HETATM   52  C   UNL     1      -6.697   5.754  65.567  1.00  0.00    -0.047 A  
ENDBRANCH  34  41
ENDBRANCH  31  32
ENDBRANCH  30  31
ENDBRANCH  27  30
ENDBRANCH  26  27
ENDBRANCH  23  26
ENDBRANCH  22  23
ENDBRANCH  21  22
ENDBRANCH  14  21
ENDBRANCH   8  12
ENDBRANCH   4   6
TORSDOF 11
ENDMDL
MODEL      342
REMARK 921   NORMALIZED FREE ENERGY PREDICTED BY IDOCK:   28.37 KCAL/MOL
REMARK 922        TOTAL FREE ENERGY PREDICTED BY IDOCK:   44.42 KCAL/MOL
REMARK 923 INTER-LIGAND FREE ENERGY PREDICTED BY IDOCK:   30.37 KCAL/MOL
REMARK 924 INTRA-LIGAND FREE ENERGY PREDICTED BY IDOCK:   14.05 KCAL/MOL
REMARK 927      BINDING AFFINITY PREDICTED BY RF-SCORE:    0.00 PKD
ROOT
HETATM    1  N   UNL     1     -12.825  15.515  63.914  1.00  0.00    -0.375 N  
HETATM    2  H1  UNL     1     -12.196  14.727  63.759  1.00  0.00     0.000 HD 
HETATM    3  H2  UNL     1     -13.110  16.096  63.125  1.00  0.00     0.000 HD 
HETATM    4  C   UNL     1     -13.287  15.798  65.152  1.00  0.00     2.531 C  
HETATM    5  O   UNL     1     -14.047  16.749  65.339  1.00  0.00     7.009 OA 
ENDROOT
BRANCH   4   6
HETATM    6  C   UNL     1     -12.823  14.921  66.251  1.00  0.00     0.906 C  
HETATM    7  C   UNL     1     -11.690  15.293  66.876  1.00  0.00     0.014 C  
HETATM    8  N   UNL     1     -11.153  14.617  67.967  1.00  0.00    -0.270 NA 
HETATM    9  C   UNL     1     -13.601  13.719  66.712  1.00  0.00     4.421 C  
HETATM   10  C   UNL     1     -11.749  13.404  68.330  1.00  0.00    -0.355 C  
HETATM   11  C   UNL     1     -12.881  12.937  67.782  1.00  0.00     1.989 C  
BRANCH   8  12
HETATM   12  C   UNL     1     -10.107  15.170  68.856  1.00  0.00    -0.238 C  
HETATM   13  O   UNL     1      -9.779  14.182  69.858  1.00  0.00     0.667 OA 
HETATM   14  C   UNL     1     -10.655  14.395  70.987  1.00  0.00     1.400 C  
HETATM   15  H   UNL     1      -9.423  17.878  70.619  1.00  0.00     0.000 HD 
HETATM   16  C   UNL     1     -11.113  15.850  70.935  1.00  0.00    -0.279 C  
HETATM   17  H   UNL     1     -10.996  17.453  72.088  1.00  0.00     0.000 HD 
HETATM   18  C   UNL     1     -10.431  16.417  69.694  1.00  0.00    -0.278 C  
HETATM   19  O   UNL     1     -10.711  16.547  72.121  1.00  0.00     1.504 OA 
HETATM   20  O   UNL     1      -9.223  17.107  70.100  1.00  0.00     1.360 OA 
BRANCH  14  21
HETATM   21  C   UNL     1     -11.836  13.413  70.941  1.00  0.00     0.139 C  
BRANCH  21  22
HETATM   22  O   UNL     1     -11.424  12.097  71.291  1.00  0.00     1.331 OA 
BRANCH  22  23
HETATM   23  P   UNL     1     -10.671  11.221  70.189  1.00  0.00     1.091 P  
HETATM   24  O   UNL     1      -9.355  11.725  69.700  1.00  0.00     0.884 OA 
HETATM   25  O   UNL     1     -10.434   9.841  70.980  1.00  0.00    -0.290 OA 
BRANCH  23  26
HETATM   26  O   UNL     1     -11.738  10.807  69.099  1.00  0.00    -0.292 OA 
BRANCH  26  27
HETATM   27  P   UNL     1     -11.693   9.477  68.244  1.00  0.00     2.153 P  
HETATM   28  O   UNL     1     -12.554   9.863  66.943  1.00  0.00     5.737 OA 
HETATM   29  O   UNL     1     -12.242   8.233  68.854  1.00  0.00     2.401 OA 
BRANCH  27  30
HETATM   30  O   UNL     1     -10.206   9.336  67.659  1.00  0.00    -0.200 OA 
BRANCH  30  31
HETATM   31  C   UNL     1      -9.185   8.688  68.409  1.00  0.00    -0.138 C  
BRANCH  31  32
HETATM   32  C   UNL     1      -9.354   8.833  69.918  1.00  0.00    -0.162 C  
HETATM   33  O   UNL     1     -10.125   7.747  70.467  1.00  0.00    -0.191 OA 
HETATM   34  C   UNL     1      -9.869   7.822  71.883  1.00  0.00    -0.170 C  
HETATM   35  H   UNL     1      -6.639  10.077  71.262  1.00  0.00     0.000 HD 
HETATM   36  C   UNL     1      -8.372   8.151  72.005  1.00  0.00    -0.152 C  
HETATM   37  C   UNL     1      -8.024   8.797  70.662  1.00  0.00    -0.122 C  
HETATM   38  H   UNL     1      -7.139   9.236  73.165  1.00  0.00     0.000 HD 
HETATM   39  O   UNL     1      -8.064   9.032  73.089  1.00  0.00    -0.209 OA 
HETATM   40  O   UNL     1      -7.468  10.100  70.799  1.00  0.00    -0.242 OA 
BRANCH  34  41
HETATM   41  N   UNL     1     -10.238   6.582  72.535  1.00  0.00    -0.181 NA 
HETATM   42  C   UNL     1     -10.720   6.408  73.802  1.00  0.00    -0.165 A  
HETATM   43  N   UNL     1     -10.995   5.143  74.053  1.00  0.00    -0.257 NA 
HETATM   44  C   UNL     1     -10.646   4.468  72.900  1.00  0.00    -0.207 A  
HETATM   45  C   UNL     1     -10.710   3.114  72.532  1.00  0.00     0.108 A  
HETATM   46  N   UNL     1     -11.236   2.126  73.351  1.00  0.00    -0.194 NA 
HETATM   47  N   UNL     1     -10.232   2.753  71.317  1.00  0.00     0.229 NA 
HETATM   48  H1  UNL     1     -11.282   1.143  73.083  1.00  0.00     0.000 HD 
HETATM   49  C   UNL     1      -9.760   3.719  70.498  1.00  0.00    -0.160 A  
HETATM   50  H2  UNL     1     -12.180   2.416  73.608  1.00  0.00     0.000 HD 
HETATM   51  N   UNL     1      -9.697   5.052  70.718  1.00  0.00    -0.182 NA 
HETATM   52  C   UNL     1     -10.146   5.346  71.952  1.00  0.00    -0.193 A  
ENDBRANCH  34  41
ENDBRANCH  31  32
ENDBRANCH  30  31
ENDBRANCH  27  30
ENDBRANCH  26  27
ENDBRANCH  23  26
ENDBRANCH  22  23
ENDBRANCH  21  22
ENDBRANCH  14  21
ENDBRANCH   8  12
ENDBRANCH   4   6
TORSDOF 11
ENDMDL
MODEL      343
REMARK 921   NORMALIZED FREE ENERGY PREDICTED BY IDOCK:   30.39 KCAL/MOL
REMARK 922        TOTAL FREE ENERGY PREDICTED BY IDOCK:   47.73 KCAL/MOL
REMARK 923 INTER-LIGAND FREE ENERGY PREDICTED BY IDOCK:   33.14 KCAL/MOL
REMARK 924 INTRA-LIGAND FREE ENERGY PREDICTED BY IDOCK:   14.59 KCAL/MOL
REMARK 927      BINDING AFFINITY PREDICTED BY RF-SCORE:    0.00 PKD
ROOT
HETATM    1  N   UNL     1     -12.835  15.553  63.951  1.00  0.00    -0.375 N  
HETATM    2  H1  UNL     1     -12.264  14.713  63.863  1.00  0.00     0.000 HD 
HETATM    3  H2  UNL     1     -13.073  16.091  63.117  1.00  0.00     0.000 HD 
HETATM    4  C   UNL     1     -13.282  15.962  65.159  1.00  0.00     2.637 C  
HETATM    5  O   UNL     1     -13.972  16.977  65.264  1.00  0.00     8.047 OA 
ENDROOT
BRANCH   4   6
HETATM    6  C   UNL     1     -12.889  15.141  66.326  1.00  0.00     1.364 C  
HETATM    7  C   UNL     1     -11.710  15.445  66.901  1.00  0.00     0.114 C  
HETATM    8  N   UNL     1     -11.223  14.813  68.042  1.00  0.00    -0.286 NA 
HETATM    9  C   UNL     1     -13.778  14.074  66.902  1.00  0.00     5.551 C  
HETATM   10  C   UNL     1     -11.935  13.706  68.519  1.00  0.00    -0.361 C  
HETATM   11  C   UNL     1     -13.121  13.317  68.029  1.00  0.00     2.960 C  
BRANCH   8  12
HETATM   12  C   UNL     1     -10.106  15.328  68.865  1.00  0.00    -0.225 C  
HETATM   13  O   UNL     1      -9.097  14.299  68.975  1.00  0.00    -0.086 OA 
HETATM   14  C   UNL     1      -9.407  13.505  70.142  1.00  0.00     3.181 C  
HETATM   15  H   UNL     1      -9.542  16.853  71.739  1.00  0.00     0.000 HD 
HETATM   16  C   UNL     1     -10.245  14.377  71.073  1.00  0.00     2.211 C  
HETATM   17  H   UNL     1     -10.107  15.087  72.914  1.00  0.00     0.000 HD 
HETATM   18  C   UNL     1     -10.378  15.704  70.330  1.00  0.00    -0.087 C  
HETATM   19  O   UNL     1      -9.585  14.545  72.334  1.00  0.00     4.460 OA 
HETATM   20  O   UNL     1      -9.374  16.621  70.833  1.00  0.00     3.008 OA 
BRANCH  14  21
HETATM   21  C   UNL     1     -10.142  12.219  69.734  1.00  0.00     1.475 C  
BRANCH  21  22
HETATM   22  O   UNL     1      -9.285  11.345  69.009  1.00  0.00    -0.079 OA 
BRANCH  22  23
HETATM   23  P   UNL     1      -8.947  11.703  67.490  1.00  0.00    -0.178 P  
HETATM   24  O   UNL     1      -8.092  12.901  67.246  1.00  0.00    -0.176 OA 
HETATM   25  O   UNL     1      -8.144  10.391  67.020  1.00  0.00    -0.114 OA 
BRANCH  23  26
HETATM   26  O   UNL     1     -10.290  11.591  66.664  1.00  0.00    -0.213 OA 
BRANCH  26  27
HETATM   27  P   UNL     1     -10.385  11.193  65.136  1.00  0.00    -0.275 P  
HETATM   28  O   UNL     1     -11.743  11.912  64.667  1.00  0.00    -0.308 OA 
HETATM   29  O   UNL     1     -10.444   9.744  64.792  1.00  0.00     0.368 OA 
BRANCH  27  30
HETATM   30  O   UNL     1      -9.254  12.021  64.356  1.00  0.00     0.183 OA 
BRANCH  30  31
HETATM   31  C   UNL     1      -7.912  11.551  64.302  1.00  0.00     1.476 C  
BRANCH  31  32
HETATM   32  C   UNL     1      -7.503  10.736  65.525  1.00  0.00     0.007 C  
HETATM   33  O   UNL     1      -7.814   9.340  65.353  1.00  0.00    -0.097 OA 
HETATM   34  C   UNL     1      -7.044   8.686  66.380  1.00  0.00    -0.079 C  
HETATM   35  H   UNL     1      -4.720  11.899  66.800  1.00  0.00     0.000 HD 
HETATM   36  C   UNL     1      -5.691   9.417  66.399  1.00  0.00    -0.053 C  
HETATM   37  C   UNL     1      -6.002  10.784  65.784  1.00  0.00    -0.126 C  
HETATM   38  H   UNL     1      -4.299  10.014  67.720  1.00  0.00     0.000 HD 
HETATM   39  O   UNL     1      -5.134   9.562  67.708  1.00  0.00    -0.036 OA 
HETATM   40  O   UNL     1      -5.655  11.869  66.638  1.00  0.00    -0.261 OA 
BRANCH  34  41
HETATM   41  N   UNL     1      -6.925   7.268  66.105  1.00  0.00    -0.064 NA 
HETATM   42  C   UNL     1      -6.864   6.238  67.001  1.00  0.00    -0.062 A  
HETATM   43  N   UNL     1      -6.804   5.067  66.399  1.00  0.00    -0.060 NA 
HETATM   44  C   UNL     1      -6.797   5.360  65.050  1.00  0.00    -0.049 A  
HETATM   45  C   UNL     1      -6.758   4.556  63.899  1.00  0.00    -0.043 A  
HETATM   46  N   UNL     1      -6.764   3.169  63.940  1.00  0.00    -0.034 NA 
HETATM   47  N   UNL     1      -6.711   5.163  62.690  1.00  0.00    -0.026 NA 
HETATM   48  H1  UNL     1      -6.736   2.585  63.104  1.00  0.00     0.000 HD 
HETATM   49  C   UNL     1      -6.751   6.512  62.645  1.00  0.00    -0.038 A  
HETATM   50  H2  UNL     1      -7.580   2.884  64.482  1.00  0.00     0.000 HD 
HETATM   51  N   UNL     1      -6.842   7.387  63.673  1.00  0.00    -0.052 NA 
HETATM   52  C   UNL     1      -6.844   6.730  64.848  1.00  0.00    -0.050 A  
ENDBRANCH  34  41
ENDBRANCH  31  32
ENDBRANCH  30  31
ENDBRANCH  27  30
ENDBRANCH  26  27
ENDBRANCH  23  26
ENDBRANCH  22  23
ENDBRANCH  21  22
ENDBRANCH  14  21
ENDBRANCH   8  12
ENDBRANCH   4   6
TORSDOF 11
ENDMDL
MODEL      344
REMARK 921   NORMALIZED FREE ENERGY PREDICTED BY IDOCK:   32.28 KCAL/MOL
REMARK 922        TOTAL FREE ENERGY PREDICTED BY IDOCK:   50.83 KCAL/MOL
REMARK 923 INTER-LIGAND FREE ENERGY PREDICTED BY IDOCK:   13.96 KCAL/MOL
REMARK 924 INTRA-LIGAND FREE ENERGY PREDICTED BY IDOCK:   36.87 KCAL/MOL
REMARK 927      BINDING AFFINITY PREDICTED BY RF-SCORE:    0.00 PKD
ROOT
HETATM    1  N   UNL     1     -13.133  15.599  64.460  1.00  0.00     0.489 N  
HETATM    2  H1  UNL     1     -12.538  15.338  63.673  1.00  0.00     0.000 HD 
HETATM    3  H2  UNL     1     -13.817  16.347  64.348  1.00  0.00     0.000 HD 
HETATM    4  C   UNL     1     -13.025  14.964  65.648  1.00  0.00     0.535 C  
HETATM    5  O   UNL     1     -13.743  15.279  66.597  1.00  0.00     3.607 OA 
ENDROOT
BRANCH   4   6
HETATM    6  C   UNL     1     -12.001  13.898  65.743  1.00  0.00    -0.419 C  
HETATM    7  C   UNL     1     -11.823  13.346  66.957  1.00  0.00    -0.394 C  
HETATM    8  N   UNL     1     -10.947  12.292  67.204  1.00  0.00    -0.250 NA 
HETATM    9  C   UNL     1     -11.247  13.392  64.544  1.00  0.00    -0.393 C  
HETATM   10  C   UNL     1     -10.106  11.895  66.158  1.00  0.00    -0.228 C  
HETATM   11  C   UNL     1     -10.198  12.371  64.908  1.00  0.00    -0.301 C  
BRANCH   8  12
HETATM   12  C   UNL     1     -10.962  11.470  68.434  1.00  0.00    -0.221 C  
HETATM   13  O   UNL     1      -9.995  10.405  68.293  1.00  0.00    -0.146 OA 
HETATM   14  C   UNL     1     -10.672   9.276  67.697  1.00  0.00    -0.209 C  
HETATM   15  H   UNL     1     -13.074   9.927  70.451  1.00  0.00     0.000 HD 
HETATM   16  C   UNL     1     -12.159   9.425  68.006  1.00  0.00     3.493 C  
HETATM   17  H   UNL     1     -13.557   8.396  68.955  1.00  0.00     0.000 HD 
HETATM   18  C   UNL     1     -12.250  10.719  68.808  1.00  0.00     0.193 C  
HETATM   19  O   UNL     1     -12.631   8.303  68.763  1.00  0.00     4.126 OA 
HETATM   20  O   UNL     1     -12.277  10.392  70.220  1.00  0.00    -0.284 OA 
BRANCH  14  21
HETATM   21  C   UNL     1     -10.396   9.223  66.186  1.00  0.00    -0.048 C  
BRANCH  21  22
HETATM   22  O   UNL     1      -9.374  10.142  65.818  1.00  0.00    -0.165 OA 
BRANCH  22  23
HETATM   23  P   UNL     1      -8.809  11.133  66.935  1.00  0.00    -0.166 P  
HETATM   24  O   UNL     1      -9.745  12.166  67.466  1.00  0.00    -0.181 OA 
HETATM   25  O   UNL     1      -8.443  10.109  68.120  1.00  0.00    -0.116 OA 
BRANCH  23  26
HETATM   26  O   UNL     1      -7.383  11.623  66.460  1.00  0.00    -0.077 OA 
BRANCH  26  27
HETATM   27  P   UNL     1      -6.254  12.190  67.411  1.00  0.00    -0.143 P  
HETATM   28  O   UNL     1      -5.127  12.676  66.374  1.00  0.00     0.203 OA 
HETATM   29  O   UNL     1      -5.647  11.262  68.408  1.00  0.00    -0.043 OA 
BRANCH  27  30
HETATM   30  O   UNL     1      -6.795  13.570  68.025  1.00  0.00    -0.101 OA 
BRANCH  30  31
HETATM   31  C   UNL     1      -8.031  14.127  67.590  1.00  0.00    -0.178 C  
BRANCH  31  32
HETATM   32  C   UNL     1      -8.293  15.526  68.138  1.00  0.00    -0.145 C  
HETATM   33  O   UNL     1      -9.584  15.608  68.773  1.00  0.00    -0.196 OA 
HETATM   34  C   UNL     1      -9.513  16.822  69.545  1.00  0.00     0.163 C  
HETATM   35  H   UNL     1      -5.531  16.830  69.321  1.00  0.00     0.000 HD 
HETATM   36  C   UNL     1      -8.098  16.837  70.146  1.00  0.00     2.004 C  
HETATM   37  C   UNL     1      -7.291  15.930  69.214  1.00  0.00    -0.221 C  
HETATM   38  H   UNL     1      -6.642  18.152  70.585  1.00  0.00     0.000 HD 
HETATM   39  O   UNL     1      -7.516  18.142  70.214  1.00  0.00     1.349 OA 
HETATM   40  O   UNL     1      -6.156  16.578  68.651  1.00  0.00    -0.129 OA 
BRANCH  34  41
HETATM   41  N   UNL     1     -10.560  16.853  70.545  1.00  0.00     0.371 NA 
HETATM   42  C   UNL     1     -10.827  17.837  71.455  1.00  0.00     2.560 A  
HETATM   43  N   UNL     1     -11.888  17.555  72.187  1.00  0.00     1.831 NA 
HETATM   44  C   UNL     1     -12.306  16.317  71.743  1.00  0.00    -0.177 A  
HETATM   45  C   UNL     1     -13.377  15.485  72.108  1.00  0.00    -0.467 A  
HETATM   46  N   UNL     1     -14.325  15.838  73.057  1.00  0.00    -0.231 NA 
HETATM   47  N   UNL     1     -13.491  14.278  71.505  1.00  0.00    -0.346 NA 
HETATM   48  H1  UNL     1     -15.103  15.234  73.322  1.00  0.00     0.000 HD 
HETATM   49  C   UNL     1     -12.596  13.949  70.549  1.00  0.00    -0.312 A  
HETATM   50  H2  UNL     1     -14.720  16.735  72.773  1.00  0.00     0.000 HD 
HETATM   51  N   UNL     1     -11.561  14.682  70.077  1.00  0.00    -0.272 NA 
HETATM   52  C   UNL     1     -11.474  15.850  70.739  1.00  0.00    -0.407 A  
ENDBRANCH  34  41
ENDBRANCH  31  32
ENDBRANCH  30  31
ENDBRANCH  27  30
ENDBRANCH  26  27
ENDBRANCH  23  26
ENDBRANCH  22  23
ENDBRANCH  21  22
ENDBRANCH  14  21
ENDBRANCH   8  12
ENDBRANCH   4   6
TORSDOF 11
ENDMDL
MODEL      345
REMARK 921   NORMALIZED FREE ENERGY PREDICTED BY IDOCK:   33.45 KCAL/MOL
REMARK 922        TOTAL FREE ENERGY PREDICTED BY IDOCK:   52.76 KCAL/MOL
REMARK 923 INTER-LIGAND FREE ENERGY PREDICTED BY IDOCK:   19.65 KCAL/MOL
REMARK 924 INTRA-LIGAND FREE ENERGY PREDICTED BY IDOCK:   33.11 KCAL/MOL
REMARK 927      BINDING AFFINITY PREDICTED BY RF-SCORE:    0.00 PKD
ROOT
HETATM    1  N   UNL     1      -7.575  10.708  62.593  1.00  0.00    -0.285 N  
HETATM    2  H1  UNL     1      -6.646  11.110  62.465  1.00  0.00     0.000 HD 
HETATM    3  H2  UNL     1      -8.026  10.221  61.818  1.00  0.00     0.000 HD 
HETATM    4  C   UNL     1      -8.215  10.814  63.778  1.00  0.00     0.101 C  
HETATM    5  O   UNL     1      -9.337  10.330  63.933  1.00  0.00    -0.249 OA 
ENDROOT
BRANCH   4   6
HETATM    6  C   UNL     1      -7.508  11.545  64.854  1.00  0.00     1.580 C  
HETATM    7  C   UNL     1      -7.561  11.000  66.083  1.00  0.00    -0.084 C  
HETATM    8  N   UNL     1      -6.900  11.526  67.190  1.00  0.00    -0.127 NA 
HETATM    9  C   UNL     1      -6.703  12.789  64.593  1.00  0.00    10.217 C  
HETATM   10  C   UNL     1      -6.273  12.767  67.035  1.00  0.00     0.306 C  
HETATM   11  C   UNL     1      -6.154  13.400  65.858  1.00  0.00     6.343 C  
BRANCH   8  12
HETATM   12  C   UNL     1      -6.683  10.791  68.456  1.00  0.00    -0.057 C  
HETATM   13  O   UNL     1      -7.897  10.847  69.239  1.00  0.00    -0.144 OA 
HETATM   14  C   UNL     1      -7.825  12.026  70.073  1.00  0.00     2.142 C  
HETATM   15  H   UNL     1      -4.523  10.569  70.944  1.00  0.00     0.000 HD 
HETATM   16  C   UNL     1      -6.347  12.371  70.242  1.00  0.00     0.145 C  
HETATM   17  H   UNL     1      -5.057  12.547  71.730  1.00  0.00     0.000 HD 
HETATM   18  C   UNL     1      -5.615  11.302  69.436  1.00  0.00    -0.046 C  
HETATM   19  O   UNL     1      -5.976  12.332  71.625  1.00  0.00     0.097 OA 
HETATM   20  O   UNL     1      -5.183  10.253  70.338  1.00  0.00    -0.041 OA 
BRANCH  14  21
HETATM   21  C   UNL     1      -8.621  13.178  69.441  1.00  0.00     1.148 C  
BRANCH  21  22
HETATM   22  O   UNL     1      -9.973  12.801  69.208  1.00  0.00     0.299 OA 
BRANCH  22  23
HETATM   23  P   UNL     1     -11.072  13.953  69.095  1.00  0.00    -0.184 P  
HETATM   24  O   UNL     1     -12.168  13.952  70.107  1.00  0.00    -0.324 OA 
HETATM   25  O   UNL     1     -10.178  15.274  69.303  1.00  0.00    -0.226 OA 
BRANCH  23  26
HETATM   26  O   UNL     1     -11.490  14.065  67.575  1.00  0.00    -0.307 OA 
BRANCH  26  27
HETATM   27  P   UNL     1     -10.878  13.203  66.399  1.00  0.00    -0.295 P  
HETATM   28  O   UNL     1      -9.365  13.738  66.317  1.00  0.00    -0.239 OA 
HETATM   29  O   UNL     1     -11.515  13.300  65.055  1.00  0.00    -0.296 OA 
BRANCH  27  30
HETATM   30  O   UNL     1     -10.698  11.707  66.949  1.00  0.00    -0.233 OA 
BRANCH  30  31
HETATM   31  C   UNL     1     -10.314  10.650  66.076  1.00  0.00    -0.225 C  
BRANCH  31  32
HETATM   32  C   UNL     1      -9.218   9.756  66.649  1.00  0.00    -0.150 C  
HETATM   33  O   UNL     1      -9.728   8.452  66.989  1.00  0.00    -0.171 OA 
HETATM   34  C   UNL     1      -8.544   7.646  67.138  1.00  0.00    -0.121 C  
HETATM   35  H   UNL     1      -6.368  10.323  65.137  1.00  0.00     0.000 HD 
HETATM   36  C   UNL     1      -7.607   8.091  66.004  1.00  0.00    -0.085 C  
HETATM   37  C   UNL     1      -8.093   9.499  65.653  1.00  0.00    -0.112 C  
HETATM   38  H   UNL     1      -5.645   8.381  65.672  1.00  0.00     0.000 HD 
HETATM   39  O   UNL     1      -6.225   8.106  66.373  1.00  0.00    -0.045 OA 
HETATM   40  O   UNL     1      -7.070  10.483  65.758  1.00  0.00    -0.131 OA 
BRANCH  34  41
HETATM   41  N   UNL     1      -8.876   6.237  67.088  1.00  0.00    -0.109 NA 
HETATM   42  C   UNL     1      -8.688   5.363  66.054  1.00  0.00    -0.137 A  
HETATM   43  N   UNL     1      -9.066   4.140  66.370  1.00  0.00    -0.127 NA 
HETATM   44  C   UNL     1      -9.547   4.239  67.660  1.00  0.00    -0.165 A  
HETATM   45  C   UNL     1     -10.079   3.295  68.554  1.00  0.00     0.814 A  
HETATM   46  N   UNL     1     -10.176   1.942  68.264  1.00  0.00     0.526 NA 
HETATM   47  N   UNL     1     -10.519   3.726  69.760  1.00  0.00     1.138 NA 
HETATM   48  H1  UNL     1     -10.562   1.257  68.914  1.00  0.00     0.000 HD 
HETATM   49  C   UNL     1     -10.385   5.035  70.064  1.00  0.00    -0.233 A  
HETATM   50  H2  UNL     1      -9.244   1.620  68.001  1.00  0.00     0.000 HD 
HETATM   51  N   UNL     1      -9.845   6.023  69.313  1.00  0.00    -0.147 NA 
HETATM   52  C   UNL     1      -9.463   5.545  68.115  1.00  0.00    -0.114 A  
ENDBRANCH  34  41
ENDBRANCH  31  32
ENDBRANCH  30  31
ENDBRANCH  27  30
ENDBRANCH  26  27
ENDBRANCH  23  26
ENDBRANCH  22  23
ENDBRANCH  21  22
ENDBRANCH  14  21
ENDBRANCH   8  12
ENDBRANCH   4   6
TORSDOF 11
ENDMDL
MODEL      346
REMARK 921   NORMALIZED FREE ENERGY PREDICTED BY IDOCK:   35.63 KCAL/MOL
REMARK 922        TOTAL FREE ENERGY PREDICTED BY IDOCK:   56.34 KCAL/MOL
REMARK 923 INTER-LIGAND FREE ENERGY PREDICTED BY IDOCK:   33.73 KCAL/MOL
REMARK 924 INTRA-LIGAND FREE ENERGY PREDICTED BY IDOCK:   22.62 KCAL/MOL
REMARK 927      BINDING AFFINITY PREDICTED BY RF-SCORE:    0.00 PKD
ROOT
HETATM    1  N   UNL     1     -10.969  15.054  71.331  1.00  0.00    -0.557 N  
HETATM    2  H1  UNL     1     -10.661  14.343  70.668  1.00  0.00     0.000 HD 
HETATM    3  H2  UNL     1     -11.886  14.971  71.771  1.00  0.00     0.000 HD 
HETATM    4  C   UNL     1     -10.177  16.107  71.632  1.00  0.00     2.664 C  
HETATM    5  O   UNL     1     -10.549  16.966  72.432  1.00  0.00     2.701 OA 
ENDROOT
BRANCH   4   6
HETATM    6  C   UNL     1      -8.866  16.171  70.946  1.00  0.00     3.612 C  
HETATM    7  C   UNL     1      -8.048  15.117  71.120  1.00  0.00     2.983 C  
HETATM    8  N   UNL     1      -6.809  14.991  70.496  1.00  0.00     0.110 NA 
HETATM    9  C   UNL     1      -8.483  17.307  70.038  1.00  0.00     2.048 C  
HETATM   10  C   UNL     1      -6.338  16.092  69.772  1.00  0.00    -0.175 C  
HETATM   11  C   UNL     1      -7.067  17.191  69.531  1.00  0.00     0.028 C  
BRANCH   8  12
HETATM   12  C   UNL     1      -6.043  13.728  70.417  1.00  0.00    -0.128 C  
HETATM   13  O   UNL     1      -5.243  13.744  69.214  1.00  0.00    -0.081 OA 
HETATM   14  C   UNL     1      -6.037  13.167  68.153  1.00  0.00    -0.103 C  
HETATM   15  H   UNL     1      -6.469  10.461  70.658  1.00  0.00     0.000 HD 
HETATM   16  C   UNL     1      -7.083  12.270  68.808  1.00  0.00    -0.107 C  
HETATM   17  H   UNL     1      -7.586  10.357  68.771  1.00  0.00     0.000 HD 
HETATM   18  C   UNL     1      -6.811  12.401  70.303  1.00  0.00     0.985 C  
HETATM   19  O   UNL     1      -6.934  10.915  68.363  1.00  0.00    -0.066 OA 
HETATM   20  O   UNL     1      -5.994  11.282  70.728  1.00  0.00    -0.317 OA 
BRANCH  14  21
HETATM   21  C   UNL     1      -6.674  14.274  67.299  1.00  0.00     0.246 C  
BRANCH  21  22
HETATM   22  O   UNL     1      -8.015  13.948  66.952  1.00  0.00    -0.025 OA 
BRANCH  22  23
HETATM   23  P   UNL     1      -8.657  14.648  65.669  1.00  0.00     2.836 P  
HETATM   24  O   UNL     1      -8.102  14.269  64.337  1.00  0.00     7.731 OA 
HETATM   25  O   UNL     1     -10.182  14.144  65.756  1.00  0.00    -0.305 OA 
BRANCH  23  26
HETATM   26  O   UNL     1      -8.793  16.191  65.985  1.00  0.00    -0.332 OA 
BRANCH  26  27
HETATM   27  P   UNL     1      -7.596  17.144  66.383  1.00  0.00    -0.292 P  
HETATM   28  O   UNL     1      -7.859  18.443  65.473  1.00  0.00    -0.446 OA 
HETATM   29  O   UNL     1      -6.206  16.654  66.160  1.00  0.00    -0.066 OA 
BRANCH  27  30
HETATM   30  O   UNL     1      -7.887  17.682  67.866  1.00  0.00    -0.212 OA 
BRANCH  30  31
HETATM   31  C   UNL     1      -8.953  18.591  68.117  1.00  0.00    -0.306 C  
BRANCH  31  32
HETATM   32  C   UNL     1     -10.243  18.231  67.387  1.00  0.00    -0.371 C  
HETATM   33  O   UNL     1     -10.193  16.890  66.862  1.00  0.00    -0.284 OA 
HETATM   34  C   UNL     1     -11.568  16.584  66.562  1.00  0.00     1.019 C  
HETATM   35  H   UNL     1     -12.826  19.559  68.900  1.00  0.00     0.000 HD 
HETATM   36  C   UNL     1     -12.377  17.173  67.729  1.00  0.00     2.773 C  
HETATM   37  C   UNL     1     -11.461  18.256  68.304  1.00  0.00     1.368 C  
HETATM   38  H   UNL     1     -14.135  18.092  68.054  1.00  0.00     0.000 HD 
HETATM   39  O   UNL     1     -13.635  17.728  67.334  1.00  0.00     7.017 OA 
HETATM   40  O   UNL     1     -12.068  19.543  68.328  1.00  0.00     2.395 OA 
BRANCH  34  41
HETATM   41  N   UNL     1     -11.750  15.156  66.402  1.00  0.00    -0.114 NA 
HETATM   42  C   UNL     1     -11.969  14.458  65.247  1.00  0.00    -0.382 A  
HETATM   43  N   UNL     1     -12.044  13.160  65.464  1.00  0.00    -0.415 NA 
HETATM   44  C   UNL     1     -11.894  13.019  66.829  1.00  0.00    -0.388 A  
HETATM   45  C   UNL     1     -11.868  11.898  67.675  1.00  0.00    -0.195 A  
HETATM   46  N   UNL     1     -11.957  10.593  67.211  1.00  0.00     0.159 NA 
HETATM   47  N   UNL     1     -11.751  12.098  69.009  1.00  0.00    -0.306 NA 
HETATM   48  H1  UNL     1     -11.937   9.779  67.826  1.00  0.00     0.000 HD 
HETATM   49  C   UNL     1     -11.619  13.365  69.460  1.00  0.00    -0.290 A  
HETATM   50  H2  UNL     1     -11.220  10.466  66.516  1.00  0.00     0.000 HD 
HETATM   51  N   UNL     1     -11.576  14.513  68.745  1.00  0.00    -0.294 NA 
HETATM   52  C   UNL     1     -11.737  14.255  67.434  1.00  0.00    -0.394 A  
ENDBRANCH  34  41
ENDBRANCH  31  32
ENDBRANCH  30  31
ENDBRANCH  27  30
ENDBRANCH  26  27
ENDBRANCH  23  26
ENDBRANCH  22  23
ENDBRANCH  21  22
ENDBRANCH  14  21
ENDBRANCH   8  12
ENDBRANCH   4   6
TORSDOF 11
ENDMDL
MODEL      347
REMARK 921   NORMALIZED FREE ENERGY PREDICTED BY IDOCK:   42.64 KCAL/MOL
REMARK 922        TOTAL FREE ENERGY PREDICTED BY IDOCK:   67.85 KCAL/MOL
REMARK 923 INTER-LIGAND FREE ENERGY PREDICTED BY IDOCK:   18.80 KCAL/MOL
REMARK 924 INTRA-LIGAND FREE ENERGY PREDICTED BY IDOCK:   49.06 KCAL/MOL
REMARK 927      BINDING AFFINITY PREDICTED BY RF-SCORE:    0.00 PKD
ROOT
HETATM    1  N   UNL     1      -5.845  13.417  66.810  1.00  0.00     0.876 N  
HETATM    2  H1  UNL     1      -5.751  13.962  67.668  1.00  0.00     0.000 HD 
HETATM    3  H2  UNL     1      -5.041  13.306  66.192  1.00  0.00     0.000 HD 
HETATM    4  C   UNL     1      -7.023  12.842  66.482  1.00  0.00     1.292 C  
HETATM    5  O   UNL     1      -7.137  12.185  65.447  1.00  0.00     1.980 OA 
ENDROOT
BRANCH   4   6
HETATM    6  C   UNL     1      -8.151  13.056  67.417  1.00  0.00    -0.180 C  
HETATM    7  C   UNL     1      -9.370  12.695  66.977  1.00  0.00    -0.220 C  
HETATM    8  N   UNL     1     -10.525  12.771  67.752  1.00  0.00    -0.219 NA 
HETATM    9  C   UNL     1      -7.956  13.575  68.816  1.00  0.00    -0.002 C  
HETATM   10  C   UNL     1     -10.422  13.398  68.999  1.00  0.00    -0.031 C  
HETATM   11  C   UNL     1      -9.261  13.792  69.541  1.00  0.00     1.000 C  
BRANCH   8  12
HETATM   12  C   UNL     1     -11.799  12.099  67.414  1.00  0.00    -0.227 C  
HETATM   13  O   UNL     1     -12.812  12.526  68.353  1.00  0.00     0.843 OA 
HETATM   14  C   UNL     1     -12.786  11.610  69.471  1.00  0.00     0.453 C  
HETATM   15  H   UNL     1     -13.006   9.099  66.745  1.00  0.00     0.000 HD 
HETATM   16  C   UNL     1     -12.182  10.301  68.969  1.00  0.00     0.509 C  
HETATM   17  H   UNL     1     -12.738   8.409  68.812  1.00  0.00     0.000 HD 
HETATM   18  C   UNL     1     -11.873  10.566  67.499  1.00  0.00     0.996 C  
HETATM   19  O   UNL     1     -13.115   9.224  69.124  1.00  0.00     3.111 OA 
HETATM   20  O   UNL     1     -12.960  10.047  66.693  1.00  0.00     8.875 OA 
BRANCH  14  21
HETATM   21  C   UNL     1     -11.983  12.210  70.636  1.00  0.00    -0.137 C  
BRANCH  21  22
HETATM   22  O   UNL     1     -10.657  11.696  70.665  1.00  0.00     1.690 OA 
BRANCH  22  23
HETATM   23  P   UNL     1     -10.046  11.099  69.316  1.00  0.00     0.156 P  
HETATM   24  O   UNL     1     -10.785   9.975  68.672  1.00  0.00    -0.209 OA 
HETATM   25  O   UNL     1     -10.101  12.379  68.343  1.00  0.00    -0.219 OA 
BRANCH  23  26
HETATM   26  O   UNL     1      -8.493  10.912  69.539  1.00  0.00     0.001 OA 
BRANCH  26  27
HETATM   27  P   UNL     1      -7.835   9.809  70.462  1.00  0.00     0.294 P  
HETATM   28  O   UNL     1      -9.044   9.392  71.435  1.00  0.00    -0.285 OA 
HETATM   29  O   UNL     1      -6.649  10.195  71.279  1.00  0.00    -0.326 OA 
BRANCH  27  30
HETATM   30  O   UNL     1      -7.630   8.495  69.564  1.00  0.00    -0.085 OA 
BRANCH  30  31
HETATM   31  C   UNL     1      -8.706   7.955  68.805  1.00  0.00    -0.128 C  
BRANCH  31  32
HETATM   32  C   UNL     1      -8.582   6.455  68.557  1.00  0.00    -0.122 C  
HETATM   33  O   UNL     1      -7.852   5.806  69.616  1.00  0.00    -0.092 OA 
HETATM   34  C   UNL     1      -8.152   4.409  69.438  1.00  0.00    -0.060 C  
HETATM   35  H   UNL     1     -11.314   5.292  67.174  1.00  0.00     0.000 HD 
HETATM   36  C   UNL     1      -9.645   4.360  69.075  1.00  0.00    -0.174 C  
HETATM   37  C   UNL     1      -9.937   5.755  68.518  1.00  0.00    -0.154 C  
HETATM   38  H   UNL     1     -10.892   3.320  67.889  1.00  0.00     0.000 HD 
HETATM   39  O   UNL     1      -9.970   3.350  68.114  1.00  0.00     0.058 OA 
HETATM   40  O   UNL     1     -10.471   5.728  67.199  1.00  0.00    -0.215 OA 
BRANCH  34  41
HETATM   41  N   UNL     1      -7.828   3.660  70.635  1.00  0.00    -0.053 NA 
HETATM   42  C   UNL     1      -8.389   2.496  71.078  1.00  0.00    -0.053 A  
HETATM   43  N   UNL     1      -7.819   2.066  72.187  1.00  0.00    -0.044 NA 
HETATM   44  C   UNL     1      -6.864   3.017  72.486  1.00  0.00    -0.026 A  
HETATM   45  C   UNL     1      -5.925   3.131  73.524  1.00  0.00    -0.004 A  
HETATM   46  N   UNL     1      -5.758   2.168  74.509  1.00  0.00     0.000 NA 
HETATM   47  N   UNL     1      -5.143   4.236  73.568  1.00  0.00    -0.006 NA 
HETATM   48  H1  UNL     1      -5.075   2.251  75.262  1.00  0.00     0.000 HD 
HETATM   49  C   UNL     1      -5.272   5.155  72.587  1.00  0.00    -0.009 A  
HETATM   50  H2  UNL     1      -5.584   1.279  74.038  1.00  0.00     0.000 HD 
HETATM   51  N   UNL     1      -6.096   5.132  71.514  1.00  0.00    -0.027 NA 
HETATM   52  C   UNL     1      -6.874   4.034  71.545  1.00  0.00    -0.030 A  
ENDBRANCH  34  41
ENDBRANCH  31  32
ENDBRANCH  30  31
ENDBRANCH  27  30
ENDBRANCH  26  27
ENDBRANCH  23  26
ENDBRANCH  22  23
ENDBRANCH  21  22
ENDBRANCH  14  21
ENDBRANCH   8  12
ENDBRANCH   4   6
TORSDOF 11
ENDMDL
MODEL      348
REMARK 921   NORMALIZED FREE ENERGY PREDICTED BY IDOCK:   43.33 KCAL/MOL
REMARK 922        TOTAL FREE ENERGY PREDICTED BY IDOCK:   68.99 KCAL/MOL
REMARK 923 INTER-LIGAND FREE ENERGY PREDICTED BY IDOCK:    9.10 KCAL/MOL
REMARK 924 INTRA-LIGAND FREE ENERGY PREDICTED BY IDOCK:   59.89 KCAL/MOL
REMARK 927      BINDING AFFINITY PREDICTED BY RF-SCORE:    0.00 PKD
ROOT
HETATM    1  N   UNL     1      -6.156   7.969  68.843  1.00  0.00    -0.038 N  
HETATM    2  H1  UNL     1      -6.472   7.244  68.198  1.00  0.00     0.000 HD 
HETATM    3  H2  UNL     1      -5.167   8.218  68.876  1.00  0.00     0.000 HD 
HETATM    4  C   UNL     1      -7.032   8.603  69.654  1.00  0.00    -0.050 C  
HETATM    5  O   UNL     1      -6.650   9.477  70.432  1.00  0.00    -0.063 OA 
ENDROOT
BRANCH   4   6
HETATM    6  C   UNL     1      -8.448   8.181  69.562  1.00  0.00    -0.127 C  
HETATM    7  C   UNL     1      -8.908   7.893  68.331  1.00  0.00    -0.130 C  
HETATM    8  N   UNL     1     -10.194   7.422  68.078  1.00  0.00    -0.183 NA 
HETATM    9  C   UNL     1      -9.320   8.003  70.775  1.00  0.00    -0.167 C  
HETATM   10  C   UNL     1     -11.092   7.395  69.151  1.00  0.00     0.061 C  
HETATM   11  C   UNL     1     -10.744   7.656  70.420  1.00  0.00    -0.241 C  
BRANCH   8  12
HETATM   12  C   UNL     1     -10.619   6.807  66.801  1.00  0.00    -0.241 C  
HETATM   13  O   UNL     1     -10.013   5.500  66.692  1.00  0.00    -0.154 OA 
HETATM   14  C   UNL     1      -8.738   5.661  66.030  1.00  0.00    -0.144 C  
HETATM   15  H   UNL     1     -10.834   7.500  63.579  1.00  0.00     0.000 HD 
HETATM   16  C   UNL     1      -8.812   6.950  65.215  1.00  0.00     0.182 C  
HETATM   17  H   UNL     1      -8.656   7.479  63.315  1.00  0.00     0.000 HD 
HETATM   18  C   UNL     1     -10.215   7.486  65.482  1.00  0.00     2.137 C  
HETATM   19  O   UNL     1      -8.610   6.677  63.822  1.00  0.00     0.225 OA 
HETATM   20  O   UNL     1     -11.084   7.081  64.394  1.00  0.00     9.735 OA 
BRANCH  14  21
HETATM   21  C   UNL     1      -7.600   5.692  67.062  1.00  0.00    -0.096 C  
BRANCH  21  22
HETATM   22  O   UNL     1      -7.835   4.764  68.114  1.00  0.00    -0.081 OA 
BRANCH  22  23
HETATM   23  P   UNL     1      -6.888   3.483  68.220  1.00  0.00    -0.047 P  
HETATM   24  O   UNL     1      -5.832   3.502  69.274  1.00  0.00    -0.021 OA 
HETATM   25  O   UNL     1      -7.947   2.325  68.571  1.00  0.00    -0.053 OA 
BRANCH  23  26
HETATM   26  O   UNL     1      -6.440   3.098  66.754  1.00  0.00    -0.035 OA 
BRANCH  26  27
HETATM   27  P   UNL     1      -7.030   3.729  65.429  1.00  0.00    -0.063 P  
HETATM   28  O   UNL     1      -8.578   3.303  65.492  1.00  0.00    -0.106 OA 
HETATM   29  O   UNL     1      -6.447   3.298  64.127  1.00  0.00    -0.029 OA 
BRANCH  27  30
HETATM   30  O   UNL     1      -7.088   5.318  65.643  1.00  0.00    -0.064 OA 
BRANCH  30  31
HETATM   31  C   UNL     1      -8.030   6.116  64.933  1.00  0.00    -0.123 C  
BRANCH  31  32
HETATM   32  C   UNL     1      -7.681   7.601  64.921  1.00  0.00    -0.107 C  
HETATM   33  O   UNL     1      -8.749   8.396  65.474  1.00  0.00    -0.172 OA 
HETATM   34  C   UNL     1      -8.130   9.669  65.740  1.00  0.00    -0.113 C  
HETATM   35  H   UNL     1      -4.496   8.036  65.549  1.00  0.00     0.000 HD 
HETATM   36  C   UNL     1      -6.738   9.333  66.300  1.00  0.00    -0.074 C  
HETATM   37  C   UNL     1      -6.459   7.922  65.775  1.00  0.00    -0.042 C  
HETATM   38  H   UNL     1      -4.855  10.034  66.227  1.00  0.00     0.000 HD 
HETATM   39  O   UNL     1      -5.715  10.242  65.882  1.00  0.00    -0.066 OA 
HETATM   40  O   UNL     1      -5.258   7.837  65.018  1.00  0.00    -0.028 OA 
BRANCH  34  41
HETATM   41  N   UNL     1      -8.940  10.450  66.653  1.00  0.00    -0.140 NA 
HETATM   42  C   UNL     1      -9.910  10.008  67.508  1.00  0.00    -0.175 A  
HETATM   43  N   UNL     1     -10.416  10.991  68.227  1.00  0.00    -0.177 NA 
HETATM   44  C   UNL     1      -9.759  12.124  67.792  1.00  0.00    -0.197 A  
HETATM   45  C   UNL     1      -9.836  13.475  68.168  1.00  0.00    -0.237 A  
HETATM   46  N   UNL     1     -10.653  13.934  69.191  1.00  0.00    -0.402 NA 
HETATM   47  N   UNL     1      -9.077  14.375  67.500  1.00  0.00    -0.187 NA 
HETATM   48  H1  UNL     1     -10.709  14.915  69.465  1.00  0.00     0.000 HD 
HETATM   49  C   UNL     1      -8.247  13.926  66.534  1.00  0.00     0.596 A  
HETATM   50  H2  UNL     1     -10.422  13.398  70.028  1.00  0.00     0.000 HD 
HETATM   51  N   UNL     1      -8.046  12.653  66.120  1.00  0.00     0.730 NA 
HETATM   52  C   UNL     1      -8.854  11.810  66.790  1.00  0.00    -0.191 A  
ENDBRANCH  34  41
ENDBRANCH  31  32
ENDBRANCH  30  31
ENDBRANCH  27  30
ENDBRANCH  26  27
ENDBRANCH  23  26
ENDBRANCH  22  23
ENDBRANCH  21  22
ENDBRANCH  14  21
ENDBRANCH   8  12
ENDBRANCH   4   6
TORSDOF 11
ENDMDL
MODEL      349
REMARK 921   NORMALIZED FREE ENERGY PREDICTED BY IDOCK:   43.47 KCAL/MOL
REMARK 922        TOTAL FREE ENERGY PREDICTED BY IDOCK:   69.22 KCAL/MOL
REMARK 923 INTER-LIGAND FREE ENERGY PREDICTED BY IDOCK:   60.28 KCAL/MOL
REMARK 924 INTRA-LIGAND FREE ENERGY PREDICTED BY IDOCK:    8.94 KCAL/MOL
REMARK 927      BINDING AFFINITY PREDICTED BY RF-SCORE:    0.00 PKD
ROOT
HETATM    1  N   UNL     1      -9.014   7.551  67.442  1.00  0.00    -0.126 N  
HETATM    2  H1  UNL     1      -8.432   8.150  66.856  1.00  0.00     0.000 HD 
HETATM    3  H2  UNL     1      -8.602   7.080  68.248  1.00  0.00     0.000 HD 
HETATM    4  C   UNL     1     -10.324   7.374  67.163  1.00  0.00    -0.307 C  
HETATM    5  O   UNL     1     -11.026   6.651  67.870  1.00  0.00    -0.264 OA 
ENDROOT
BRANCH   4   6
HETATM    6  C   UNL     1     -10.852   8.076  65.971  1.00  0.00     2.188 C  
HETATM    7  C   UNL     1     -10.056   9.017  65.430  1.00  0.00     0.680 C  
HETATM    8  N   UNL     1     -10.373   9.724  64.273  1.00  0.00     0.943 NA 
HETATM    9  C   UNL     1     -12.169   7.720  65.339  1.00  0.00    13.290 C  
HETATM   10  C   UNL     1     -11.655   9.545  63.741  1.00  0.00     9.636 C  
HETATM   11  C   UNL     1     -12.529   8.635  64.194  1.00  0.00    20.931 C  
BRANCH   8  12
HETATM   12  C   UNL     1      -9.401  10.519  63.491  1.00  0.00    -0.293 C  
HETATM   13  O   UNL     1      -8.098   9.904  63.609  1.00  0.00    -0.137 OA 
HETATM   14  C   UNL     1      -7.441  10.488  64.756  1.00  0.00     0.029 C  
HETATM   15  H   UNL     1      -8.414  13.640  63.056  1.00  0.00     0.000 HD 
HETATM   16  C   UNL     1      -8.077  11.854  64.996  1.00  0.00     1.670 C  
HETATM   17  H   UNL     1      -7.490  13.742  65.044  1.00  0.00     0.000 HD 
HETATM   18  C   UNL     1      -9.134  11.976  63.902  1.00  0.00     0.549 C  
HETATM   19  O   UNL     1      -7.094  12.892  64.894  1.00  0.00     6.706 OA 
HETATM   20  O   UNL     1      -8.580  12.740  62.802  1.00  0.00     2.919 OA 
BRANCH  14  21
HETATM   21  C   UNL     1      -7.575   9.563  65.977  1.00  0.00    -0.100 C  
BRANCH  21  22
HETATM   22  O   UNL     1      -7.724   8.206  65.579  1.00  0.00    -0.086 OA 
BRANCH  22  23
HETATM   23  P   UNL     1      -6.694   7.130  66.156  1.00  0.00    -0.055 P  
HETATM   24  O   UNL     1      -7.235   5.780  66.489  1.00  0.00    -0.071 OA 
HETATM   25  O   UNL     1      -5.660   6.985  64.932  1.00  0.00    -0.031 OA 
BRANCH  23  26
HETATM   26  O   UNL     1      -5.817   7.851  67.255  1.00  0.00    -0.039 OA 
BRANCH  26  27
HETATM   27  P   UNL     1      -6.382   8.517  68.573  1.00  0.00    -0.056 P  
HETATM   28  O   UNL     1      -5.153   9.427  69.066  1.00  0.00    -0.036 OA 
HETATM   29  O   UNL     1      -6.814   7.620  69.682  1.00  0.00    -0.043 OA 
BRANCH  27  30
HETATM   30  O   UNL     1      -7.475   9.605  68.128  1.00  0.00    -0.081 OA 
BRANCH  30  31
HETATM   31  C   UNL     1      -7.085  10.926  67.769  1.00  0.00    -0.082 C  
BRANCH  31  32
HETATM   32  C   UNL     1      -7.994  12.006  68.348  1.00  0.00    -0.152 C  
HETATM   33  O   UNL     1      -7.963  13.203  67.547  1.00  0.00    -0.156 OA 
HETATM   34  C   UNL     1      -9.117  13.943  67.987  1.00  0.00    -0.192 C  
HETATM   35  H   UNL     1     -10.698  10.667  69.622  1.00  0.00     0.000 HD 
HETATM   36  C   UNL     1     -10.224  12.893  68.176  1.00  0.00    -0.239 C  
HETATM   37  C   UNL     1      -9.459  11.583  68.379  1.00  0.00    -0.195 C  
HETATM   38  H   UNL     1     -11.768  12.508  69.404  1.00  0.00     0.000 HD 
HETATM   39  O   UNL     1     -11.084  13.157  69.287  1.00  0.00    -0.226 OA 
HETATM   40  O   UNL     1      -9.786  10.931  69.602  1.00  0.00    -0.038 OA 
BRANCH  34  41
HETATM   41  N   UNL     1      -9.462  14.972  67.026  1.00  0.00    -0.221 NA 
HETATM   42  C   UNL     1     -10.599  15.077  66.276  1.00  0.00    -0.307 A  
HETATM   43  N   UNL     1     -10.599  16.168  65.535  1.00  0.00    -0.388 NA 
HETATM   44  C   UNL     1      -9.391  16.779  65.802  1.00  0.00     0.003 A  
HETATM   45  C   UNL     1      -8.802  17.969  65.344  1.00  0.00     1.494 A  
HETATM   46  N   UNL     1      -9.437  18.848  64.479  1.00  0.00     4.367 NA 
HETATM   47  N   UNL     1      -7.553  18.275  65.767  1.00  0.00    -0.534 NA 
HETATM   48  H1  UNL     1      -9.010  19.712  64.146  1.00  0.00     0.000 HD 
HETATM   49  C   UNL     1      -6.949  17.445  66.645  1.00  0.00    -0.233 A  
HETATM   50  H2  UNL     1     -10.334  19.095  64.900  1.00  0.00     0.000 HD 
HETATM   51  N   UNL     1      -7.431  16.307  67.195  1.00  0.00    -0.181 NA 
HETATM   52  C   UNL     1      -8.655  16.033  66.709  1.00  0.00    -0.257 A  
ENDBRANCH  34  41
ENDBRANCH  31  32
ENDBRANCH  30  31
ENDBRANCH  27  30
ENDBRANCH  26  27
ENDBRANCH  23  26
ENDBRANCH  22  23
ENDBRANCH  21  22
ENDBRANCH  14  21
ENDBRANCH   8  12
ENDBRANCH   4   6
TORSDOF 11
ENDMDL
MODEL      350
REMARK 921   NORMALIZED FREE ENERGY PREDICTED BY IDOCK:   43.49 KCAL/MOL
REMARK 922        TOTAL FREE ENERGY PREDICTED BY IDOCK:   69.25 KCAL/MOL
REMARK 923 INTER-LIGAND FREE ENERGY PREDICTED BY IDOCK:   16.83 KCAL/MOL
REMARK 924 INTRA-LIGAND FREE ENERGY PREDICTED BY IDOCK:   52.42 KCAL/MOL
REMARK 927      BINDING AFFINITY PREDICTED BY RF-SCORE:    0.00 PKD
ROOT
HETATM    1  N   UNL     1      -8.233   6.116  65.038  1.00  0.00    -0.136 N  
HETATM    2  H1  UNL     1      -7.618   5.301  65.044  1.00  0.00     0.000 HD 
HETATM    3  H2  UNL     1      -8.209   6.759  64.247  1.00  0.00     0.000 HD 
HETATM    4  C   UNL     1      -9.079   6.351  66.065  1.00  0.00    -0.097 C  
HETATM    5  O   UNL     1      -9.821   7.333  66.057  1.00  0.00     0.072 OA 
ENDROOT
BRANCH   4   6
HETATM    6  C   UNL     1      -9.051   5.383  67.185  1.00  0.00    -0.111 C  
HETATM    7  C   UNL     1      -9.866   5.646  68.224  1.00  0.00    -0.141 C  
HETATM    8  N   UNL     1     -10.006   4.807  69.326  1.00  0.00    -0.202 NA 
HETATM    9  C   UNL     1      -8.223   4.128  67.150  1.00  0.00    -0.100 C  
HETATM   10  C   UNL     1      -9.139   3.712  69.416  1.00  0.00    -0.135 C  
HETATM   11  C   UNL     1      -8.291   3.351  68.442  1.00  0.00    -0.097 C  
BRANCH   8  12
HETATM   12  C   UNL     1     -11.105   4.906  70.312  1.00  0.00     1.236 C  
HETATM   13  O   UNL     1     -12.087   5.845  69.819  1.00  0.00     0.755 OA 
HETATM   14  C   UNL     1     -11.721   7.157  70.304  1.00  0.00    -0.182 C  
HETATM   15  H   UNL     1     -11.604   5.352  73.546  1.00  0.00     0.000 HD 
HETATM   16  C   UNL     1     -10.871   6.955  71.555  1.00  0.00    -0.230 C  
HETATM   17  H   UNL     1     -10.960   7.449  73.468  1.00  0.00     0.000 HD 
HETATM   18  C   UNL     1     -10.792   5.440  71.719  1.00  0.00    -0.174 C  
HETATM   19  O   UNL     1     -11.490   7.575  72.689  1.00  0.00    -0.323 OA 
HETATM   20  O   UNL     1     -11.797   5.022  72.676  1.00  0.00    -0.089 OA 
BRANCH  14  21
HETATM   21  C   UNL     1     -10.972   7.940  69.214  1.00  0.00     0.024 C  
BRANCH  21  22
HETATM   22  O   UNL     1      -9.570   7.940  69.453  1.00  0.00    -0.160 OA 
BRANCH  22  23
HETATM   23  P   UNL     1      -9.045   8.417  70.883  1.00  0.00    -0.189 P  
HETATM   24  O   UNL     1      -9.268   7.494  72.034  1.00  0.00    -0.130 OA 
HETATM   25  O   UNL     1      -7.463   8.544  70.622  1.00  0.00    -0.056 OA 
BRANCH  23  26
HETATM   26  O   UNL     1      -9.478   9.926  71.071  1.00  0.00     0.036 OA 
BRANCH  26  27
HETATM   27  P   UNL     1      -8.824  11.158  70.326  1.00  0.00     3.563 P  
HETATM   28  O   UNL     1      -8.320  10.510  68.944  1.00  0.00    -0.129 OA 
HETATM   29  O   UNL     1      -7.688  11.856  70.992  1.00  0.00     4.357 OA 
BRANCH  27  30
HETATM   30  O   UNL     1     -10.018  12.120  69.855  1.00  0.00     1.295 OA 
BRANCH  30  31
HETATM   31  C   UNL     1     -10.084  12.600  68.517  1.00  0.00    -0.178 C  
BRANCH  31  32
HETATM   32  C   UNL     1     -10.677  11.592  67.538  1.00  0.00    -0.223 C  
HETATM   33  O   UNL     1      -9.647  10.922  66.784  1.00  0.00    -0.178 OA 
HETATM   34  C   UNL     1     -10.318   9.780  66.219  1.00  0.00    -0.165 C  
HETATM   35  H   UNL     1     -13.298  10.128  68.846  1.00  0.00     0.000 HD 
HETATM   36  C   UNL     1     -11.242   9.262  67.334  1.00  0.00     0.519 C  
HETATM   37  C   UNL     1     -11.447  10.478  68.240  1.00  0.00    -0.199 C  
HETATM   38  H   UNL     1     -13.067   8.445  67.545  1.00  0.00     0.000 HD 
HETATM   39  O   UNL     1     -12.496   8.765  66.856  1.00  0.00     6.862 OA 
HETATM   40  O   UNL     1     -12.818  10.821  68.409  1.00  0.00     0.954 OA 
BRANCH  34  41
HETATM   41  N   UNL     1      -9.357   8.795  65.767  1.00  0.00    -0.218 NA 
HETATM   42  C   UNL     1      -9.603   7.585  65.182  1.00  0.00     1.453 A  
HETATM   43  N   UNL     1      -8.488   6.962  64.855  1.00  0.00    -0.008 NA 
HETATM   44  C   UNL     1      -7.476   7.800  65.277  1.00  0.00    -0.082 A  
HETATM   45  C   UNL     1      -6.075   7.714  65.208  1.00  0.00    -0.038 A  
HETATM   46  N   UNL     1      -5.407   6.666  64.593  1.00  0.00    -0.026 NA 
HETATM   47  N   UNL     1      -5.340   8.702  65.772  1.00  0.00    -0.034 NA 
HETATM   48  H1  UNL     1      -4.390   6.604  64.543  1.00  0.00     0.000 HD 
HETATM   49  C   UNL     1      -5.988   9.746  66.332  1.00  0.00    -0.063 A  
HETATM   50  H2  UNL     1      -5.762   6.597  63.639  1.00  0.00     0.000 HD 
HETATM   51  N   UNL     1      -7.320   9.967  66.412  1.00  0.00    -0.098 NA 
HETATM   52  C   UNL     1      -7.998   8.936  65.873  1.00  0.00    -0.107 A  
ENDBRANCH  34  41
ENDBRANCH  31  32
ENDBRANCH  30  31
ENDBRANCH  27  30
ENDBRANCH  26  27
ENDBRANCH  23  26
ENDBRANCH  22  23
ENDBRANCH  21  22
ENDBRANCH  14  21
ENDBRANCH   8  12
ENDBRANCH   4   6
TORSDOF 11
ENDMDL
MODEL      351
REMARK 921   NORMALIZED FREE ENERGY PREDICTED BY IDOCK:   46.10 KCAL/MOL
REMARK 922        TOTAL FREE ENERGY PREDICTED BY IDOCK:   73.54 KCAL/MOL
REMARK 923 INTER-LIGAND FREE ENERGY PREDICTED BY IDOCK:   46.80 KCAL/MOL
REMARK 924 INTRA-LIGAND FREE ENERGY PREDICTED BY IDOCK:   26.75 KCAL/MOL
REMARK 927      BINDING AFFINITY PREDICTED BY RF-SCORE:    0.00 PKD
ROOT
HETATM    1  N   UNL     1     -12.532  15.821  64.325  1.00  0.00    -0.302 N  
HETATM    2  H1  UNL     1     -11.984  14.962  64.387  1.00  0.00     0.000 HD 
HETATM    3  H2  UNL     1     -12.714  16.239  63.413  1.00  0.00     0.000 HD 
HETATM    4  C   UNL     1     -13.017  16.412  65.440  1.00  0.00     4.402 C  
HETATM    5  O   UNL     1     -13.678  17.448  65.366  1.00  0.00    10.348 OA 
ENDROOT
BRANCH   4   6
HETATM    6  C   UNL     1     -12.702  15.759  66.730  1.00  0.00     2.590 C  
HETATM    7  C   UNL     1     -11.529  16.095  67.300  1.00  0.00     0.237 C  
HETATM    8  N   UNL     1     -11.111  15.621  68.541  1.00  0.00    -0.303 NA 
HETATM    9  C   UNL     1     -13.659  14.828  67.422  1.00  0.00     5.808 C  
HETATM   10  C   UNL     1     -11.890  14.629  69.147  1.00  0.00    -0.312 C  
HETATM   11  C   UNL     1     -13.076  14.221  68.674  1.00  0.00     2.195 C  
BRANCH   8  12
HETATM   12  C   UNL     1      -9.998  16.206  69.322  1.00  0.00    -0.253 C  
HETATM   13  O   UNL     1      -9.041  15.164  69.618  1.00  0.00    -0.183 OA 
HETATM   14  C   UNL     1      -9.424  14.563  70.876  1.00  0.00     2.846 C  
HETATM   15  H   UNL     1      -9.457  18.112  71.964  1.00  0.00     0.000 HD 
HETATM   16  C   UNL     1     -10.250  15.595  71.638  1.00  0.00     1.771 C  
HETATM   17  H   UNL     1     -10.139  16.562  73.360  1.00  0.00     0.000 HD 
HETATM   18  C   UNL     1     -10.299  16.803  70.706  1.00  0.00     1.398 C  
HETATM   19  O   UNL     1      -9.624  15.919  72.885  1.00  0.00     6.826 OA 
HETATM   20  O   UNL     1      -9.271  17.743  71.108  1.00  0.00     5.668 OA 
BRANCH  14  21
HETATM   21  C   UNL     1     -10.204  13.261  70.631  1.00  0.00     4.179 C  
BRANCH  21  22
HETATM   22  O   UNL     1      -9.376  12.271  70.033  1.00  0.00     2.433 OA 
BRANCH  22  23
HETATM   23  P   UNL     1      -9.078  12.376  68.468  1.00  0.00     0.093 P  
HETATM   24  O   UNL     1      -8.247  13.527  68.008  1.00  0.00    -0.140 OA 
HETATM   25  O   UNL     1      -8.266  11.014  68.201  1.00  0.00    -0.114 OA 
BRANCH  23  26
HETATM   26  O   UNL     1     -10.438  12.115  67.705  1.00  0.00    -0.198 OA 
BRANCH  26  27
HETATM   27  P   UNL     1     -10.571  11.365  66.320  1.00  0.00    -0.248 P  
HETATM   28  O   UNL     1     -11.970  11.916  65.751  1.00  0.00    -0.451 OA 
HETATM   29  O   UNL     1     -10.590   9.874  66.329  1.00  0.00    -0.140 OA 
BRANCH  27  30
HETATM   30  O   UNL     1      -9.498  12.015  65.320  1.00  0.00    -0.160 OA 
BRANCH  30  31
HETATM   31  C   UNL     1      -8.104  11.941  65.597  1.00  0.00     0.849 C  
BRANCH  31  32
HETATM   32  C   UNL     1      -7.790  11.430  67.000  1.00  0.00    -0.158 C  
HETATM   33  O   UNL     1      -8.269  10.085  67.189  1.00  0.00    -0.117 OA 
HETATM   34  C   UNL     1      -7.578   9.634  68.369  1.00  0.00    -0.081 C  
HETATM   35  H   UNL     1      -4.876  12.544  67.999  1.00  0.00     0.000 HD 
HETATM   36  C   UNL     1      -6.146  10.177  68.231  1.00  0.00    -0.045 C  
HETATM   37  C   UNL     1      -6.291  11.364  67.276  1.00  0.00    -0.097 C  
HETATM   38  H   UNL     1      -4.682  10.927  69.387  1.00  0.00     0.000 HD 
HETATM   39  O   UNL     1      -5.566  10.591  69.472  1.00  0.00    -0.038 OA 
HETATM   40  O   UNL     1      -5.809  12.585  67.827  1.00  0.00    -0.088 OA 
BRANCH  34  41
HETATM   41  N   UNL     1      -7.635   8.190  68.474  1.00  0.00    -0.102 NA 
HETATM   42  C   UNL     1      -6.623   7.291  68.286  1.00  0.00    -0.049 A  
HETATM   43  N   UNL     1      -7.019   6.053  68.508  1.00  0.00    -0.073 NA 
HETATM   44  C   UNL     1      -8.358   6.160  68.826  1.00  0.00    -0.111 A  
HETATM   45  C   UNL     1      -9.334   5.212  69.175  1.00  0.00    -0.124 A  
HETATM   46  N   UNL     1      -9.064   3.858  69.313  1.00  0.00    -0.118 NA 
HETATM   47  N   UNL     1     -10.601   5.638  69.385  1.00  0.00    -0.297 NA 
HETATM   48  H1  UNL     1      -9.773   3.169  69.566  1.00  0.00     0.000 HD 
HETATM   49  C   UNL     1     -10.858   6.961  69.295  1.00  0.00    -0.237 A  
HETATM   50  H2  UNL     1      -8.300   3.767  69.983  1.00  0.00     0.000 HD 
HETATM   51  N   UNL     1      -9.999   7.970  69.022  1.00  0.00    -0.180 NA 
HETATM   52  C   UNL     1      -8.767   7.482  68.783  1.00  0.00    -0.128 A  
ENDBRANCH  34  41
ENDBRANCH  31  32
ENDBRANCH  30  31
ENDBRANCH  27  30
ENDBRANCH  26  27
ENDBRANCH  23  26
ENDBRANCH  22  23
ENDBRANCH  21  22
ENDBRANCH  14  21
ENDBRANCH   8  12
ENDBRANCH   4   6
TORSDOF 11
ENDMDL
MODEL      352
REMARK 921   NORMALIZED FREE ENERGY PREDICTED BY IDOCK:   51.68 KCAL/MOL
REMARK 922        TOTAL FREE ENERGY PREDICTED BY IDOCK:   82.71 KCAL/MOL
REMARK 923 INTER-LIGAND FREE ENERGY PREDICTED BY IDOCK:   67.95 KCAL/MOL
REMARK 924 INTRA-LIGAND FREE ENERGY PREDICTED BY IDOCK:   14.76 KCAL/MOL
REMARK 927      BINDING AFFINITY PREDICTED BY RF-SCORE:    0.00 PKD
ROOT
HETATM    1  N   UNL     1      -9.273   7.480  67.398  1.00  0.00    -0.131 N  
HETATM    2  H1  UNL     1      -9.011   8.186  66.709  1.00  0.00     0.000 HD 
HETATM    3  H2  UNL     1      -8.564   7.103  68.027  1.00  0.00     0.000 HD 
HETATM    4  C   UNL     1     -10.547   7.040  67.486  1.00  0.00    -0.280 C  
HETATM    5  O   UNL     1     -10.863   6.188  68.317  1.00  0.00    -0.267 OA 
ENDROOT
BRANCH   4   6
HETATM    6  C   UNL     1     -11.519   7.621  66.533  1.00  0.00     2.516 C  
HETATM    7  C   UNL     1     -11.125   8.727  65.875  1.00  0.00     3.029 C  
HETATM    8  N   UNL     1     -11.892   9.361  64.901  1.00  0.00     8.252 NA 
HETATM    9  C   UNL     1     -12.850   6.982  66.242  1.00  0.00    10.945 C  
HETATM   10  C   UNL     1     -13.200   8.901  64.712  1.00  0.00    22.230 C  
HETATM   11  C   UNL     1     -13.698   7.807  65.307  1.00  0.00    20.663 C  
BRANCH   8  12
HETATM   12  C   UNL     1     -11.366  10.370  63.955  1.00  0.00     2.559 C  
HETATM   13  O   UNL     1      -9.950  10.144  63.775  1.00  0.00    -0.180 OA 
HETATM   14  C   UNL     1      -9.252  10.920  64.774  1.00  0.00    -0.201 C  
HETATM   15  H   UNL     1     -11.398  13.628  63.415  1.00  0.00     0.000 HD 
HETATM   16  C   UNL     1     -10.176  12.064  65.185  1.00  0.00    -0.276 C  
HETATM   17  H   UNL     1     -10.138  14.042  65.164  1.00  0.00     0.000 HD 
HETATM   18  C   UNL     1     -11.432  11.855  64.344  1.00  0.00    -0.320 C  
HETATM   19  O   UNL     1      -9.563  13.330  64.908  1.00  0.00     0.068 OA 
HETATM   20  O   UNL     1     -11.358  12.709  63.175  1.00  0.00    -0.397 OA 
BRANCH  14  21
HETATM   21  C   UNL     1      -8.863  10.032  65.967  1.00  0.00    -0.145 C  
BRANCH  21  22
HETATM   22  O   UNL     1      -9.217   8.675  65.733  1.00  0.00    -0.212 OA 
BRANCH  22  23
HETATM   23  P   UNL     1      -8.332   7.826  64.710  1.00  0.00     0.112 P  
HETATM   24  O   UNL     1      -8.121   6.384  65.025  1.00  0.00    -0.129 OA 
HETATM   25  O   UNL     1      -9.201   7.938  63.361  1.00  0.00     1.200 OA 
BRANCH  23  26
HETATM   26  O   UNL     1      -7.053   8.686  64.359  1.00  0.00    -0.083 OA 
BRANCH  26  27
HETATM   27  P   UNL     1      -6.042   9.282  65.419  1.00  0.00    -0.066 P  
HETATM   28  O   UNL     1      -5.161  10.297  64.537  1.00  0.00    -0.085 OA 
HETATM   29  O   UNL     1      -5.142   8.335  66.137  1.00  0.00    -0.024 OA 
BRANCH  27  30
HETATM   30  O   UNL     1      -6.874  10.268  66.372  1.00  0.00    -0.093 OA 
BRANCH  30  31
HETATM   31  C   UNL     1      -7.029  11.644  66.042  1.00  0.00     0.534 C  
BRANCH  31  32
HETATM   32  C   UNL     1      -6.842  12.579  67.233  1.00  0.00    -0.114 C  
HETATM   33  O   UNL     1      -7.381  13.888  66.963  1.00  0.00     0.043 OA 
HETATM   34  C   UNL     1      -7.472  14.499  68.263  1.00  0.00    -0.120 C  
HETATM   35  H   UNL     1      -7.205  10.941  70.046  1.00  0.00     0.000 HD 
HETATM   36  C   UNL     1      -7.968  13.385  69.200  1.00  0.00     0.361 C  
HETATM   37  C   UNL     1      -7.574  12.093  68.479  1.00  0.00    -0.124 C  
HETATM   38  H   UNL     1      -7.696  12.746  71.086  1.00  0.00     0.000 HD 
HETATM   39  O   UNL     1      -7.390  13.434  70.508  1.00  0.00     1.346 OA 
HETATM   40  O   UNL     1      -6.749  11.244  69.269  1.00  0.00    -0.088 OA 
BRANCH  34  41
HETATM   41  N   UNL     1      -8.352  15.649  68.226  1.00  0.00    -0.151 NA 
HETATM   42  C   UNL     1      -9.541  15.822  68.877  1.00  0.00    -0.229 A  
HETATM   43  N   UNL     1     -10.056  17.015  68.651  1.00  0.00    -0.284 NA 
HETATM   44  C   UNL     1      -9.168  17.628  67.790  1.00  0.00    -0.251 A  
HETATM   45  C   UNL     1      -9.141  18.899  67.194  1.00  0.00    -0.287 A  
HETATM   46  N   UNL     1     -10.096  19.875  67.439  1.00  0.00    -0.402 NA 
HETATM   47  N   UNL     1      -8.134  19.188  66.336  1.00  0.00    -0.298 NA 
HETATM   48  H1  UNL     1     -10.076  20.798  67.005  1.00  0.00     0.000 HD 
HETATM   49  C   UNL     1      -7.178  18.257  66.129  1.00  0.00    -0.266 A  
HETATM   50  H2  UNL     1     -10.136  20.014  68.449  1.00  0.00     0.000 HD 
HETATM   51  N   UNL     1      -7.066  17.027  66.681  1.00  0.00    -0.228 NA 
HETATM   52  C   UNL     1      -8.113  16.781  67.491  1.00  0.00    -0.172 A  
ENDBRANCH  34  41
ENDBRANCH  31  32
ENDBRANCH  30  31
ENDBRANCH  27  30
ENDBRANCH  26  27
ENDBRANCH  23  26
ENDBRANCH  22  23
ENDBRANCH  21  22
ENDBRANCH  14  21
ENDBRANCH   8  12
ENDBRANCH   4   6
TORSDOF 11
ENDMDL
MODEL      353
REMARK 921   NORMALIZED FREE ENERGY PREDICTED BY IDOCK:   59.32 KCAL/MOL
REMARK 922        TOTAL FREE ENERGY PREDICTED BY IDOCK:   95.26 KCAL/MOL
REMARK 923 INTER-LIGAND FREE ENERGY PREDICTED BY IDOCK:   90.33 KCAL/MOL
REMARK 924 INTRA-LIGAND FREE ENERGY PREDICTED BY IDOCK:    4.93 KCAL/MOL
REMARK 927      BINDING AFFINITY PREDICTED BY RF-SCORE:    0.00 PKD
ROOT
HETATM    1  N   UNL     1      -6.225  11.046  66.989  1.00  0.00    -0.074 N  
HETATM    2  H1  UNL     1      -6.562  10.716  66.084  1.00  0.00     0.000 HD 
HETATM    3  H2  UNL     1      -5.535  10.495  67.501  1.00  0.00     0.000 HD 
HETATM    4  C   UNL     1      -6.681  12.203  67.517  1.00  0.00    -0.129 C  
HETATM    5  O   UNL     1      -6.274  12.600  68.609  1.00  0.00    -0.063 OA 
ENDROOT
BRANCH   4   6
HETATM    6  C   UNL     1      -7.690  12.943  66.726  1.00  0.00     0.321 C  
HETATM    7  C   UNL     1      -8.265  12.271  65.711  1.00  0.00     1.043 C  
HETATM    8  N   UNL     1      -9.275  12.798  64.910  1.00  0.00     0.618 NA 
HETATM    9  C   UNL     1      -8.122  14.342  67.070  1.00  0.00    -0.095 C  
HETATM   10  C   UNL     1      -9.596  14.149  65.086  1.00  0.00     0.262 C  
HETATM   11  C   UNL     1      -9.092  14.913  66.066  1.00  0.00    -0.109 C  
BRANCH   8  12
HETATM   12  C   UNL     1     -10.129  11.992  64.011  1.00  0.00    -0.335 C  
HETATM   13  O   UNL     1     -10.354  12.737  62.793  1.00  0.00     0.722 OA 
HETATM   14  C   UNL     1     -11.545  13.534  62.981  1.00  0.00     0.842 C  
HETATM   15  H   UNL     1     -12.940  10.259  64.033  1.00  0.00     0.000 HD 
HETATM   16  C   UNL     1     -12.376  12.857  64.067  1.00  0.00    -0.380 C  
HETATM   17  H   UNL     1     -14.179  12.060  64.233  1.00  0.00     0.000 HD 
HETATM   18  C   UNL     1     -11.554  11.635  64.466  1.00  0.00    -0.154 C  
HETATM   19  O   UNL     1     -13.661  12.481  63.557  1.00  0.00     0.684 OA 
HETATM   20  O   UNL     1     -12.060  10.480  63.752  1.00  0.00     2.486 OA 
BRANCH  14  21
HETATM   21  C   UNL     1     -11.169  14.977  63.353  1.00  0.00     2.466 C  
BRANCH  21  22
HETATM   22  O   UNL     1     -11.744  15.353  64.598  1.00  0.00    -0.369 OA 
BRANCH  22  23
HETATM   23  P   UNL     1     -12.675  16.650  64.642  1.00  0.00     5.363 P  
HETATM   24  O   UNL     1     -13.613  16.854  63.500  1.00  0.00     4.698 OA 
HETATM   25  O   UNL     1     -13.534  16.387  65.976  1.00  0.00     5.528 OA 
BRANCH  23  26
HETATM   26  O   UNL     1     -11.767  17.874  65.061  1.00  0.00     1.048 OA 
BRANCH  26  27
HETATM   27  P   UNL     1     -10.196  17.823  65.231  1.00  0.00     1.272 P  
HETATM   28  O   UNL     1      -9.763  19.352  64.992  1.00  0.00     0.752 OA 
HETATM   29  O   UNL     1      -9.421  16.937  64.315  1.00  0.00     3.758 OA 
BRANCH  27  30
HETATM   30  O   UNL     1      -9.890  17.605  66.790  1.00  0.00    -0.277 OA 
BRANCH  30  31
HETATM   31  C   UNL     1     -10.566  18.372  67.780  1.00  0.00    -0.391 C  
BRANCH  31  32
HETATM   32  C   UNL     1     -10.285  17.908  69.206  1.00  0.00    -0.076 C  
HETATM   33  O   UNL     1     -10.285  16.470  69.299  1.00  0.00    -0.269 OA 
HETATM   34  C   UNL     1      -9.645  16.206  70.562  1.00  0.00     1.447 C  
HETATM   35  H   UNL     1      -8.107  19.884  70.648  1.00  0.00     0.000 HD 
HETATM   36  C   UNL     1      -8.489  17.216  70.649  1.00  0.00     4.673 C  
HETATM   37  C   UNL     1      -8.910  18.342  69.702  1.00  0.00     0.916 C  
HETATM   38  H   UNL     1      -7.549  18.343  72.023  1.00  0.00     0.000 HD 
HETATM   39  O   UNL     1      -8.263  17.719  71.969  1.00  0.00    11.616 OA 
HETATM   40  O   UNL     1      -8.964  19.614  70.339  1.00  0.00     0.985 OA 
BRANCH  34  41
HETATM   41  N   UNL     1      -9.208  14.826  70.635  1.00  0.00     1.477 NA 
HETATM   42  C   UNL     1      -7.977  14.316  70.330  1.00  0.00     1.704 A  
HETATM   43  N   UNL     1      -7.915  13.018  70.556  1.00  0.00     3.668 NA 
HETATM   44  C   UNL     1      -9.176  12.673  70.999  1.00  0.00    11.242 A  
HETATM   45  C   UNL     1      -9.742  11.456  71.412  1.00  0.00     8.885 A  
HETATM   46  N   UNL     1      -9.025  10.271  71.489  1.00  0.00     2.011 NA 
HETATM   47  N   UNL     1     -11.053  11.436  71.750  1.00  0.00     3.779 NA 
HETATM   48  H1  UNL     1      -9.436   9.387  71.789  1.00  0.00     0.000 HD 
HETATM   49  C   UNL     1     -11.743  12.596  71.720  1.00  0.00     2.464 A  
HETATM   50  H2  UNL     1      -8.213  10.445  72.083  1.00  0.00     0.000 HD 
HETATM   51  N   UNL     1     -11.299  13.832  71.394  1.00  0.00     1.229 NA 
HETATM   52  C   UNL     1     -10.004  13.783  71.029  1.00  0.00     5.095 A  
ENDBRANCH  34  41
ENDBRANCH  31  32
ENDBRANCH  30  31
ENDBRANCH  27  30
ENDBRANCH  26  27
ENDBRANCH  23  26
ENDBRANCH  22  23
ENDBRANCH  21  22
ENDBRANCH  14  21
ENDBRANCH   8  12
ENDBRANCH   4   6
TORSDOF 11
ENDMDL
MODEL      354
REMARK 921   NORMALIZED FREE ENERGY PREDICTED BY IDOCK:   60.59 KCAL/MOL
REMARK 922        TOTAL FREE ENERGY PREDICTED BY IDOCK:   97.35 KCAL/MOL
REMARK 923 INTER-LIGAND FREE ENERGY PREDICTED BY IDOCK:   54.10 KCAL/MOL
REMARK 924 INTRA-LIGAND FREE ENERGY PREDICTED BY IDOCK:   43.25 KCAL/MOL
REMARK 927      BINDING AFFINITY PREDICTED BY RF-SCORE:    0.00 PKD
ROOT
HETATM    1  N   UNL     1     -12.840  16.378  63.760  1.00  0.00     1.861 N  
HETATM    2  H1  UNL     1     -12.247  16.107  62.976  1.00  0.00     0.000 HD 
HETATM    3  H2  UNL     1     -13.473  17.172  63.663  1.00  0.00     0.000 HD 
HETATM    4  C   UNL     1     -12.795  15.699  64.927  1.00  0.00     1.080 C  
HETATM    5  O   UNL     1     -13.510  16.027  65.874  1.00  0.00     3.778 OA 
ENDROOT
BRANCH   4   6
HETATM    6  C   UNL     1     -11.843  14.568  65.003  1.00  0.00    -0.399 C  
HETATM    7  C   UNL     1     -11.756  13.937  66.189  1.00  0.00    -0.376 C  
HETATM    8  N   UNL     1     -10.957  12.818  66.411  1.00  0.00    -0.271 NA 
HETATM    9  C   UNL     1     -11.064  14.084  63.810  1.00  0.00     0.549 C  
HETATM   10  C   UNL     1     -10.093  12.429  65.381  1.00  0.00    -0.269 C  
HETATM   11  C   UNL     1     -10.097  12.980  64.158  1.00  0.00    -0.146 C  
BRANCH   8  12
HETATM   12  C   UNL     1     -11.079  11.930  67.588  1.00  0.00    -0.257 C  
HETATM   13  O   UNL     1     -10.198  10.799  67.410  1.00  0.00    -0.189 OA 
HETATM   14  C   UNL     1     -10.944   9.766  66.728  1.00  0.00     0.111 C  
HETATM   15  H   UNL     1     -13.375  10.454  69.448  1.00  0.00     0.000 HD 
HETATM   16  C   UNL     1     -12.424  10.020  67.004  1.00  0.00     6.877 C  
HETATM   17  H   UNL     1     -13.931   9.058  67.849  1.00  0.00     0.000 HD 
HETATM   18  C   UNL     1     -12.436  11.269  67.880  1.00  0.00     1.516 C  
HETATM   19  O   UNL     1     -13.010   8.899  67.678  1.00  0.00     9.069 OA 
HETATM   20  O   UNL     1     -12.536  10.863  69.268  1.00  0.00    -0.392 OA 
BRANCH  14  21
HETATM   21  C   UNL     1     -10.624   9.778  65.225  1.00  0.00     0.824 C  
BRANCH  21  22
HETATM   22  O   UNL     1      -9.576  10.694  64.931  1.00  0.00    -0.223 OA 
BRANCH  22  23
HETATM   23  P   UNL     1      -9.034  11.629  66.107  1.00  0.00    -0.075 P  
HETATM   24  O   UNL     1      -9.983  12.633  66.671  1.00  0.00    -0.232 OA 
HETATM   25  O   UNL     1      -8.688  10.547  67.246  1.00  0.00    -0.126 OA 
BRANCH  23  26
HETATM   26  O   UNL     1      -7.601  12.144  65.684  1.00  0.00     1.244 OA 
BRANCH  26  27
HETATM   27  P   UNL     1      -6.480  12.632  66.686  1.00  0.00     1.758 P  
HETATM   28  O   UNL     1      -5.356  13.223  65.701  1.00  0.00     4.803 OA 
HETATM   29  O   UNL     1      -5.865  11.622  67.595  1.00  0.00    -0.048 OA 
BRANCH  27  30
HETATM   30  O   UNL     1      -7.035  13.944  67.422  1.00  0.00    -0.175 OA 
BRANCH  30  31
HETATM   31  C   UNL     1      -8.390  14.352  67.264  1.00  0.00    -0.209 C  
BRANCH  31  32
HETATM   32  C   UNL     1      -8.539  15.777  66.741  1.00  0.00    -0.270 C  
HETATM   33  O   UNL     1      -9.392  16.563  67.596  1.00  0.00    -0.211 OA 
HETATM   34  C   UNL     1      -9.122  17.921  67.198  1.00  0.00    -0.251 C  
HETATM   35  H   UNL     1      -5.725  16.815  65.425  1.00  0.00     0.000 HD 
HETATM   36  C   UNL     1      -7.603  17.981  66.968  1.00  0.00    -0.217 C  
HETATM   37  C   UNL     1      -7.212  16.526  66.700  1.00  0.00    -0.210 C  
HETATM   38  H   UNL     1      -6.281  18.859  65.734  1.00  0.00     0.000 HD 
HETATM   39  O   UNL     1      -7.220  18.822  65.876  1.00  0.00    -0.287 OA 
HETATM   40  O   UNL     1      -6.552  16.349  65.451  1.00  0.00     2.152 OA 
BRANCH  34  41
HETATM   41  N   UNL     1      -9.587  18.851  68.207  1.00  0.00    -0.332 NA 
HETATM   42  C   UNL     1      -9.955  20.157  68.044  1.00  0.00    -0.381 A  
HETATM   43  N   UNL     1     -10.371  20.694  69.174  1.00  0.00     0.254 NA 
HETATM   44  C   UNL     1     -10.236  19.693  70.115  1.00  0.00     0.750 A  
HETATM   45  C   UNL     1     -10.518  19.632  71.489  1.00  0.00     3.278 A  
HETATM   46  N   UNL     1     -11.085  20.681  72.197  1.00  0.00     7.159 NA 
HETATM   47  N   UNL     1     -10.219  18.493  72.159  1.00  0.00     4.072 NA 
HETATM   48  H1  UNL     1     -11.290  20.636  73.196  1.00  0.00     0.000 HD 
HETATM   49  C   UNL     1      -9.708  17.453  71.464  1.00  0.00     6.681 A  
HETATM   50  H2  UNL     1     -11.951  20.935  71.721  1.00  0.00     0.000 HD 
HETATM   51  N   UNL     1      -9.444  17.374  70.140  1.00  0.00     1.547 NA 
HETATM   52  C   UNL     1      -9.722  18.544  69.536  1.00  0.00     0.282 A  
ENDBRANCH  34  41
ENDBRANCH  31  32
ENDBRANCH  30  31
ENDBRANCH  27  30
ENDBRANCH  26  27
ENDBRANCH  23  26
ENDBRANCH  22  23
ENDBRANCH  21  22
ENDBRANCH  14  21
ENDBRANCH   8  12
ENDBRANCH   4   6
TORSDOF 11
ENDMDL
MODEL      355
REMARK 921   NORMALIZED FREE ENERGY PREDICTED BY IDOCK:   81.34 KCAL/MOL
REMARK 922        TOTAL FREE ENERGY PREDICTED BY IDOCK:  131.45 KCAL/MOL
REMARK 923 INTER-LIGAND FREE ENERGY PREDICTED BY IDOCK:  100.68 KCAL/MOL
REMARK 924 INTRA-LIGAND FREE ENERGY PREDICTED BY IDOCK:   30.77 KCAL/MOL
REMARK 927      BINDING AFFINITY PREDICTED BY RF-SCORE:    0.00 PKD
ROOT
HETATM    1  N   UNL     1     -12.840  16.378  63.760  1.00  0.00     1.861 N  
HETATM    2  H1  UNL     1     -12.247  16.107  62.976  1.00  0.00     0.000 HD 
HETATM    3  H2  UNL     1     -13.473  17.172  63.663  1.00  0.00     0.000 HD 
HETATM    4  C   UNL     1     -12.795  15.699  64.927  1.00  0.00     1.080 C  
HETATM    5  O   UNL     1     -13.510  16.027  65.874  1.00  0.00     3.778 OA 
ENDROOT
BRANCH   4   6
HETATM    6  C   UNL     1     -11.843  14.568  65.003  1.00  0.00    -0.399 C  
HETATM    7  C   UNL     1     -11.756  13.937  66.189  1.00  0.00    -0.376 C  
HETATM    8  N   UNL     1     -10.957  12.818  66.411  1.00  0.00    -0.271 NA 
HETATM    9  C   UNL     1     -11.064  14.084  63.810  1.00  0.00     0.549 C  
HETATM   10  C   UNL     1     -10.093  12.429  65.381  1.00  0.00    -0.269 C  
HETATM   11  C   UNL     1     -10.097  12.980  64.158  1.00  0.00    -0.146 C  
BRANCH   8  12
HETATM   12  C   UNL     1     -11.079  11.930  67.588  1.00  0.00    -0.257 C  
HETATM   13  O   UNL     1     -10.198  10.799  67.410  1.00  0.00    -0.189 OA 
HETATM   14  C   UNL     1     -10.944   9.766  66.728  1.00  0.00     0.111 C  
HETATM   15  H   UNL     1     -13.375  10.454  69.448  1.00  0.00     0.000 HD 
HETATM   16  C   UNL     1     -12.424  10.020  67.004  1.00  0.00     6.877 C  
HETATM   17  H   UNL     1     -13.931   9.058  67.849  1.00  0.00     0.000 HD 
HETATM   18  C   UNL     1     -12.436  11.269  67.880  1.00  0.00     1.516 C  
HETATM   19  O   UNL     1     -13.010   8.899  67.678  1.00  0.00     9.069 OA 
HETATM   20  O   UNL     1     -12.536  10.863  69.268  1.00  0.00    -0.392 OA 
BRANCH  14  21
HETATM   21  C   UNL     1     -10.624   9.778  65.225  1.00  0.00     0.824 C  
BRANCH  21  22
HETATM   22  O   UNL     1      -9.576  10.694  64.931  1.00  0.00    -0.223 OA 
BRANCH  22  23
HETATM   23  P   UNL     1      -8.813  11.390  66.149  1.00  0.00    -0.107 P  
HETATM   24  O   UNL     1      -9.606  12.312  67.012  1.00  0.00    -0.199 OA 
HETATM   25  O   UNL     1      -8.372  10.114  67.024  1.00  0.00    -0.124 OA 
BRANCH  23  26
HETATM   26  O   UNL     1      -7.428  11.920  65.603  1.00  0.00     0.885 OA 
BRANCH  26  27
HETATM   27  P   UNL     1      -6.145  12.185  66.489  1.00  0.00     1.160 P  
HETATM   28  O   UNL     1      -5.142  12.899  65.456  1.00  0.00     3.524 OA 
HETATM   29  O   UNL     1      -5.468  11.012  67.110  1.00  0.00    -0.043 OA 
BRANCH  27  30
HETATM   30  O   UNL     1      -6.507  13.368  67.511  1.00  0.00    -0.166 OA 
BRANCH  30  31
HETATM   31  C   UNL     1      -5.580  13.778  68.510  1.00  0.00    -0.093 C  
BRANCH  31  32
HETATM   32  C   UNL     1      -6.143  13.708  69.926  1.00  0.00    -0.135 C  
HETATM   33  O   UNL     1      -5.994  14.966  70.613  1.00  0.00    -0.152 OA 
HETATM   34  C   UNL     1      -6.887  14.854  71.737  1.00  0.00     1.793 C  
HETATM   35  H   UNL     1      -8.827  11.833  70.002  1.00  0.00     0.000 HD 
HETATM   36  C   UNL     1      -8.141  14.154  71.190  1.00  0.00     4.529 C  
HETATM   37  C   UNL     1      -7.639  13.415  69.947  1.00  0.00     1.226 C  
HETATM   38  H   UNL     1      -9.516  12.810  71.777  1.00  0.00     0.000 HD 
HETATM   39  O   UNL     1      -8.741  13.243  72.115  1.00  0.00    12.852 OA 
HETATM   40  O   UNL     1      -7.895  12.016  69.989  1.00  0.00     1.251 OA 
BRANCH  34  41
HETATM   41  N   UNL     1      -7.161  16.159  72.305  1.00  0.00     6.309 NA 
HETATM   42  C   UNL     1      -7.533  16.460  73.584  1.00  0.00    13.344 A  
HETATM   43  N   UNL     1      -7.655  17.761  73.767  1.00  0.00    10.733 NA 
HETATM   44  C   UNL     1      -7.374  18.320  72.537  1.00  0.00     8.321 A  
HETATM   45  C   UNL     1      -7.322  19.648  72.083  1.00  0.00     2.431 A  
HETATM   46  N   UNL     1      -7.527  20.743  72.909  1.00  0.00     2.331 NA 
HETATM   47  N   UNL     1      -7.059  19.872  70.773  1.00  0.00     0.377 NA 
HETATM   48  H1  UNL     1      -7.489  21.708  72.579  1.00  0.00     0.000 HD 
HETATM   49  C   UNL     1      -6.815  18.811  69.975  1.00  0.00     0.323 A  
HETATM   50  H2  UNL     1      -6.873  20.663  73.688  1.00  0.00     0.000 HD 
HETATM   51  N   UNL     1      -6.784  17.499  70.305  1.00  0.00     0.702 NA 
HETATM   52  C   UNL     1      -7.091  17.335  71.605  1.00  0.00     6.462 A  
ENDBRANCH  34  41
ENDBRANCH  31  32
ENDBRANCH  30  31
ENDBRANCH  27  30
ENDBRANCH  26  27
ENDBRANCH  23  26
ENDBRANCH  22  23
ENDBRANCH  21  22
ENDBRANCH  14  21
ENDBRANCH   8  12
ENDBRANCH   4   6
TORSDOF 11
ENDMDL
MODEL      356
REMARK 921   NORMALIZED FREE ENERGY PREDICTED BY IDOCK:   91.65 KCAL/MOL
REMARK 922        TOTAL FREE ENERGY PREDICTED BY IDOCK:  148.38 KCAL/MOL
REMARK 923 INTER-LIGAND FREE ENERGY PREDICTED BY IDOCK:  113.43 KCAL/MOL
REMARK 924 INTRA-LIGAND FREE ENERGY PREDICTED BY IDOCK:   34.95 KCAL/MOL
REMARK 927      BINDING AFFINITY PREDICTED BY RF-SCORE:    0.00 PKD
ROOT
HETATM    1  N   UNL     1      -9.409   7.641  68.117  1.00  0.00    -0.144 N  
HETATM    2  H1  UNL     1      -9.368   8.333  67.368  1.00  0.00     0.000 HD 
HETATM    3  H2  UNL     1      -8.548   7.341  68.574  1.00  0.00     0.000 HD 
HETATM    4  C   UNL     1     -10.591   7.117  68.510  1.00  0.00    -0.187 C  
HETATM    5  O   UNL     1     -10.640   6.282  69.413  1.00  0.00    -0.214 OA 
ENDROOT
BRANCH   4   6
HETATM    6  C   UNL     1     -11.798   7.587  67.794  1.00  0.00     2.140 C  
HETATM    7  C   UNL     1     -11.639   8.656  66.991  1.00  0.00     2.742 C  
HETATM    8  N   UNL     1     -12.656   9.185  66.200  1.00  0.00    11.156 NA 
HETATM    9  C   UNL     1     -13.121   6.877  67.884  1.00  0.00    11.447 C  
HETATM   10  C   UNL     1     -13.943   8.662  66.371  1.00  0.00    26.527 C  
HETATM   11  C   UNL     1     -14.218   7.597  67.139  1.00  0.00    26.245 C  
BRANCH   8  12
HETATM   12  C   UNL     1     -12.436  10.141  65.092  1.00  0.00     8.283 C  
HETATM   13  O   UNL     1     -11.118   9.918  64.543  1.00  0.00     2.079 OA 
HETATM   14  C   UNL     1     -10.193  10.761  65.268  1.00  0.00    -0.285 C  
HETATM   15  H   UNL     1     -12.699  13.360  64.403  1.00  0.00     0.000 HD 
HETATM   16  C   UNL     1     -10.999  11.918  65.852  1.00  0.00    -0.307 C  
HETATM   17  H   UNL     1     -11.020  13.890  65.713  1.00  0.00     0.000 HD 
HETATM   18  C   UNL     1     -12.431  11.646  65.402  1.00  0.00     1.408 C  
HETATM   19  O   UNL     1     -10.518  13.170  65.349  1.00  0.00    -0.284 OA 
HETATM   20  O   UNL     1     -12.702  12.429  64.212  1.00  0.00    -0.638 OA 
BRANCH  14  21
HETATM   21  C   UNL     1      -9.470   9.950  66.354  1.00  0.00    -0.183 C  
BRANCH  21  22
HETATM   22  O   UNL     1     -10.170   8.747  66.649  1.00  0.00    -0.277 OA 
BRANCH  22  23
HETATM   23  P   UNL     1     -10.210   7.601  65.538  1.00  0.00     3.225 P  
HETATM   24  O   UNL     1     -10.045   6.194  66.005  1.00  0.00     0.050 OA 
HETATM   25  O   UNL     1     -11.694   7.778  64.944  1.00  0.00    11.117 OA 
BRANCH  23  26
HETATM   26  O   UNL     1      -9.305   8.075  64.333  1.00  0.00     1.064 OA 
BRANCH  26  27
HETATM   27  P   UNL     1      -7.800   8.545  64.457  1.00  0.00    -0.151 P  
HETATM   28  O   UNL     1      -7.552   9.312  63.067  1.00  0.00    -0.105 OA 
HETATM   29  O   UNL     1      -6.753   7.501  64.644  1.00  0.00    -0.049 OA 
BRANCH  27  30
HETATM   30  O   UNL     1      -7.759   9.734  65.533  1.00  0.00    -0.112 OA 
BRANCH  30  31
HETATM   31  C   UNL     1      -7.978  11.084  65.138  1.00  0.00     0.250 C  
BRANCH  31  32
HETATM   32  C   UNL     1      -6.998  12.069  65.768  1.00  0.00     1.831 C  
HETATM   33  O   UNL     1      -7.509  13.415  65.732  1.00  0.00     3.004 OA 
HETATM   34  C   UNL     1      -6.682  14.125  66.673  1.00  0.00     2.258 C  
HETATM   35  H   UNL     1      -5.491  10.701  68.334  1.00  0.00     0.000 HD 
HETATM   36  C   UNL     1      -6.491  13.158  67.853  1.00  0.00    -0.138 C  
HETATM   37  C   UNL     1      -6.744  11.777  67.243  1.00  0.00    -0.133 C  
HETATM   38  H   UNL     1      -5.071  12.625  69.172  1.00  0.00     0.000 HD 
HETATM   39  O   UNL     1      -5.189  13.223  68.444  1.00  0.00    -0.068 OA 
HETATM   40  O   UNL     1      -5.649  10.883  67.416  1.00  0.00    -0.043 OA 
BRANCH  34  41
HETATM   41  N   UNL     1      -7.302  15.378  67.055  1.00  0.00    -0.165 NA 
HETATM   42  C   UNL     1      -8.134  16.167  66.311  1.00  0.00    -0.175 A  
HETATM   43  N   UNL     1      -8.551  17.218  66.991  1.00  0.00    -0.219 NA 
HETATM   44  C   UNL     1      -7.934  17.113  68.221  1.00  0.00    -0.236 A  
HETATM   45  C   UNL     1      -7.979  17.904  69.380  1.00  0.00     0.362 A  
HETATM   46  N   UNL     1      -8.779  19.030  69.503  1.00  0.00     0.260 NA 
HETATM   47  N   UNL     1      -7.201  17.553  70.432  1.00  0.00     1.817 NA 
HETATM   48  H1  UNL     1      -8.811  19.605  70.345  1.00  0.00     0.000 HD 
HETATM   49  C   UNL     1      -6.454  16.432  70.333  1.00  0.00     0.524 A  
HETATM   50  H2  UNL     1      -9.737  18.747  69.292  1.00  0.00     0.000 HD 
HETATM   51  N   UNL     1      -6.368  15.565  69.297  1.00  0.00    -0.124 NA 
HETATM   52  C   UNL     1      -7.129  15.986  68.270  1.00  0.00    -0.120 A  
ENDBRANCH  34  41
ENDBRANCH  31  32
ENDBRANCH  30  31
ENDBRANCH  27  30
ENDBRANCH  26  27
ENDBRANCH  23  26
ENDBRANCH  22  23
ENDBRANCH  21  22
ENDBRANCH  14  21
ENDBRANCH   8  12
ENDBRANCH   4   6
TORSDOF 11
ENDMDL
