MODEL        1
REMARK 921   NORMALIZED FREE ENERGY PREDICTED BY IDOCK:   -7.18 KCAL/MOL
REMARK 922        TOTAL FREE ENERGY PREDICTED BY IDOCK:  -10.01 KCAL/MOL
REMARK 923 INTER-LIGAND FREE ENERGY PREDICTED BY IDOCK:   -9.28 KCAL/MOL
REMARK 924 INTRA-LIGAND FREE ENERGY PREDICTED BY IDOCK:   -0.73 KCAL/MOL
REMARK 927      BINDING AFFINITY PREDICTED BY RF-SCORE:    0.00 PKD
ROOT
HETATM    1  C   UNL     1     -14.187  15.266  71.336  1.00  0.00    -0.589 C  
HETATM    2  C   UNL     1     -13.002  14.636  72.091  1.00  0.00    -0.342 C  
HETATM    3  C   UNL     1     -13.312  13.144  72.318  1.00  0.00    -0.621 C  
HETATM    4  C   UNL     1     -12.835  15.309  73.465  1.00  0.00    -0.681 C  
HETATM    5  N   UNL     1     -11.749  14.701  71.317  1.00  0.00    -0.464 NA 
HETATM    6  H   UNL     1     -11.818  14.112  70.488  1.00  0.00     0.000 HD 
ENDROOT
BRANCH   5   7
HETATM    7  C   UNL     1     -11.314  16.052  70.943  1.00  0.00    -0.385 C  
BRANCH   7   8
HETATM    8  C   UNL     1     -11.155  16.189  69.417  1.00  0.00    -0.335 C  
HETATM    9  H   UNL     1     -10.240  17.411  68.170  1.00  0.00     0.000 HD 
HETATM   10  O   UNL     1     -10.338  17.327  69.111  1.00  0.00    -0.330 OA 
BRANCH   8  11
HETATM   11  C   UNL     1     -10.526  14.914  68.836  1.00  0.00    -0.242 C  
BRANCH  11  12
HETATM   12  O   UNL     1     -11.558  13.979  68.461  1.00  0.00    -0.281 OA 
BRANCH  12  13
HETATM   13  C   UNL     1     -11.094  12.859  67.811  1.00  0.00    -0.259 A  
HETATM   14  C   UNL     1     -10.441  11.820  68.485  1.00  0.00    -0.233 A  
HETATM   15  C   UNL     1     -10.030  10.681  67.804  1.00  0.00    -0.192 A  
HETATM   16  C   UNL     1     -10.262  10.570  66.438  1.00  0.00    -0.296 A  
HETATM   17  C   UNL     1     -10.879  11.612  65.734  1.00  0.00    -0.334 A  
HETATM   18  C   UNL     1     -11.256  12.794  66.413  1.00  0.00    -0.339 A  
HETATM   19  C   UNL     1     -11.873  13.952  65.656  1.00  0.00    -0.383 C  
HETATM   20  C   UNL     1     -11.710  13.844  64.135  1.00  0.00    -0.340 C  
HETATM   21  C   UNL     1     -12.062  12.432  63.639  1.00  0.00    -0.556 C  
HETATM   22  O   UNL     1     -12.532  14.812  63.479  1.00  0.00    -1.053 OA 
HETATM   23  H   UNL     1     -12.431  14.745  62.537  1.00  0.00     0.000 HD 
HETATM   24  O   UNL     1     -13.409  12.054  63.952  1.00  0.00    -0.669 OA 
HETATM   25  C   UNL     1     -11.086  11.424  64.245  1.00  0.00    -0.356 C  
HETATM   26  H   UNL     1     -13.627  11.181  63.645  1.00  0.00     0.000 HD 
ENDBRANCH  12  13
ENDBRANCH  11  12
ENDBRANCH   8  11
ENDBRANCH   7   8
ENDBRANCH   5   7
TORSDOF 5
ENDMDL
MODEL        2
REMARK 921   NORMALIZED FREE ENERGY PREDICTED BY IDOCK:   -7.05 KCAL/MOL
REMARK 922        TOTAL FREE ENERGY PREDICTED BY IDOCK:   -9.83 KCAL/MOL
REMARK 923 INTER-LIGAND FREE ENERGY PREDICTED BY IDOCK:   -8.91 KCAL/MOL
REMARK 924 INTRA-LIGAND FREE ENERGY PREDICTED BY IDOCK:   -0.92 KCAL/MOL
REMARK 927      BINDING AFFINITY PREDICTED BY RF-SCORE:    0.00 PKD
ROOT
HETATM    1  C   UNL     1     -11.426  16.053  71.014  1.00  0.00    -0.460 C  
HETATM    2  C   UNL     1     -10.936  15.323  69.750  1.00  0.00    -0.284 C  
HETATM    3  C   UNL     1      -9.470  15.724  69.499  1.00  0.00    -0.248 C  
HETATM    4  C   UNL     1     -11.770  15.760  68.533  1.00  0.00    -0.328 C  
HETATM    5  N   UNL     1     -10.960  13.857  69.906  1.00  0.00    -0.452 NA 
HETATM    6  H   UNL     1     -10.276  13.568  70.605  1.00  0.00     0.000 HD 
ENDROOT
BRANCH   5   7
HETATM    7  C   UNL     1     -12.274  13.283  70.217  1.00  0.00    -0.321 C  
BRANCH   7   8
HETATM    8  C   UNL     1     -12.151  11.826  70.703  1.00  0.00    -0.311 C  
HETATM    9  H   UNL     1     -13.118  10.636  71.942  1.00  0.00     0.000 HD 
HETATM   10  O   UNL     1     -13.193  11.535  71.642  1.00  0.00    -0.411 OA 
BRANCH   8  11
HETATM   11  C   UNL     1     -12.232  10.865  69.508  1.00  0.00    -0.261 C  
BRANCH  11  12
HETATM   12  O   UNL     1     -12.228  11.609  68.272  1.00  0.00    -0.525 OA 
BRANCH  12  13
HETATM   13  C   UNL     1     -11.399  11.089  67.304  1.00  0.00    -0.188 A  
HETATM   14  C   UNL     1     -10.580   9.978  67.541  1.00  0.00    -0.336 A  
HETATM   15  C   UNL     1      -9.794   9.448  66.524  1.00  0.00    -0.325 A  
HETATM   16  C   UNL     1      -9.813  10.027  65.261  1.00  0.00    -0.388 A  
HETATM   17  C   UNL     1     -10.595  11.163  65.010  1.00  0.00    -0.340 A  
HETATM   18  C   UNL     1     -11.361  11.735  66.053  1.00  0.00    -0.335 A  
HETATM   19  C   UNL     1     -12.167  12.994  65.813  1.00  0.00    -0.511 C  
HETATM   20  C   UNL     1     -11.791  13.723  64.517  1.00  0.00    -0.417 C  
HETATM   21  C   UNL     1     -11.682  12.741  63.340  1.00  0.00    -0.488 C  
HETATM   22  O   UNL     1     -12.754  14.737  64.222  1.00  0.00    -0.691 OA 
HETATM   23  H   UNL     1     -12.521  15.188  63.420  1.00  0.00     0.000 HD 
HETATM   24  O   UNL     1     -12.905  12.034  63.093  1.00  0.00    -0.794 OA 
HETATM   25  C   UNL     1     -10.554  11.746  63.613  1.00  0.00    -0.496 C  
HETATM   26  H   UNL     1     -12.838  11.427  62.365  1.00  0.00     0.000 HD 
ENDBRANCH  12  13
ENDBRANCH  11  12
ENDBRANCH   8  11
ENDBRANCH   7   8
ENDBRANCH   5   7
TORSDOF 5
ENDMDL
MODEL        3
REMARK 921   NORMALIZED FREE ENERGY PREDICTED BY IDOCK:   -6.93 KCAL/MOL
REMARK 922        TOTAL FREE ENERGY PREDICTED BY IDOCK:   -9.68 KCAL/MOL
REMARK 923 INTER-LIGAND FREE ENERGY PREDICTED BY IDOCK:   -8.95 KCAL/MOL
REMARK 924 INTRA-LIGAND FREE ENERGY PREDICTED BY IDOCK:   -0.72 KCAL/MOL
REMARK 927      BINDING AFFINITY PREDICTED BY RF-SCORE:    0.00 PKD
ROOT
HETATM    1  C   UNL     1     -11.188   6.991  72.282  1.00  0.00    -0.299 C  
HETATM    2  C   UNL     1     -11.072   7.482  70.827  1.00  0.00    -0.265 C  
HETATM    3  C   UNL     1     -11.341   6.288  69.891  1.00  0.00    -0.504 C  
HETATM    4  C   UNL     1      -9.646   7.995  70.557  1.00  0.00    -0.170 C  
HETATM    5  N   UNL     1     -12.073   8.515  70.504  1.00  0.00    -0.482 NA 
HETATM    6  H   UNL     1     -13.010   8.114  70.526  1.00  0.00     0.000 HD 
ENDROOT
BRANCH   5   7
HETATM    7  C   UNL     1     -12.020   9.720  71.341  1.00  0.00    -0.411 C  
BRANCH   7   8
HETATM    8  C   UNL     1     -12.636  10.933  70.619  1.00  0.00    -0.346 C  
HETATM    9  H   UNL     1     -13.517  12.620  71.135  1.00  0.00     0.000 HD 
HETATM   10  O   UNL     1     -13.137  11.871  71.580  1.00  0.00    -0.436 OA 
BRANCH   8  11
HETATM   11  C   UNL     1     -11.582  11.605  69.725  1.00  0.00    -0.315 C  
BRANCH  11  12
HETATM   12  O   UNL     1     -12.092  11.752  68.384  1.00  0.00    -0.490 OA 
BRANCH  12  13
HETATM   13  C   UNL     1     -11.308  11.167  67.416  1.00  0.00    -0.255 A  
HETATM   14  C   UNL     1     -10.541  10.023  67.668  1.00  0.00    -0.323 A  
HETATM   15  C   UNL     1      -9.800   9.430  66.652  1.00  0.00    -0.309 A  
HETATM   16  C   UNL     1      -9.814   9.977  65.375  1.00  0.00    -0.384 A  
HETATM   17  C   UNL     1     -10.544  11.143  65.108  1.00  0.00    -0.319 A  
HETATM   18  C   UNL     1     -11.261  11.778  66.148  1.00  0.00    -0.363 A  
HETATM   19  C   UNL     1     -12.009  13.069  65.889  1.00  0.00    -0.491 C  
HETATM   20  C   UNL     1     -11.621  13.746  64.568  1.00  0.00    -0.392 C  
HETATM   21  C   UNL     1     -11.582  12.730  63.416  1.00  0.00    -0.443 C  
HETATM   22  O   UNL     1     -12.539  14.798  64.263  1.00  0.00    -0.706 OA 
HETATM   23  H   UNL     1     -12.299  15.217  63.445  1.00  0.00     0.000 HD 
HETATM   24  O   UNL     1     -12.843  12.079  63.208  1.00  0.00    -0.771 OA 
HETATM   25  C   UNL     1     -10.500  11.688  63.695  1.00  0.00    -0.483 C  
HETATM   26  H   UNL     1     -12.819  11.450  62.495  1.00  0.00     0.000 HD 
ENDBRANCH  12  13
ENDBRANCH  11  12
ENDBRANCH   8  11
ENDBRANCH   7   8
ENDBRANCH   5   7
TORSDOF 5
ENDMDL
MODEL        4
REMARK 921   NORMALIZED FREE ENERGY PREDICTED BY IDOCK:   -6.91 KCAL/MOL
REMARK 922        TOTAL FREE ENERGY PREDICTED BY IDOCK:   -9.66 KCAL/MOL
REMARK 923 INTER-LIGAND FREE ENERGY PREDICTED BY IDOCK:   -8.66 KCAL/MOL
REMARK 924 INTRA-LIGAND FREE ENERGY PREDICTED BY IDOCK:   -1.00 KCAL/MOL
REMARK 927      BINDING AFFINITY PREDICTED BY RF-SCORE:    0.00 PKD
ROOT
HETATM    1  C   UNL     1      -8.761  16.486  68.156  1.00  0.00    -0.194 C  
HETATM    2  C   UNL     1     -10.125  17.200  68.121  1.00  0.00    -0.311 C  
HETATM    3  C   UNL     1     -10.529  17.397  66.648  1.00  0.00    -0.253 C  
HETATM    4  C   UNL     1     -10.011  18.586  68.781  1.00  0.00    -0.417 C  
HETATM    5  N   UNL     1     -11.190  16.401  68.756  1.00  0.00    -0.335 NA 
HETATM    6  H   UNL     1     -11.369  15.559  68.210  1.00  0.00     0.000 HD 
ENDROOT
BRANCH   5   7
HETATM    7  C   UNL     1     -10.955  16.051  70.162  1.00  0.00    -0.367 C  
BRANCH   7   8
HETATM    8  C   UNL     1     -12.074  15.144  70.710  1.00  0.00    -0.336 C  
HETATM    9  H   UNL     1     -14.045  15.142  70.726  1.00  0.00     0.000 HD 
HETATM   10  O   UNL     1     -13.355  15.701  70.388  1.00  0.00    -0.338 OA 
BRANCH   8  11
HETATM   11  C   UNL     1     -11.946  13.733  70.116  1.00  0.00    -0.334 C  
BRANCH  11  12
HETATM   12  O   UNL     1     -12.167  13.774  68.691  1.00  0.00    -0.347 OA 
BRANCH  12  13
HETATM   13  C   UNL     1     -11.565  12.748  67.999  1.00  0.00    -0.341 A  
HETATM   14  C   UNL     1     -10.968  11.660  68.647  1.00  0.00    -0.266 A  
HETATM   15  C   UNL     1     -10.414  10.617  67.914  1.00  0.00    -0.243 A  
HETATM   16  C   UNL     1     -10.445  10.653  66.525  1.00  0.00    -0.285 A  
HETATM   17  C   UNL     1     -11.003  11.749  65.854  1.00  0.00    -0.354 A  
HETATM   18  C   UNL     1     -11.525  12.836  66.594  1.00  0.00    -0.404 A  
HETATM   19  C   UNL     1     -12.080  14.053  65.884  1.00  0.00    -0.448 C  
HETATM   20  C   UNL     1     -11.699  14.122  64.400  1.00  0.00    -0.392 C  
HETATM   21  C   UNL     1     -11.913  12.766  63.710  1.00  0.00    -0.510 C  
HETATM   22  O   UNL     1     -12.463  15.133  63.739  1.00  0.00    -1.020 OA 
HETATM   23  H   UNL     1     -12.227  15.176  62.820  1.00  0.00     0.000 HD 
HETATM   24  O   UNL     1     -13.272  12.315  63.781  1.00  0.00    -0.771 OA 
HETATM   25  C   UNL     1     -10.988  11.724  64.340  1.00  0.00    -0.397 C  
HETATM   26  H   UNL     1     -13.405  11.476  63.354  1.00  0.00     0.000 HD 
ENDBRANCH  12  13
ENDBRANCH  11  12
ENDBRANCH   8  11
ENDBRANCH   7   8
ENDBRANCH   5   7
TORSDOF 5
ENDMDL
MODEL        5
REMARK 921   NORMALIZED FREE ENERGY PREDICTED BY IDOCK:   -6.78 KCAL/MOL
REMARK 922        TOTAL FREE ENERGY PREDICTED BY IDOCK:   -9.49 KCAL/MOL
REMARK 923 INTER-LIGAND FREE ENERGY PREDICTED BY IDOCK:   -9.06 KCAL/MOL
REMARK 924 INTRA-LIGAND FREE ENERGY PREDICTED BY IDOCK:   -0.43 KCAL/MOL
REMARK 927      BINDING AFFINITY PREDICTED BY RF-SCORE:    0.00 PKD
ROOT
HETATM    1  C   UNL     1     -14.351  15.198  71.815  1.00  0.00    -0.696 C  
HETATM    2  C   UNL     1     -12.869  14.967  72.161  1.00  0.00    -0.335 C  
HETATM    3  C   UNL     1     -12.634  15.423  73.613  1.00  0.00    -0.723 C  
HETATM    4  C   UNL     1     -11.975  15.815  71.238  1.00  0.00    -0.485 C  
HETATM    5  N   UNL     1     -12.493  13.543  72.091  1.00  0.00     0.012 NA 
HETATM    6  H   UNL     1     -12.972  13.018  72.823  1.00  0.00     0.000 HD 
ENDROOT
BRANCH   5   7
HETATM    7  C   UNL     1     -12.707  12.902  70.789  1.00  0.00    -0.149 C  
BRANCH   7   8
HETATM    8  C   UNL     1     -12.163  11.461  70.774  1.00  0.00    -0.376 C  
HETATM    9  H   UNL     1     -12.469   9.797  71.785  1.00  0.00     0.000 HD 
HETATM   10  O   UNL     1     -12.805  10.686  71.794  1.00  0.00    -0.437 OA 
BRANCH   8  11
HETATM   11  C   UNL     1     -12.399  10.823  69.397  1.00  0.00    -0.062 C  
BRANCH  11  12
HETATM   12  O   UNL     1     -11.925  11.702  68.356  1.00  0.00    -0.483 OA 
BRANCH  12  13
HETATM   13  C   UNL     1     -11.124  11.087  67.422  1.00  0.00    -0.305 A  
HETATM   14  C   UNL     1     -10.317   9.987  67.737  1.00  0.00    -0.261 A  
HETATM   15  C   UNL     1      -9.559   9.360  66.756  1.00  0.00    -0.234 A  
HETATM   16  C   UNL     1      -9.594   9.830  65.449  1.00  0.00    -0.359 A  
HETATM   17  C   UNL     1     -10.364  10.952  65.115  1.00  0.00    -0.344 A  
HETATM   18  C   UNL     1     -11.100  11.623  66.119  1.00  0.00    -0.335 A  
HETATM   19  C   UNL     1     -11.892  12.871  65.787  1.00  0.00    -0.469 C  
HETATM   20  C   UNL     1     -11.530  13.481  64.427  1.00  0.00    -0.394 C  
HETATM   21  C   UNL     1     -11.459  12.400  63.337  1.00  0.00    -0.448 C  
HETATM   22  O   UNL     1     -12.484  14.481  64.064  1.00  0.00    -0.842 OA 
HETATM   23  H   UNL     1     -12.260  14.859  63.221  1.00  0.00     0.000 HD 
HETATM   24  O   UNL     1     -12.697  11.695  63.173  1.00  0.00    -0.875 OA 
HETATM   25  C   UNL     1     -10.341  11.413  63.673  1.00  0.00    -0.463 C  
HETATM   26  H   UNL     1     -12.653  11.027  62.498  1.00  0.00     0.000 HD 
ENDBRANCH  12  13
ENDBRANCH  11  12
ENDBRANCH   8  11
ENDBRANCH   7   8
ENDBRANCH   5   7
TORSDOF 5
ENDMDL
MODEL        6
REMARK 921   NORMALIZED FREE ENERGY PREDICTED BY IDOCK:   -6.76 KCAL/MOL
REMARK 922        TOTAL FREE ENERGY PREDICTED BY IDOCK:   -9.46 KCAL/MOL
REMARK 923 INTER-LIGAND FREE ENERGY PREDICTED BY IDOCK:   -8.79 KCAL/MOL
REMARK 924 INTRA-LIGAND FREE ENERGY PREDICTED BY IDOCK:   -0.66 KCAL/MOL
REMARK 927      BINDING AFFINITY PREDICTED BY RF-SCORE:    0.00 PKD
ROOT
HETATM    1  C   UNL     1     -12.079  12.021  63.454  1.00  0.00    -0.597 C  
HETATM    2  C   UNL     1     -10.663  12.169  64.040  1.00  0.00    -0.384 C  
HETATM    3  C   UNL     1      -9.664  11.536  63.053  1.00  0.00    -0.382 C  
HETATM    4  C   UNL     1     -10.565  11.414  65.378  1.00  0.00    -0.333 C  
HETATM    5  N   UNL     1     -10.270  13.581  64.204  1.00  0.00    -0.758 NA 
HETATM    6  H   UNL     1     -10.177  14.026  63.291  1.00  0.00     0.000 HD 
ENDROOT
BRANCH   5   7
HETATM    7  C   UNL     1     -11.148  14.378  65.068  1.00  0.00    -0.380 C  
BRANCH   7   8
HETATM    8  C   UNL     1     -10.354  15.442  65.848  1.00  0.00    -0.341 C  
HETATM    9  H   UNL     1      -9.962  17.366  65.667  1.00  0.00     0.000 HD 
HETATM   10  O   UNL     1     -10.452  16.710  65.185  1.00  0.00    -0.647 OA 
BRANCH   8  11
HETATM   11  C   UNL     1     -10.891  15.553  67.283  1.00  0.00    -0.313 C  
BRANCH  11  12
HETATM   12  O   UNL     1     -11.090  14.237  67.840  1.00  0.00    -0.263 OA 
BRANCH  12  13
HETATM   13  C   UNL     1     -11.644  14.237  69.099  1.00  0.00    -0.305 A  
HETATM   14  C   UNL     1     -12.022  15.418  69.749  1.00  0.00    -0.381 A  
HETATM   15  C   UNL     1     -12.626  15.376  71.000  1.00  0.00    -0.491 A  
HETATM   16  C   UNL     1     -12.854  14.153  71.619  1.00  0.00    -0.428 A  
HETATM   17  C   UNL     1     -12.450  12.959  71.005  1.00  0.00    -0.374 A  
HETATM   18  C   UNL     1     -11.792  12.999  69.754  1.00  0.00    -0.381 A  
HETATM   19  C   UNL     1     -11.299  11.722  69.104  1.00  0.00    -0.340 C  
HETATM   20  C   UNL     1     -11.269  10.522  70.059  1.00  0.00    -0.315 C  
HETATM   21  C   UNL     1     -12.572  10.424  70.867  1.00  0.00    -0.383 C  
HETATM   22  O   UNL     1     -11.053   9.313  69.327  1.00  0.00    -0.412 OA 
HETATM   23  H   UNL     1     -11.035   8.570  69.919  1.00  0.00     0.000 HD 
HETATM   24  O   UNL     1     -13.731  10.279  70.034  1.00  0.00    -0.261 OA 
HETATM   25  C   UNL     1     -12.719  11.665  71.746  1.00  0.00    -0.322 C  
HETATM   26  H   UNL     1     -14.538  10.218  70.533  1.00  0.00     0.000 HD 
ENDBRANCH  12  13
ENDBRANCH  11  12
ENDBRANCH   8  11
ENDBRANCH   7   8
ENDBRANCH   5   7
TORSDOF 5
ENDMDL
MODEL        7
REMARK 921   NORMALIZED FREE ENERGY PREDICTED BY IDOCK:   -6.68 KCAL/MOL
REMARK 922        TOTAL FREE ENERGY PREDICTED BY IDOCK:   -9.36 KCAL/MOL
REMARK 923 INTER-LIGAND FREE ENERGY PREDICTED BY IDOCK:   -8.79 KCAL/MOL
REMARK 924 INTRA-LIGAND FREE ENERGY PREDICTED BY IDOCK:   -0.57 KCAL/MOL
REMARK 927      BINDING AFFINITY PREDICTED BY RF-SCORE:    0.00 PKD
ROOT
HETATM    1  C   UNL     1      -6.853  18.712  66.557  1.00  0.00    -0.231 C  
HETATM    2  C   UNL     1      -7.144  20.132  66.037  1.00  0.00    -0.287 C  
HETATM    3  C   UNL     1      -6.510  20.275  64.641  1.00  0.00    -0.306 C  
HETATM    4  C   UNL     1      -6.502  21.176  66.969  1.00  0.00    -0.414 C  
HETATM    5  N   UNL     1      -8.589  20.385  65.881  1.00  0.00    -0.534 NA 
HETATM    6  H   UNL     1      -8.969  19.797  65.139  1.00  0.00     0.000 HD 
ENDROOT
BRANCH   5   7
HETATM    7  C   UNL     1      -9.386  20.232  67.104  1.00  0.00    -0.405 C  
BRANCH   7   8
HETATM    8  C   UNL     1     -10.648  19.386  66.851  1.00  0.00    -0.476 C  
HETATM    9  H   UNL     1     -11.439  18.398  65.340  1.00  0.00     0.000 HD 
HETATM   10  O   UNL     1     -10.660  18.920  65.496  1.00  0.00    -0.572 OA 
BRANCH   8  11
HETATM   11  C   UNL     1     -10.686  18.195  67.820  1.00  0.00    -0.335 C  
BRANCH  11  12
HETATM   12  O   UNL     1     -10.479  16.963  67.099  1.00  0.00    -0.318 OA 
BRANCH  12  13
HETATM   13  C   UNL     1     -10.981  15.849  67.731  1.00  0.00    -0.315 A  
HETATM   14  C   UNL     1     -11.362  15.863  69.078  1.00  0.00    -0.371 A  
HETATM   15  C   UNL     1     -11.913  14.732  69.670  1.00  0.00    -0.360 A  
HETATM   16  C   UNL     1     -12.084  13.573  68.922  1.00  0.00    -0.315 A  
HETATM   17  C   UNL     1     -11.676  13.523  67.583  1.00  0.00    -0.398 A  
HETATM   18  C   UNL     1     -11.071  14.655  66.989  1.00  0.00    -0.333 A  
HETATM   19  C   UNL     1     -10.573  14.599  65.559  1.00  0.00    -0.369 C  
HETATM   20  C   UNL     1     -10.474  13.174  65.002  1.00  0.00    -0.342 C  
HETATM   21  C   UNL     1     -11.741  12.364  65.321  1.00  0.00    -0.390 C  
HETATM   22  O   UNL     1     -10.258  13.209  63.589  1.00  0.00    -0.644 OA 
HETATM   23  H   UNL     1     -10.197  12.326  63.244  1.00  0.00     0.000 HD 
HETATM   24  O   UNL     1     -12.928  12.955  64.776  1.00  0.00    -0.743 OA 
HETATM   25  C   UNL     1     -11.882  12.221  66.836  1.00  0.00    -0.334 C  
HETATM   26  H   UNL     1     -13.712  12.455  64.973  1.00  0.00     0.000 HD 
ENDBRANCH  12  13
ENDBRANCH  11  12
ENDBRANCH   8  11
ENDBRANCH   7   8
ENDBRANCH   5   7
TORSDOF 5
ENDMDL
MODEL        8
REMARK 921   NORMALIZED FREE ENERGY PREDICTED BY IDOCK:   -6.62 KCAL/MOL
REMARK 922        TOTAL FREE ENERGY PREDICTED BY IDOCK:   -9.27 KCAL/MOL
REMARK 923 INTER-LIGAND FREE ENERGY PREDICTED BY IDOCK:   -8.19 KCAL/MOL
REMARK 924 INTRA-LIGAND FREE ENERGY PREDICTED BY IDOCK:   -1.09 KCAL/MOL
REMARK 927      BINDING AFFINITY PREDICTED BY RF-SCORE:    0.00 PKD
ROOT
HETATM    1  C   UNL     1      -9.185   9.684  64.963  1.00  0.00    -0.310 C  
HETATM    2  C   UNL     1      -9.579  11.003  65.652  1.00  0.00    -0.226 C  
HETATM    3  C   UNL     1      -8.388  11.477  66.506  1.00  0.00    -0.147 C  
HETATM    4  C   UNL     1     -10.781  10.770  66.585  1.00  0.00    -0.268 C  
HETATM    5  N   UNL     1      -9.867  12.076  64.682  1.00  0.00    -0.416 NA 
HETATM    6  H   UNL     1      -9.016  12.335  64.184  1.00  0.00     0.000 HD 
ENDROOT
BRANCH   5   7
HETATM    7  C   UNL     1     -10.942  11.784  63.727  1.00  0.00    -0.429 C  
BRANCH   7   8
HETATM    8  C   UNL     1     -12.036  12.867  63.762  1.00  0.00    -0.508 C  
HETATM    9  H   UNL     1     -13.862  13.046  64.484  1.00  0.00     0.000 HD 
HETATM   10  O   UNL     1     -13.187  12.377  64.462  1.00  0.00    -0.834 OA 
BRANCH   8  11
HETATM   11  C   UNL     1     -11.501  14.134  64.446  1.00  0.00    -0.332 C  
BRANCH  11  12
HETATM   12  O   UNL     1     -11.736  14.066  65.868  1.00  0.00    -0.341 OA 
BRANCH  12  13
HETATM   13  C   UNL     1     -11.274  15.157  66.568  1.00  0.00    -0.283 A  
HETATM   14  C   UNL     1     -10.632  16.230  65.939  1.00  0.00    -0.307 A  
HETATM   15  C   UNL     1     -10.223  17.339  66.672  1.00  0.00    -0.319 A  
HETATM   16  C   UNL     1     -10.447  17.383  68.042  1.00  0.00    -0.383 A  
HETATM   17  C   UNL     1     -11.054  16.305  68.700  1.00  0.00    -0.356 A  
HETATM   18  C   UNL     1     -11.428  15.154  67.968  1.00  0.00    -0.355 A  
HETATM   19  C   UNL     1     -12.033  13.958  68.673  1.00  0.00    -0.401 C  
HETATM   20  C   UNL     1     -11.861  13.994  70.197  1.00  0.00    -0.306 C  
HETATM   21  C   UNL     1     -12.218  15.378  70.761  1.00  0.00    -0.381 C  
HETATM   22  O   UNL     1     -12.673  12.991  70.810  1.00  0.00    -0.262 OA 
HETATM   23  H   UNL     1     -12.566  13.014  71.754  1.00  0.00     0.000 HD 
HETATM   24  O   UNL     1     -13.569  15.763  70.474  1.00  0.00    -0.766 OA 
HETATM   25  C   UNL     1     -11.252  16.421  70.198  1.00  0.00    -0.260 C  
HETATM   26  H   UNL     1     -13.790  16.619  70.823  1.00  0.00     0.000 HD 
ENDBRANCH  12  13
ENDBRANCH  11  12
ENDBRANCH   8  11
ENDBRANCH   7   8
ENDBRANCH   5   7
TORSDOF 5
ENDMDL
MODEL        9
REMARK 921   NORMALIZED FREE ENERGY PREDICTED BY IDOCK:   -6.54 KCAL/MOL
REMARK 922        TOTAL FREE ENERGY PREDICTED BY IDOCK:   -9.18 KCAL/MOL
REMARK 923 INTER-LIGAND FREE ENERGY PREDICTED BY IDOCK:   -8.64 KCAL/MOL
REMARK 924 INTRA-LIGAND FREE ENERGY PREDICTED BY IDOCK:   -0.54 KCAL/MOL
REMARK 927      BINDING AFFINITY PREDICTED BY RF-SCORE:    0.00 PKD
ROOT
HETATM    1  C   UNL     1     -14.170  15.187  71.469  1.00  0.00    -0.647 C  
HETATM    2  C   UNL     1     -13.029  14.371  72.103  1.00  0.00    -0.355 C  
HETATM    3  C   UNL     1     -13.568  12.968  72.441  1.00  0.00    -0.628 C  
HETATM    4  C   UNL     1     -12.567  15.038  73.411  1.00  0.00    -0.641 C  
HETATM    5  N   UNL     1     -11.895  14.184  71.179  1.00  0.00    -0.492 NA 
HETATM    6  H   UNL     1     -12.175  13.596  70.395  1.00  0.00     0.000 HD 
ENDROOT
BRANCH   5   7
HETATM    7  C   UNL     1     -11.279  15.422  70.687  1.00  0.00    -0.342 C  
BRANCH   7   8
HETATM    8  C   UNL     1     -11.465  15.577  69.166  1.00  0.00    -0.348 C  
HETATM    9  H   UNL     1     -10.983  16.899  67.784  1.00  0.00     0.000 HD 
HETATM   10  O   UNL     1     -10.869  16.803  68.723  1.00  0.00    -0.328 OA 
BRANCH   8  11
HETATM   11  C   UNL     1     -10.829  14.386  68.433  1.00  0.00    -0.248 C  
BRANCH  11  12
HETATM   12  O   UNL     1     -11.857  13.486  67.967  1.00  0.00    -0.341 OA 
BRANCH  12  13
HETATM   13  C   UNL     1     -11.879  13.317  66.602  1.00  0.00    -0.395 A  
HETATM   14  C   UNL     1     -12.560  14.196  65.751  1.00  0.00    -0.475 A  
HETATM   15  C   UNL     1     -12.519  14.023  64.373  1.00  0.00    -0.326 A  
HETATM   16  C   UNL     1     -11.801  12.965  63.829  1.00  0.00    -0.571 A  
HETATM   17  C   UNL     1     -11.142  12.050  64.662  1.00  0.00    -0.375 A  
HETATM   18  C   UNL     1     -11.220  12.193  66.067  1.00  0.00    -0.382 A  
HETATM   19  C   UNL     1     -10.561  11.181  66.980  1.00  0.00    -0.295 C  
HETATM   20  C   UNL     1     -10.151   9.887  66.265  1.00  0.00    -0.241 C  
HETATM   21  C   UNL     1      -9.432  10.190  64.942  1.00  0.00    -0.289 C  
HETATM   22  O   UNL     1      -9.311   9.100  67.111  1.00  0.00    -0.137 OA 
HETATM   23  H   UNL     1      -9.057   8.298  66.668  1.00  0.00     0.000 HD 
HETATM   24  O   UNL     1      -8.244  10.973  65.122  1.00  0.00    -0.366 OA 
HETATM   25  C   UNL     1     -10.391  10.914  63.997  1.00  0.00    -0.417 C  
HETATM   26  H   UNL     1      -7.799  11.160  64.304  1.00  0.00     0.000 HD 
ENDBRANCH  12  13
ENDBRANCH  11  12
ENDBRANCH   8  11
ENDBRANCH   7   8
ENDBRANCH   5   7
TORSDOF 5
ENDMDL
MODEL       10
REMARK 921   NORMALIZED FREE ENERGY PREDICTED BY IDOCK:   -6.45 KCAL/MOL
REMARK 922        TOTAL FREE ENERGY PREDICTED BY IDOCK:   -9.06 KCAL/MOL
REMARK 923 INTER-LIGAND FREE ENERGY PREDICTED BY IDOCK:   -8.63 KCAL/MOL
REMARK 924 INTRA-LIGAND FREE ENERGY PREDICTED BY IDOCK:   -0.44 KCAL/MOL
REMARK 927      BINDING AFFINITY PREDICTED BY RF-SCORE:    0.00 PKD
ROOT
HETATM    1  C   UNL     1      -8.062  18.401  66.863  1.00  0.00    -0.257 C  
HETATM    2  C   UNL     1      -9.576  18.655  66.983  1.00  0.00    -0.304 C  
HETATM    3  C   UNL     1      -9.831  20.159  66.774  1.00  0.00    -0.591 C  
HETATM    4  C   UNL     1     -10.063  18.273  68.392  1.00  0.00    -0.412 C  
HETATM    5  N   UNL     1     -10.346  17.940  65.949  1.00  0.00    -0.578 NA 
HETATM    6  H   UNL     1     -10.133  18.321  65.027  1.00  0.00     0.000 HD 
ENDROOT
BRANCH   5   7
HETATM    7  C   UNL     1     -10.182  16.482  65.942  1.00  0.00    -0.349 C  
BRANCH   7   8
HETATM    8  C   UNL     1     -11.248  15.800  65.063  1.00  0.00    -0.308 C  
HETATM    9  H   UNL     1     -12.195  16.198  63.381  1.00  0.00     0.000 HD 
HETATM   10  O   UNL     1     -11.538  16.619  63.923  1.00  0.00    -1.204 OA 
BRANCH   8  11
HETATM   11  C   UNL     1     -10.751  14.419  64.610  1.00  0.00    -0.336 C  
BRANCH  11  12
HETATM   12  O   UNL     1     -11.601  13.386  65.149  1.00  0.00    -0.298 OA 
BRANCH  12  13
HETATM   13  C   UNL     1     -11.005  12.148  65.225  1.00  0.00    -0.304 A  
HETATM   14  C   UNL     1     -10.535  11.474  64.092  1.00  0.00    -0.408 A  
HETATM   15  C   UNL     1      -9.892  10.248  64.212  1.00  0.00    -0.357 A  
HETATM   16  C   UNL     1      -9.716   9.679  65.467  1.00  0.00    -0.372 A  
HETATM   17  C   UNL     1     -10.210  10.316  66.614  1.00  0.00    -0.294 A  
HETATM   18  C   UNL     1     -10.908  11.541  66.493  1.00  0.00    -0.335 A  
HETATM   19  C   UNL     1     -11.497  12.213  67.715  1.00  0.00    -0.398 C  
HETATM   20  C   UNL     1     -11.564  11.298  68.944  1.00  0.00    -0.319 C  
HETATM   21  C   UNL     1     -10.242  10.542  69.145  1.00  0.00    -0.224 C  
HETATM   22  O   UNL     1     -11.876  12.061  70.112  1.00  0.00    -0.391 OA 
HETATM   23  H   UNL     1     -11.918  11.494  70.873  1.00  0.00     0.000 HD 
HETATM   24  O   UNL     1      -9.123  11.421  69.328  1.00  0.00    -0.389 OA 
HETATM   25  C   UNL     1      -9.992   9.628  67.946  1.00  0.00    -0.201 C  
HETATM   26  H   UNL     1      -8.305  10.954  69.452  1.00  0.00     0.000 HD 
ENDBRANCH  12  13
ENDBRANCH  11  12
ENDBRANCH   8  11
ENDBRANCH   7   8
ENDBRANCH   5   7
TORSDOF 5
ENDMDL
MODEL       11
REMARK 921   NORMALIZED FREE ENERGY PREDICTED BY IDOCK:   -6.44 KCAL/MOL
REMARK 922        TOTAL FREE ENERGY PREDICTED BY IDOCK:   -9.05 KCAL/MOL
REMARK 923 INTER-LIGAND FREE ENERGY PREDICTED BY IDOCK:   -7.95 KCAL/MOL
REMARK 924 INTRA-LIGAND FREE ENERGY PREDICTED BY IDOCK:   -1.09 KCAL/MOL
REMARK 927      BINDING AFFINITY PREDICTED BY RF-SCORE:    0.00 PKD
ROOT
HETATM    1  C   UNL     1      -8.956  20.418  67.112  1.00  0.00    -0.453 C  
HETATM    2  C   UNL     1      -9.570  19.031  66.845  1.00  0.00    -0.321 C  
HETATM    3  C   UNL     1     -10.732  19.202  65.848  1.00  0.00    -0.435 C  
HETATM    4  C   UNL     1     -10.136  18.445  68.151  1.00  0.00    -0.408 C  
HETATM    5  N   UNL     1      -8.606  18.103  66.227  1.00  0.00    -0.448 NA 
HETATM    6  H   UNL     1      -8.366  18.421  65.288  1.00  0.00     0.000 HD 
ENDROOT
BRANCH   5   7
HETATM    7  C   UNL     1      -7.385  17.859  67.004  1.00  0.00    -0.194 C  
BRANCH   7   8
HETATM    8  C   UNL     1      -6.906  16.402  66.857  1.00  0.00    -0.196 C  
HETATM    9  H   UNL     1      -5.177  15.458  66.775  1.00  0.00     0.000 HD 
HETATM   10  O   UNL     1      -5.473  16.356  66.866  1.00  0.00    -0.329 OA 
BRANCH   8  11
HETATM   11  C   UNL     1      -7.469  15.544  67.999  1.00  0.00    -0.127 C  
BRANCH  11  12
HETATM   12  O   UNL     1      -8.878  15.311  67.794  1.00  0.00    -0.169 OA 
BRANCH  12  13
HETATM   13  C   UNL     1      -9.174  14.068  67.282  1.00  0.00    -0.230 A  
HETATM   14  C   UNL     1      -8.604  12.895  67.791  1.00  0.00    -0.185 A  
HETATM   15  C   UNL     1      -8.965  11.653  67.282  1.00  0.00    -0.169 A  
HETATM   16  C   UNL     1      -9.895  11.571  66.253  1.00  0.00    -0.245 A  
HETATM   17  C   UNL     1     -10.451  12.732  65.701  1.00  0.00    -0.297 A  
HETATM   18  C   UNL     1     -10.052  14.001  66.182  1.00  0.00    -0.319 A  
HETATM   19  C   UNL     1     -10.601  15.267  65.558  1.00  0.00    -0.390 C  
HETATM   20  C   UNL     1     -11.295  15.034  64.210  1.00  0.00    -0.073 C  
HETATM   21  C   UNL     1     -12.249  13.831  64.280  1.00  0.00    -0.400 C  
HETATM   22  O   UNL     1     -12.010  16.205  63.812  1.00  0.00    -1.394 OA 
HETATM   23  H   UNL     1     -12.440  16.060  62.978  1.00  0.00     0.000 HD 
HETATM   24  O   UNL     1     -13.277  13.995  65.267  1.00  0.00    -0.782 OA 
HETATM   25  C   UNL     1     -11.448  12.563  64.572  1.00  0.00    -0.391 C  
HETATM   26  H   UNL     1     -13.867  13.252  65.310  1.00  0.00     0.000 HD 
ENDBRANCH  12  13
ENDBRANCH  11  12
ENDBRANCH   8  11
ENDBRANCH   7   8
ENDBRANCH   5   7
TORSDOF 5
ENDMDL
MODEL       12
REMARK 921   NORMALIZED FREE ENERGY PREDICTED BY IDOCK:   -6.44 KCAL/MOL
REMARK 922        TOTAL FREE ENERGY PREDICTED BY IDOCK:   -9.04 KCAL/MOL
REMARK 923 INTER-LIGAND FREE ENERGY PREDICTED BY IDOCK:   -8.23 KCAL/MOL
REMARK 924 INTRA-LIGAND FREE ENERGY PREDICTED BY IDOCK:   -0.81 KCAL/MOL
REMARK 927      BINDING AFFINITY PREDICTED BY RF-SCORE:    0.00 PKD
ROOT
HETATM    1  C   UNL     1     -10.386   8.620  72.264  1.00  0.00    -0.376 C  
HETATM    2  C   UNL     1     -11.680   8.164  71.565  1.00  0.00    -0.286 C  
HETATM    3  C   UNL     1     -12.844   9.019  72.098  1.00  0.00    -0.478 C  
HETATM    4  C   UNL     1     -11.969   6.690  71.902  1.00  0.00    -0.386 C  
HETATM    5  N   UNL     1     -11.629   8.369  70.105  1.00  0.00    -0.462 NA 
HETATM    6  H   UNL     1     -11.605   9.365  69.892  1.00  0.00     0.000 HD 
ENDROOT
BRANCH   5   7
HETATM    7  C   UNL     1     -10.534   7.678  69.414  1.00  0.00    -0.220 C  
BRANCH   7   8
HETATM    8  C   UNL     1     -10.013   8.502  68.222  1.00  0.00    -0.184 C  
HETATM    9  H   UNL     1     -10.434   8.683  66.304  1.00  0.00     0.000 HD 
HETATM   10  O   UNL     1     -10.755   8.174  67.040  1.00  0.00    -0.321 OA 
BRANCH   8  11
HETATM   11  C   UNL     1     -10.136  10.003  68.525  1.00  0.00    -0.169 C  
BRANCH  11  12
HETATM   12  O   UNL     1     -11.456  10.471  68.177  1.00  0.00    -0.342 OA 
BRANCH  12  13
HETATM   13  C   UNL     1     -11.578  11.842  68.154  1.00  0.00    -0.323 A  
HETATM   14  C   UNL     1     -11.668  12.603  69.325  1.00  0.00    -0.379 A  
HETATM   15  C   UNL     1     -11.741  13.990  69.264  1.00  0.00    -0.372 A  
HETATM   16  C   UNL     1     -11.730  14.630  68.031  1.00  0.00    -0.371 A  
HETATM   17  C   UNL     1     -11.679  13.888  66.843  1.00  0.00    -0.425 A  
HETATM   18  C   UNL     1     -11.653  12.474  66.898  1.00  0.00    -0.436 A  
HETATM   19  C   UNL     1     -11.655  11.656  65.623  1.00  0.00    -0.087 C  
HETATM   20  C   UNL     1     -12.033  12.466  64.377  1.00  0.00    -0.407 C  
HETATM   21  C   UNL     1     -11.277  13.803  64.335  1.00  0.00    -0.352 C  
HETATM   22  O   UNL     1     -11.760  11.711  63.195  1.00  0.00    -0.822 OA 
HETATM   23  H   UNL     1     -11.994  12.213  62.423  1.00  0.00     0.000 HD 
HETATM   24  O   UNL     1      -9.853  13.635  64.319  1.00  0.00    -0.716 OA 
HETATM   25  C   UNL     1     -11.685  14.655  65.537  1.00  0.00    -0.316 C  
HETATM   26  H   UNL     1      -9.385  14.461  64.293  1.00  0.00     0.000 HD 
ENDBRANCH  12  13
ENDBRANCH  11  12
ENDBRANCH   8  11
ENDBRANCH   7   8
ENDBRANCH   5   7
TORSDOF 5
ENDMDL
MODEL       13
REMARK 921   NORMALIZED FREE ENERGY PREDICTED BY IDOCK:   -6.41 KCAL/MOL
REMARK 922        TOTAL FREE ENERGY PREDICTED BY IDOCK:   -9.01 KCAL/MOL
REMARK 923 INTER-LIGAND FREE ENERGY PREDICTED BY IDOCK:   -7.95 KCAL/MOL
REMARK 924 INTRA-LIGAND FREE ENERGY PREDICTED BY IDOCK:   -1.06 KCAL/MOL
REMARK 927      BINDING AFFINITY PREDICTED BY RF-SCORE:    0.00 PKD
ROOT
HETATM    1  C   UNL     1      -8.793  11.571  66.080  1.00  0.00    -0.167 C  
HETATM    2  C   UNL     1      -9.711  10.530  65.414  1.00  0.00    -0.257 C  
HETATM    3  C   UNL     1     -10.216   9.564  66.502  1.00  0.00    -0.307 C  
HETATM    4  C   UNL     1      -8.919   9.717  64.375  1.00  0.00    -0.284 C  
HETATM    5  N   UNL     1     -10.903  11.147  64.801  1.00  0.00    -0.256 NA 
HETATM    6  H   UNL     1     -11.505  11.539  65.524  1.00  0.00     0.000 HD 
ENDROOT
BRANCH   5   7
HETATM    7  C   UNL     1     -10.626  12.156  63.772  1.00  0.00    -0.439 C  
BRANCH   7   8
HETATM    8  C   UNL     1     -11.893  12.953  63.410  1.00  0.00    -0.507 C  
HETATM    9  H   UNL     1     -13.826  12.595  63.268  1.00  0.00     0.000 HD 
HETATM   10  O   UNL     1     -13.044  12.103  63.491  1.00  0.00    -0.785 OA 
BRANCH   8  11
HETATM   11  C   UNL     1     -12.051  14.151  64.358  1.00  0.00    -0.463 C  
BRANCH  11  12
HETATM   12  O   UNL     1     -10.866  14.302  65.166  1.00  0.00    -0.332 OA 
BRANCH  12  13
HETATM   13  C   UNL     1     -11.120  14.556  66.495  1.00  0.00    -0.332 A  
HETATM   14  C   UNL     1     -11.790  13.642  67.316  1.00  0.00    -0.429 A  
HETATM   15  C   UNL     1     -11.984  13.911  68.666  1.00  0.00    -0.401 A  
HETATM   16  C   UNL     1     -11.515  15.101  69.208  1.00  0.00    -0.327 A  
HETATM   17  C   UNL     1     -10.874  16.050  68.399  1.00  0.00    -0.310 A  
HETATM   18  C   UNL     1     -10.717  15.802  67.015  1.00  0.00    -0.306 A  
HETATM   19  C   UNL     1     -10.078  16.840  66.117  1.00  0.00    -0.360 C  
HETATM   20  C   UNL     1      -9.970  18.227  66.764  1.00  0.00    -0.352 C  
HETATM   21  C   UNL     1      -9.425  18.128  68.197  1.00  0.00    -0.294 C  
HETATM   22  O   UNL     1      -9.132  19.076  65.978  1.00  0.00    -0.459 OA 
HETATM   23  H   UNL     1      -9.065  19.934  66.379  1.00  0.00     0.000 HD 
HETATM   24  O   UNL     1      -8.124  17.527  68.255  1.00  0.00    -0.248 OA 
HETATM   25  C   UNL     1     -10.403  17.329  69.058  1.00  0.00    -0.330 C  
HETATM   26  H   UNL     1      -7.786  17.466  69.141  1.00  0.00     0.000 HD 
ENDBRANCH  12  13
ENDBRANCH  11  12
ENDBRANCH   8  11
ENDBRANCH   7   8
ENDBRANCH   5   7
TORSDOF 5
ENDMDL
MODEL       14
REMARK 921   NORMALIZED FREE ENERGY PREDICTED BY IDOCK:   -6.38 KCAL/MOL
REMARK 922        TOTAL FREE ENERGY PREDICTED BY IDOCK:   -8.97 KCAL/MOL
REMARK 923 INTER-LIGAND FREE ENERGY PREDICTED BY IDOCK:   -8.32 KCAL/MOL
REMARK 924 INTRA-LIGAND FREE ENERGY PREDICTED BY IDOCK:   -0.65 KCAL/MOL
REMARK 927      BINDING AFFINITY PREDICTED BY RF-SCORE:    0.00 PKD
ROOT
HETATM    1  C   UNL     1     -13.334   9.257  72.292  1.00  0.00    -0.547 C  
HETATM    2  C   UNL     1     -12.358   8.189  71.766  1.00  0.00    -0.321 C  
HETATM    3  C   UNL     1     -13.096   6.837  71.727  1.00  0.00    -0.244 C  
HETATM    4  C   UNL     1     -11.158   8.056  72.720  1.00  0.00    -0.448 C  
HETATM    5  N   UNL     1     -11.908   8.472  70.391  1.00  0.00    -0.475 NA 
HETATM    6  H   UNL     1     -12.691   8.392  69.742  1.00  0.00     0.000 HD 
ENDROOT
BRANCH   5   7
HETATM    7  C   UNL     1     -11.231   9.761  70.207  1.00  0.00    -0.288 C  
BRANCH   7   8
HETATM    8  C   UNL     1     -10.395   9.778  68.914  1.00  0.00    -0.210 C  
HETATM    9  H   UNL     1      -9.557   8.448  67.723  1.00  0.00     0.000 HD 
HETATM   10  O   UNL     1     -10.073   8.437  68.522  1.00  0.00    -0.186 OA 
BRANCH   8  11
HETATM   11  C   UNL     1     -11.172  10.485  67.793  1.00  0.00    -0.273 C  
BRANCH  11  12
HETATM   12  O   UNL     1     -12.103  11.432  68.358  1.00  0.00    -0.575 OA 
BRANCH  12  13
HETATM   13  C   UNL     1     -11.689  12.742  68.280  1.00  0.00    -0.344 A  
HETATM   14  C   UNL     1     -10.964  13.232  67.188  1.00  0.00    -0.288 A  
HETATM   15  C   UNL     1     -10.606  14.574  67.120  1.00  0.00    -0.274 A  
HETATM   16  C   UNL     1     -10.966  15.439  68.146  1.00  0.00    -0.297 A  
HETATM   17  C   UNL     1     -11.660  14.964  69.268  1.00  0.00    -0.330 A  
HETATM   18  C   UNL     1     -11.984  13.591  69.365  1.00  0.00    -0.383 A  
HETATM   19  C   UNL     1     -12.684  13.052  70.596  1.00  0.00    -0.175 C  
HETATM   20  C   UNL     1     -12.665  14.022  71.784  1.00  0.00    -0.319 C  
HETATM   21  C   UNL     1     -13.046  15.444  71.343  1.00  0.00    -0.488 C  
HETATM   22  O   UNL     1     -13.557  13.570  72.805  1.00  0.00    -0.672 OA 
HETATM   23  H   UNL     1     -13.545  14.170  73.541  1.00  0.00     0.000 HD 
HETATM   24  O   UNL     1     -14.353  15.512  70.756  1.00  0.00    -0.844 OA 
HETATM   25  C   UNL     1     -12.005  15.964  70.352  1.00  0.00    -0.336 C  
HETATM   26  H   UNL     1     -14.589  16.391  70.484  1.00  0.00     0.000 HD 
ENDBRANCH  12  13
ENDBRANCH  11  12
ENDBRANCH   8  11
ENDBRANCH   7   8
ENDBRANCH   5   7
TORSDOF 5
ENDMDL
MODEL       15
REMARK 921   NORMALIZED FREE ENERGY PREDICTED BY IDOCK:   -6.35 KCAL/MOL
REMARK 922        TOTAL FREE ENERGY PREDICTED BY IDOCK:   -8.93 KCAL/MOL
REMARK 923 INTER-LIGAND FREE ENERGY PREDICTED BY IDOCK:   -7.82 KCAL/MOL
REMARK 924 INTRA-LIGAND FREE ENERGY PREDICTED BY IDOCK:   -1.11 KCAL/MOL
REMARK 927      BINDING AFFINITY PREDICTED BY RF-SCORE:    0.00 PKD
ROOT
HETATM    1  C   UNL     1     -11.860  12.683  63.461  1.00  0.00    -0.619 C  
HETATM    2  C   UNL     1     -11.544  12.970  64.940  1.00  0.00    -0.326 C  
HETATM    3  C   UNL     1     -12.753  13.696  65.560  1.00  0.00    -0.514 C  
HETATM    4  C   UNL     1     -10.319  13.896  65.047  1.00  0.00    -0.418 C  
HETATM    5  N   UNL     1     -11.339  11.735  65.718  1.00  0.00    -0.292 NA 
HETATM    6  H   UNL     1     -12.211  11.210  65.778  1.00  0.00     0.000 HD 
ENDROOT
BRANCH   5   7
HETATM    7  C   UNL     1     -10.259  10.865  65.238  1.00  0.00    -0.288 C  
BRANCH   7   8
HETATM    8  C   UNL     1      -9.810   9.872  66.327  1.00  0.00    -0.245 C  
HETATM    9  H   UNL     1      -8.204   9.578  67.432  1.00  0.00     0.000 HD 
HETATM   10  O   UNL     1      -8.481  10.190  66.760  1.00  0.00    -0.125 OA 
BRANCH   8  11
HETATM   11  C   UNL     1     -10.780   9.922  67.518  1.00  0.00    -0.272 C  
BRANCH  11  12
HETATM   12  O   UNL     1     -10.381  10.960  68.437  1.00  0.00    -0.164 OA 
BRANCH  12  13
HETATM   13  C   UNL     1     -11.271  11.173  69.465  1.00  0.00    -0.277 A  
HETATM   14  C   UNL     1     -11.780  10.125  70.241  1.00  0.00    -0.361 A  
HETATM   15  C   UNL     1     -12.638  10.383  71.304  1.00  0.00    -0.525 A  
HETATM   16  C   UNL     1     -13.001  11.692  71.599  1.00  0.00    -0.483 A  
HETATM   17  C   UNL     1     -12.534  12.754  70.813  1.00  0.00    -0.357 A  
HETATM   18  C   UNL     1     -11.699  12.494  69.702  1.00  0.00    -0.372 A  
HETATM   19  C   UNL     1     -11.233  13.626  68.810  1.00  0.00    -0.314 C  
HETATM   20  C   UNL     1     -12.011  14.930  69.019  1.00  0.00    -0.272 C  
HETATM   21  C   UNL     1     -12.163  15.251  70.514  1.00  0.00    -0.371 C  
HETATM   22  O   UNL     1     -11.355  16.010  68.351  1.00  0.00    -0.355 OA 
HETATM   23  H   UNL     1     -11.837  16.818  68.480  1.00  0.00     0.000 HD 
HETATM   24  O   UNL     1     -10.901  15.394  71.182  1.00  0.00    -0.449 OA 
HETATM   25  C   UNL     1     -12.984  14.152  71.188  1.00  0.00    -0.419 C  
HETATM   26  H   UNL     1     -10.995  15.592  72.106  1.00  0.00     0.000 HD 
ENDBRANCH  12  13
ENDBRANCH  11  12
ENDBRANCH   8  11
ENDBRANCH   7   8
ENDBRANCH   5   7
TORSDOF 5
ENDMDL
MODEL       16
REMARK 921   NORMALIZED FREE ENERGY PREDICTED BY IDOCK:   -6.34 KCAL/MOL
REMARK 922        TOTAL FREE ENERGY PREDICTED BY IDOCK:   -8.92 KCAL/MOL
REMARK 923 INTER-LIGAND FREE ENERGY PREDICTED BY IDOCK:   -8.15 KCAL/MOL
REMARK 924 INTRA-LIGAND FREE ENERGY PREDICTED BY IDOCK:   -0.77 KCAL/MOL
REMARK 927      BINDING AFFINITY PREDICTED BY RF-SCORE:    0.00 PKD
ROOT
HETATM    1  C   UNL     1     -12.148  15.795  72.777  1.00  0.00    -0.596 C  
HETATM    2  C   UNL     1     -12.890  15.202  71.565  1.00  0.00    -0.369 C  
HETATM    3  C   UNL     1     -14.404  15.336  71.813  1.00  0.00    -0.678 C  
HETATM    4  C   UNL     1     -12.554  13.706  71.422  1.00  0.00    -0.415 C  
HETATM    5  N   UNL     1     -12.592  15.929  70.317  1.00  0.00    -0.563 NA 
HETATM    6  H   UNL     1     -12.971  16.875  70.364  1.00  0.00     0.000 HD 
ENDROOT
BRANCH   5   7
HETATM    7  C   UNL     1     -11.175  15.971  69.940  1.00  0.00    -0.361 C  
BRANCH   7   8
HETATM    8  C   UNL     1     -10.956  16.803  68.663  1.00  0.00    -0.298 C  
HETATM    9  H   UNL     1      -9.573  18.016  67.955  1.00  0.00     0.000 HD 
HETATM   10  O   UNL     1      -9.708  17.503  68.743  1.00  0.00    -0.296 OA 
BRANCH   8  11
HETATM   11  C   UNL     1     -10.971  15.888  67.429  1.00  0.00    -0.257 C  
BRANCH  11  12
HETATM   12  O   UNL     1     -11.854  14.769  67.654  1.00  0.00    -0.358 OA 
BRANCH  12  13
HETATM   13  C   UNL     1     -11.861  13.845  66.634  1.00  0.00    -0.420 A  
HETATM   14  C   UNL     1     -12.707  13.964  65.525  1.00  0.00    -0.536 A  
HETATM   15  C   UNL     1     -12.652  13.038  64.489  1.00  0.00    -0.387 A  
HETATM   16  C   UNL     1     -11.754  11.980  64.554  1.00  0.00    -0.380 A  
HETATM   17  C   UNL     1     -10.923  11.818  65.672  1.00  0.00    -0.348 A  
HETATM   18  C   UNL     1     -11.009  12.729  66.750  1.00  0.00    -0.301 A  
HETATM   19  C   UNL     1     -10.159  12.536  67.988  1.00  0.00    -0.220 C  
HETATM   20  C   UNL     1      -9.522  11.144  68.082  1.00  0.00    -0.180 C  
HETATM   21  C   UNL     1      -8.890  10.733  66.743  1.00  0.00    -0.142 C  
HETATM   22  O   UNL     1      -8.536  11.120  69.117  1.00  0.00    -0.352 OA 
HETATM   23  H   UNL     1      -8.142  10.258  69.175  1.00  0.00     0.000 HD 
HETATM   24  O   UNL     1      -7.868  11.642  66.309  1.00  0.00    -0.366 OA 
HETATM   25  C   UNL     1      -9.980  10.632  65.677  1.00  0.00    -0.327 C  
HETATM   26  H   UNL     1      -7.477  11.388  65.482  1.00  0.00     0.000 HD 
ENDBRANCH  12  13
ENDBRANCH  11  12
ENDBRANCH   8  11
ENDBRANCH   7   8
ENDBRANCH   5   7
TORSDOF 5
ENDMDL
MODEL       17
REMARK 921   NORMALIZED FREE ENERGY PREDICTED BY IDOCK:   -6.34 KCAL/MOL
REMARK 922        TOTAL FREE ENERGY PREDICTED BY IDOCK:   -8.91 KCAL/MOL
REMARK 923 INTER-LIGAND FREE ENERGY PREDICTED BY IDOCK:   -8.12 KCAL/MOL
REMARK 924 INTRA-LIGAND FREE ENERGY PREDICTED BY IDOCK:   -0.79 KCAL/MOL
REMARK 927      BINDING AFFINITY PREDICTED BY RF-SCORE:    0.00 PKD
ROOT
HETATM    1  C   UNL     1     -12.160  13.474  66.090  1.00  0.00    -0.482 C  
HETATM    2  C   UNL     1     -11.132  13.544  64.947  1.00  0.00    -0.346 C  
HETATM    3  C   UNL     1     -10.623  14.994  64.843  1.00  0.00    -0.400 C  
HETATM    4  C   UNL     1     -11.802  13.171  63.612  1.00  0.00    -0.549 C  
HETATM    5  N   UNL     1      -9.955  12.693  65.200  1.00  0.00    -0.434 NA 
HETATM    6  H   UNL     1      -9.426  13.054  65.994  1.00  0.00     0.000 HD 
ENDROOT
BRANCH   5   7
HETATM    7  C   UNL     1     -10.244  11.267  65.394  1.00  0.00    -0.270 C  
BRANCH   7   8
HETATM    8  C   UNL     1      -9.614  10.737  66.696  1.00  0.00    -0.178 C  
HETATM    9  H   UNL     1      -8.276  11.357  68.004  1.00  0.00     0.000 HD 
HETATM   10  O   UNL     1      -8.665  11.685  67.201  1.00  0.00    -0.153 OA 
BRANCH   8  11
HETATM   11  C   UNL     1     -10.708  10.475  67.742  1.00  0.00    -0.272 C  
BRANCH  11  12
HETATM   12  O   UNL     1     -10.678  11.501  68.757  1.00  0.00    -0.196 OA 
BRANCH  12  13
HETATM   13  C   UNL     1     -11.501  11.253  69.831  1.00  0.00    -0.293 A  
HETATM   14  C   UNL     1     -11.698   9.964  70.341  1.00  0.00    -0.333 A  
HETATM   15  C   UNL     1     -12.497   9.759  71.459  1.00  0.00    -0.495 A  
HETATM   16  C   UNL     1     -13.113  10.840  72.077  1.00  0.00    -0.476 A  
HETATM   17  C   UNL     1     -12.962  12.135  71.563  1.00  0.00    -0.398 A  
HETATM   18  C   UNL     1     -12.189  12.344  70.398  1.00  0.00    -0.370 A  
HETATM   19  C   UNL     1     -12.062  13.729  69.798  1.00  0.00    -0.400 C  
HETATM   20  C   UNL     1     -13.089  14.729  70.344  1.00  0.00    -0.144 C  
HETATM   21  C   UNL     1     -13.179  14.648  71.876  1.00  0.00    -0.349 C  
HETATM   22  O   UNL     1     -12.748  16.057  69.943  1.00  0.00    -0.568 OA 
HETATM   23  H   UNL     1     -13.384  16.677  70.281  1.00  0.00     0.000 HD 
HETATM   24  O   UNL     1     -11.928  14.925  72.521  1.00  0.00    -0.329 OA 
HETATM   25  C   UNL     1     -13.676  13.261  72.283  1.00  0.00    -0.686 C  
HETATM   26  H   UNL     1     -11.984  14.876  73.468  1.00  0.00     0.000 HD 
ENDBRANCH  12  13
ENDBRANCH  11  12
ENDBRANCH   8  11
ENDBRANCH   7   8
ENDBRANCH   5   7
TORSDOF 5
ENDMDL
MODEL       18
REMARK 921   NORMALIZED FREE ENERGY PREDICTED BY IDOCK:   -6.30 KCAL/MOL
REMARK 922        TOTAL FREE ENERGY PREDICTED BY IDOCK:   -8.86 KCAL/MOL
REMARK 923 INTER-LIGAND FREE ENERGY PREDICTED BY IDOCK:   -7.90 KCAL/MOL
REMARK 924 INTRA-LIGAND FREE ENERGY PREDICTED BY IDOCK:   -0.96 KCAL/MOL
REMARK 927      BINDING AFFINITY PREDICTED BY RF-SCORE:    0.00 PKD
ROOT
HETATM    1  C   UNL     1     -10.538  13.087  64.019  1.00  0.00    -0.371 C  
HETATM    2  C   UNL     1     -10.978  12.821  65.470  1.00  0.00    -0.280 C  
HETATM    3  C   UNL     1     -10.664  11.351  65.808  1.00  0.00    -0.309 C  
HETATM    4  C   UNL     1     -12.496  13.034  65.607  1.00  0.00    -0.452 C  
HETATM    5  N   UNL     1     -10.241  13.652  66.439  1.00  0.00    -0.285 NA 
HETATM    6  H   UNL     1      -9.258  13.382  66.456  1.00  0.00     0.000 HD 
ENDROOT
BRANCH   5   7
HETATM    7  C   UNL     1     -10.363  15.101  66.242  1.00  0.00    -0.294 C  
BRANCH   7   8
HETATM    8  C   UNL     1     -10.340  15.856  67.584  1.00  0.00    -0.281 C  
HETATM    9  H   UNL     1     -10.123  17.722  68.182  1.00  0.00     0.000 HD 
HETATM   10  O   UNL     1     -10.137  17.256  67.354  1.00  0.00    -0.288 OA 
BRANCH   8  11
HETATM   11  C   UNL     1     -11.659  15.629  68.339  1.00  0.00    -0.350 C  
BRANCH  11  12
HETATM   12  O   UNL     1     -11.770  14.247  68.736  1.00  0.00    -0.303 OA 
BRANCH  12  13
HETATM   13  C   UNL     1     -12.383  14.059  69.954  1.00  0.00    -0.310 A  
HETATM   14  C   UNL     1     -12.945  15.117  70.678  1.00  0.00    -0.420 A  
HETATM   15  C   UNL     1     -13.600  14.883  71.881  1.00  0.00    -0.505 A  
HETATM   16  C   UNL     1     -13.696  13.588  72.377  1.00  0.00    -0.704 A  
HETATM   17  C   UNL     1     -13.109  12.517  71.689  1.00  0.00    -0.414 A  
HETATM   18  C   UNL     1     -12.399  12.756  70.489  1.00  0.00    -0.355 A  
HETATM   19  C   UNL     1     -11.711  11.618  69.763  1.00  0.00    -0.425 C  
HETATM   20  C   UNL     1     -11.572  10.348  70.611  1.00  0.00    -0.349 C  
HETATM   21  C   UNL     1     -12.891  10.011  71.325  1.00  0.00    -0.402 C  
HETATM   22  O   UNL     1     -11.164   9.250  69.793  1.00  0.00    -0.375 OA 
HETATM   23  H   UNL     1     -11.078   8.463  70.318  1.00  0.00     0.000 HD 
HETATM   24  O   UNL     1     -13.977   9.800  70.413  1.00  0.00    -0.330 OA 
HETATM   25  C   UNL     1     -13.243  11.137  72.298  1.00  0.00    -0.097 C  
HETATM   26  H   UNL     1     -14.793   9.591  70.854  1.00  0.00     0.000 HD 
ENDBRANCH  12  13
ENDBRANCH  11  12
ENDBRANCH   8  11
ENDBRANCH   7   8
ENDBRANCH   5   7
TORSDOF 5
ENDMDL
MODEL       19
REMARK 921   NORMALIZED FREE ENERGY PREDICTED BY IDOCK:   -6.26 KCAL/MOL
REMARK 922        TOTAL FREE ENERGY PREDICTED BY IDOCK:   -8.82 KCAL/MOL
REMARK 923 INTER-LIGAND FREE ENERGY PREDICTED BY IDOCK:   -8.06 KCAL/MOL
REMARK 924 INTRA-LIGAND FREE ENERGY PREDICTED BY IDOCK:   -0.76 KCAL/MOL
REMARK 927      BINDING AFFINITY PREDICTED BY RF-SCORE:    0.00 PKD
ROOT
HETATM    1  C   UNL     1     -13.611  12.822  72.279  1.00  0.00    -0.563 C  
HETATM    2  C   UNL     1     -13.092  14.250  72.030  1.00  0.00    -0.372 C  
HETATM    3  C   UNL     1     -12.484  14.778  73.343  1.00  0.00    -0.511 C  
HETATM    4  C   UNL     1     -14.258  15.172  71.632  1.00  0.00    -0.664 C  
HETATM    5  N   UNL     1     -12.022  14.287  71.016  1.00  0.00    -0.426 NA 
HETATM    6  H   UNL     1     -11.192  13.810  71.365  1.00  0.00     0.000 HD 
ENDROOT
BRANCH   5   7
HETATM    7  C   UNL     1     -12.392  13.759  69.697  1.00  0.00    -0.232 C  
BRANCH   7   8
HETATM    8  C   UNL     1     -11.188  13.751  68.737  1.00  0.00    -0.271 C  
HETATM    9  H   UNL     1      -9.467  14.699  68.579  1.00  0.00     0.000 HD 
HETATM   10  O   UNL     1     -10.210  14.704  69.171  1.00  0.00    -0.231 OA 
BRANCH   8  11
HETATM   11  C   UNL     1     -10.568  12.346  68.680  1.00  0.00    -0.218 C  
BRANCH  11  12
HETATM   12  O   UNL     1     -11.202  11.486  69.650  1.00  0.00    -0.251 OA 
BRANCH  12  13
HETATM   13  C   UNL     1     -10.968  10.145  69.450  1.00  0.00    -0.245 A  
HETATM   14  C   UNL     1     -10.179   9.673  68.395  1.00  0.00    -0.214 A  
HETATM   15  C   UNL     1      -9.923   8.314  68.254  1.00  0.00    -0.217 A  
HETATM   16  C   UNL     1     -10.458   7.411  69.165  1.00  0.00    -0.217 A  
HETATM   17  C   UNL     1     -11.282   7.855  70.207  1.00  0.00    -0.206 A  
HETATM   18  C   UNL     1     -11.586   9.232  70.327  1.00  0.00    -0.151 A  
HETATM   19  C   UNL     1     -12.520   9.721  71.415  1.00  0.00    -0.482 C  
HETATM   20  C   UNL     1     -13.324   8.597  72.081  1.00  0.00    -0.396 C  
HETATM   21  C   UNL     1     -12.421   7.405  72.435  1.00  0.00     0.011 C  
HETATM   22  O   UNL     1     -13.974   9.085  73.257  1.00  0.00    -1.205 OA 
HETATM   23  H   UNL     1     -14.472   8.390  73.669  1.00  0.00     0.000 HD 
HETATM   24  O   UNL     1     -11.359   7.760  73.331  1.00  0.00    -0.586 OA 
HETATM   25  C   UNL     1     -11.840   6.811  71.152  1.00  0.00    -0.410 C  
HETATM   26  H   UNL     1     -10.801   7.022  73.550  1.00  0.00     0.000 HD 
ENDBRANCH  12  13
ENDBRANCH  11  12
ENDBRANCH   8  11
ENDBRANCH   7   8
ENDBRANCH   5   7
TORSDOF 5
ENDMDL
MODEL       20
REMARK 921   NORMALIZED FREE ENERGY PREDICTED BY IDOCK:   -6.22 KCAL/MOL
REMARK 922        TOTAL FREE ENERGY PREDICTED BY IDOCK:   -8.76 KCAL/MOL
REMARK 923 INTER-LIGAND FREE ENERGY PREDICTED BY IDOCK:   -8.19 KCAL/MOL
REMARK 924 INTRA-LIGAND FREE ENERGY PREDICTED BY IDOCK:   -0.57 KCAL/MOL
REMARK 927      BINDING AFFINITY PREDICTED BY RF-SCORE:    0.00 PKD
ROOT
HETATM    1  C   UNL     1     -11.793  15.441  72.350  1.00  0.00    -0.558 C  
HETATM    2  C   UNL     1     -13.086  14.914  71.703  1.00  0.00    -0.341 C  
HETATM    3  C   UNL     1     -14.285  15.577  72.408  1.00  0.00    -0.571 C  
HETATM    4  C   UNL     1     -13.192  13.391  71.901  1.00  0.00    -0.522 C  
HETATM    5  N   UNL     1     -13.180  15.266  70.274  1.00  0.00    -0.678 NA 
HETATM    6  H   UNL     1     -13.277  16.275  70.167  1.00  0.00     0.000 HD 
ENDROOT
BRANCH   5   7
HETATM    7  C   UNL     1     -12.081  14.774  69.435  1.00  0.00    -0.270 C  
BRANCH   7   8
HETATM    8  C   UNL     1     -11.625  15.840  68.422  1.00  0.00    -0.338 C  
HETATM    9  H   UNL     1     -10.241  17.242  68.333  1.00  0.00     0.000 HD 
HETATM   10  O   UNL     1     -10.523  16.584  68.958  1.00  0.00    -0.262 OA 
BRANCH   8  11
HETATM   11  C   UNL     1     -11.219  15.172  67.100  1.00  0.00    -0.320 C  
BRANCH  11  12
HETATM   12  O   UNL     1     -12.162  14.135  66.759  1.00  0.00    -0.447 OA 
BRANCH  12  13
HETATM   13  C   UNL     1     -11.705  13.247  65.813  1.00  0.00    -0.359 A  
HETATM   14  C   UNL     1     -11.781  13.513  64.441  1.00  0.00    -0.443 A  
HETATM   15  C   UNL     1     -11.263  12.614  63.516  1.00  0.00    -0.489 A  
HETATM   16  C   UNL     1     -10.669  11.436  63.953  1.00  0.00    -0.462 A  
HETATM   17  C   UNL     1     -10.615  11.130  65.319  1.00  0.00    -0.303 A  
HETATM   18  C   UNL     1     -11.183  12.018  66.262  1.00  0.00    -0.394 A  
HETATM   19  C   UNL     1     -11.183  11.675  67.737  1.00  0.00    -0.333 C  
HETATM   20  C   UNL     1     -10.856  10.204  68.023  1.00  0.00    -0.270 C  
HETATM   21  C   UNL     1      -9.639   9.739  67.209  1.00  0.00    -0.157 C  
HETATM   22  O   UNL     1     -10.615  10.013  69.419  1.00  0.00    -0.204 OA 
HETATM   23  H   UNL     1     -10.412   9.102  69.596  1.00  0.00     0.000 HD 
HETATM   24  O   UNL     1      -8.458  10.502  67.492  1.00  0.00    -0.118 OA 
HETATM   25  C   UNL     1      -9.964   9.821  65.718  1.00  0.00    -0.349 C  
HETATM   26  H   UNL     1      -7.705  10.214  66.989  1.00  0.00     0.000 HD 
ENDBRANCH  12  13
ENDBRANCH  11  12
ENDBRANCH   8  11
ENDBRANCH   7   8
ENDBRANCH   5   7
TORSDOF 5
ENDMDL
MODEL       21
REMARK 921   NORMALIZED FREE ENERGY PREDICTED BY IDOCK:   -6.21 KCAL/MOL
REMARK 922        TOTAL FREE ENERGY PREDICTED BY IDOCK:   -8.75 KCAL/MOL
REMARK 923 INTER-LIGAND FREE ENERGY PREDICTED BY IDOCK:   -7.38 KCAL/MOL
REMARK 924 INTRA-LIGAND FREE ENERGY PREDICTED BY IDOCK:   -1.37 KCAL/MOL
REMARK 927      BINDING AFFINITY PREDICTED BY RF-SCORE:    0.00 PKD
ROOT
HETATM    1  C   UNL     1     -10.133   9.133  68.107  1.00  0.00    -0.225 C  
HETATM    2  C   UNL     1     -10.675  10.548  67.834  1.00  0.00    -0.260 C  
HETATM    3  C   UNL     1     -10.996  10.661  66.332  1.00  0.00    -0.056 C  
HETATM    4  C   UNL     1      -9.603  11.598  68.179  1.00  0.00    -0.190 C  
HETATM    5  N   UNL     1     -11.928  10.817  68.563  1.00  0.00    -0.793 NA 
HETATM    6  H   UNL     1     -12.676  10.223  68.206  1.00  0.00     0.000 HD 
ENDROOT
BRANCH   5   7
HETATM    7  C   UNL     1     -11.841  10.694  70.023  1.00  0.00    -0.322 C  
BRANCH   7   8
HETATM    8  C   UNL     1     -12.759  11.710  70.729  1.00  0.00    -0.201 C  
HETATM    9  H   UNL     1     -13.517  11.954  72.533  1.00  0.00     0.000 HD 
HETATM   10  O   UNL     1     -12.950  11.327  72.097  1.00  0.00    -0.393 OA 
BRANCH   8  11
HETATM   11  C   UNL     1     -12.145  13.116  70.654  1.00  0.00    -0.264 C  
BRANCH  11  12
HETATM   12  O   UNL     1     -12.544  13.766  69.429  1.00  0.00    -0.151 OA 
BRANCH  12  13
HETATM   13  C   UNL     1     -11.651  14.708  68.975  1.00  0.00    -0.298 A  
HETATM   14  C   UNL     1     -10.951  15.554  69.844  1.00  0.00    -0.315 A  
HETATM   15  C   UNL     1     -10.019  16.460  69.352  1.00  0.00    -0.214 A  
HETATM   16  C   UNL     1      -9.780  16.535  67.986  1.00  0.00    -0.236 A  
HETATM   17  C   UNL     1     -10.495  15.725  67.093  1.00  0.00    -0.309 A  
HETATM   18  C   UNL     1     -11.479  14.836  67.583  1.00  0.00    -0.363 A  
HETATM   19  C   UNL     1     -12.300  13.995  66.627  1.00  0.00    -0.408 C  
HETATM   20  C   UNL     1     -12.203  14.459  65.168  1.00  0.00    -0.393 C  
HETATM   21  C   UNL     1     -10.745  14.729  64.768  1.00  0.00    -0.358 C  
HETATM   22  O   UNL     1     -12.776  13.479  64.299  1.00  0.00    -0.645 OA 
HETATM   23  H   UNL     1     -12.717  13.766  63.395  1.00  0.00     0.000 HD 
HETATM   24  O   UNL     1      -9.908  13.572  64.904  1.00  0.00    -0.583 OA 
HETATM   25  C   UNL     1     -10.189  15.873  65.616  1.00  0.00    -0.406 C  
HETATM   26  H   UNL     1      -9.006  13.739  64.657  1.00  0.00     0.000 HD 
ENDBRANCH  12  13
ENDBRANCH  11  12
ENDBRANCH   8  11
ENDBRANCH   7   8
ENDBRANCH   5   7
TORSDOF 5
ENDMDL
MODEL       22
REMARK 921   NORMALIZED FREE ENERGY PREDICTED BY IDOCK:   -6.20 KCAL/MOL
REMARK 922        TOTAL FREE ENERGY PREDICTED BY IDOCK:   -8.73 KCAL/MOL
REMARK 923 INTER-LIGAND FREE ENERGY PREDICTED BY IDOCK:   -8.00 KCAL/MOL
REMARK 924 INTRA-LIGAND FREE ENERGY PREDICTED BY IDOCK:   -0.74 KCAL/MOL
REMARK 927      BINDING AFFINITY PREDICTED BY RF-SCORE:    0.00 PKD
ROOT
HETATM    1  C   UNL     1     -10.749   8.376  72.255  1.00  0.00    -0.417 C  
HETATM    2  C   UNL     1     -11.942   8.521  71.294  1.00  0.00    -0.294 C  
HETATM    3  C   UNL     1     -12.609   9.886  71.553  1.00  0.00    -0.513 C  
HETATM    4  C   UNL     1     -12.979   7.417  71.571  1.00  0.00    -0.421 C  
HETATM    5  N   UNL     1     -11.526   8.508  69.879  1.00  0.00    -0.448 NA 
HETATM    6  H   UNL     1     -10.974   9.339  69.669  1.00  0.00     0.000 HD 
ENDROOT
BRANCH   5   7
HETATM    7  C   UNL     1     -10.808   7.303  69.449  1.00  0.00    -0.190 C  
BRANCH   7   8
HETATM    8  C   UNL     1     -10.166   7.495  68.062  1.00  0.00    -0.195 C  
HETATM    9  H   UNL     1     -10.701   7.241  66.182  1.00  0.00     0.000 HD 
HETATM   10  O   UNL     1     -11.097   7.123  67.038  1.00  0.00    -0.345 OA 
BRANCH   8  11
HETATM   11  C   UNL     1      -9.735   8.958  67.879  1.00  0.00    -0.160 C  
BRANCH  11  12
HETATM   12  O   UNL     1     -10.814   9.724  67.306  1.00  0.00    -0.265 OA 
BRANCH  12  13
HETATM   13  C   UNL     1     -10.490  10.360  66.130  1.00  0.00    -0.154 A  
HETATM   14  C   UNL     1      -9.789   9.718  65.102  1.00  0.00    -0.294 A  
HETATM   15  C   UNL     1      -9.523  10.376  63.907  1.00  0.00    -0.354 A  
HETATM   16  C   UNL     1      -9.950  11.687  63.729  1.00  0.00    -0.378 A  
HETATM   17  C   UNL     1     -10.620  12.363  64.757  1.00  0.00    -0.331 A  
HETATM   18  C   UNL     1     -10.851  11.714  65.993  1.00  0.00    -0.339 A  
HETATM   19  C   UNL     1     -11.524  12.450  67.133  1.00  0.00    -0.423 C  
HETATM   20  C   UNL     1     -11.582  13.970  66.931  1.00  0.00    -0.386 C  
HETATM   21  C   UNL     1     -12.055  14.322  65.511  1.00  0.00    -0.394 C  
HETATM   22  O   UNL     1     -12.450  14.564  67.898  1.00  0.00    -0.599 OA 
HETATM   23  H   UNL     1     -12.486  15.505  67.772  1.00  0.00     0.000 HD 
HETATM   24  O   UNL     1     -13.358  13.801  65.215  1.00  0.00    -0.710 OA 
HETATM   25  C   UNL     1     -11.043  13.794  64.494  1.00  0.00    -0.388 C  
HETATM   26  H   UNL     1     -13.650  14.018  64.338  1.00  0.00     0.000 HD 
ENDBRANCH  12  13
ENDBRANCH  11  12
ENDBRANCH   8  11
ENDBRANCH   7   8
ENDBRANCH   5   7
TORSDOF 5
ENDMDL
MODEL       23
REMARK 921   NORMALIZED FREE ENERGY PREDICTED BY IDOCK:   -6.19 KCAL/MOL
REMARK 922        TOTAL FREE ENERGY PREDICTED BY IDOCK:   -8.72 KCAL/MOL
REMARK 923 INTER-LIGAND FREE ENERGY PREDICTED BY IDOCK:   -8.20 KCAL/MOL
REMARK 924 INTRA-LIGAND FREE ENERGY PREDICTED BY IDOCK:   -0.53 KCAL/MOL
REMARK 927      BINDING AFFINITY PREDICTED BY RF-SCORE:    0.00 PKD
ROOT
HETATM    1  C   UNL     1     -10.725   6.471  72.122  1.00  0.00    -0.249 C  
HETATM    2  C   UNL     1     -10.826   7.080  70.711  1.00  0.00    -0.246 C  
HETATM    3  C   UNL     1     -11.000   5.930  69.701  1.00  0.00    -0.447 C  
HETATM    4  C   UNL     1      -9.528   7.832  70.368  1.00  0.00    -0.164 C  
HETATM    5  N   UNL     1     -11.999   7.962  70.565  1.00  0.00    -0.484 NA 
HETATM    6  H   UNL     1     -12.858   7.416  70.630  1.00  0.00     0.000 HD 
ENDROOT
BRANCH   5   7
HETATM    7  C   UNL     1     -12.049   9.095  71.496  1.00  0.00    -0.351 C  
BRANCH   7   8
HETATM    8  C   UNL     1     -12.612  10.358  70.816  1.00  0.00    -0.371 C  
HETATM    9  H   UNL     1     -13.470  12.038  71.387  1.00  0.00     0.000 HD 
HETATM   10  O   UNL     1     -13.123  11.259  71.807  1.00  0.00    -0.472 OA 
BRANCH   8  11
HETATM   11  C   UNL     1     -11.513  11.046  69.992  1.00  0.00    -0.314 C  
BRANCH  11  12
HETATM   12  O   UNL     1     -12.037  11.449  68.710  1.00  0.00    -0.480 OA 
BRANCH  12  13
HETATM   13  C   UNL     1     -11.862  12.784  68.425  1.00  0.00    -0.310 A  
HETATM   14  C   UNL     1     -11.783  13.758  69.428  1.00  0.00    -0.379 A  
HETATM   15  C   UNL     1     -11.555  15.090  69.106  1.00  0.00    -0.333 A  
HETATM   16  C   UNL     1     -11.409  15.465  67.776  1.00  0.00    -0.308 A  
HETATM   17  C   UNL     1     -11.522  14.516  66.752  1.00  0.00    -0.376 A  
HETATM   18  C   UNL     1     -11.801  13.166  67.071  1.00  0.00    -0.435 A  
HETATM   19  C   UNL     1     -11.982  12.139  65.973  1.00  0.00    -0.236 C  
HETATM   20  C   UNL     1     -12.179  12.757  64.583  1.00  0.00    -0.447 C  
HETATM   21  C   UNL     1     -11.152  13.870  64.321  1.00  0.00    -0.233 C  
HETATM   22  O   UNL     1     -12.077  11.749  63.575  1.00  0.00    -0.563 OA 
HETATM   23  H   UNL     1     -12.199  12.132  62.714  1.00  0.00     0.000 HD 
HETATM   24  O   UNL     1      -9.798  13.404  64.394  1.00  0.00    -0.649 OA 
HETATM   25  C   UNL     1     -11.365  15.002  65.326  1.00  0.00    -0.349 C  
HETATM   26  H   UNL     1      -9.163  14.092  64.232  1.00  0.00     0.000 HD 
ENDBRANCH  12  13
ENDBRANCH  11  12
ENDBRANCH   8  11
ENDBRANCH   7   8
ENDBRANCH   5   7
TORSDOF 5
ENDMDL
MODEL       24
REMARK 921   NORMALIZED FREE ENERGY PREDICTED BY IDOCK:   -6.18 KCAL/MOL
REMARK 922        TOTAL FREE ENERGY PREDICTED BY IDOCK:   -8.72 KCAL/MOL
REMARK 923 INTER-LIGAND FREE ENERGY PREDICTED BY IDOCK:   -7.88 KCAL/MOL
REMARK 924 INTRA-LIGAND FREE ENERGY PREDICTED BY IDOCK:   -0.84 KCAL/MOL
REMARK 927      BINDING AFFINITY PREDICTED BY RF-SCORE:    0.00 PKD
ROOT
HETATM    1  C   UNL     1     -14.224  15.389  71.480  1.00  0.00    -0.584 C  
HETATM    2  C   UNL     1     -13.013  14.583  71.983  1.00  0.00    -0.341 C  
HETATM    3  C   UNL     1     -13.485  13.153  72.305  1.00  0.00    -0.665 C  
HETATM    4  C   UNL     1     -12.462  15.212  73.275  1.00  0.00    -0.598 C  
HETATM    5  N   UNL     1     -11.955  14.467  70.962  1.00  0.00    -0.330 NA 
HETATM    6  H   UNL     1     -12.283  13.902  70.180  1.00  0.00     0.000 HD 
ENDROOT
BRANCH   5   7
HETATM    7  C   UNL     1     -11.415  15.741  70.474  1.00  0.00    -0.381 C  
BRANCH   7   8
HETATM    8  C   UNL     1     -11.587  15.878  68.949  1.00  0.00    -0.388 C  
HETATM    9  H   UNL     1     -11.069  17.169  67.553  1.00  0.00     0.000 HD 
HETATM   10  O   UNL     1     -10.963  17.085  68.493  1.00  0.00    -0.335 OA 
BRANCH   8  11
HETATM   11  C   UNL     1     -10.971  14.663  68.239  1.00  0.00    -0.252 C  
BRANCH  11  12
HETATM   12  O   UNL     1     -11.895  13.555  68.263  1.00  0.00    -0.337 OA 
BRANCH  12  13
HETATM   13  C   UNL     1     -11.422  12.415  67.653  1.00  0.00    -0.337 A  
HETATM   14  C   UNL     1     -11.083  12.381  66.295  1.00  0.00    -0.344 A  
HETATM   15  C   UNL     1     -10.561  11.225  65.725  1.00  0.00    -0.306 A  
HETATM   16  C   UNL     1     -10.379  10.090  66.505  1.00  0.00    -0.268 A  
HETATM   17  C   UNL     1     -10.746  10.088  67.857  1.00  0.00    -0.322 A  
HETATM   18  C   UNL     1     -11.322  11.246  68.431  1.00  0.00    -0.348 A  
HETATM   19  C   UNL     1     -11.776  11.242  69.876  1.00  0.00    -0.430 C  
HETATM   20  C   UNL     1     -11.872   9.837  70.484  1.00  0.00    -0.240 C  
HETATM   21  C   UNL     1     -10.624   9.004  70.153  1.00  0.00    -0.224 C  
HETATM   22  O   UNL     1     -12.044   9.921  71.900  1.00  0.00    -0.357 OA 
HETATM   23  H   UNL     1     -12.104   9.051  72.276  1.00  0.00     0.000 HD 
HETATM   24  O   UNL     1      -9.414   9.599  70.642  1.00  0.00    -0.280 OA 
HETATM   25  C   UNL     1     -10.530   8.809  68.640  1.00  0.00    -0.213 C  
HETATM   26  H   UNL     1      -8.642   9.085  70.438  1.00  0.00     0.000 HD 
ENDBRANCH  12  13
ENDBRANCH  11  12
ENDBRANCH   8  11
ENDBRANCH   7   8
ENDBRANCH   5   7
TORSDOF 5
ENDMDL
MODEL       25
REMARK 921   NORMALIZED FREE ENERGY PREDICTED BY IDOCK:   -6.18 KCAL/MOL
REMARK 922        TOTAL FREE ENERGY PREDICTED BY IDOCK:   -8.72 KCAL/MOL
REMARK 923 INTER-LIGAND FREE ENERGY PREDICTED BY IDOCK:   -7.77 KCAL/MOL
REMARK 924 INTRA-LIGAND FREE ENERGY PREDICTED BY IDOCK:   -0.95 KCAL/MOL
REMARK 927      BINDING AFFINITY PREDICTED BY RF-SCORE:    0.00 PKD
ROOT
HETATM    1  C   UNL     1     -11.882  12.536  63.402  1.00  0.00    -0.587 C  
HETATM    2  C   UNL     1     -11.709  13.147  64.804  1.00  0.00    -0.347 C  
HETATM    3  C   UNL     1     -12.900  14.086  65.073  1.00  0.00    -0.292 C  
HETATM    4  C   UNL     1     -10.416  13.980  64.860  1.00  0.00    -0.453 C  
HETATM    5  N   UNL     1     -11.721  12.124  65.865  1.00  0.00    -0.482 NA 
HETATM    6  H   UNL     1     -12.644  11.693  65.926  1.00  0.00     0.000 HD 
ENDROOT
BRANCH   5   7
HETATM    7  C   UNL     1     -10.688  11.088  65.748  1.00  0.00    -0.148 C  
BRANCH   7   8
HETATM    8  C   UNL     1     -10.658  10.179  66.991  1.00  0.00    -0.225 C  
HETATM    9  H   UNL     1      -9.808   8.478  67.509  1.00  0.00     0.000 HD 
HETATM   10  O   UNL     1      -9.827   9.038  66.742  1.00  0.00    -0.192 OA 
BRANCH   8  11
HETATM   11  C   UNL     1     -10.131  10.962  68.203  1.00  0.00    -0.173 C  
BRANCH  11  12
HETATM   12  O   UNL     1     -11.192  11.749  68.783  1.00  0.00    -0.212 OA 
BRANCH  12  13
HETATM   13  C   UNL     1     -10.845  13.055  69.046  1.00  0.00    -0.155 A  
HETATM   14  C   UNL     1      -9.794  13.697  68.382  1.00  0.00    -0.223 A  
HETATM   15  C   UNL     1      -9.504  15.032  68.637  1.00  0.00    -0.212 A  
HETATM   16  C   UNL     1     -10.260  15.739  69.565  1.00  0.00    -0.271 A  
HETATM   17  C   UNL     1     -11.293  15.108  70.271  1.00  0.00    -0.315 A  
HETATM   18  C   UNL     1     -11.561  13.736  70.049  1.00  0.00    -0.265 A  
HETATM   19  C   UNL     1     -12.637  13.026  70.844  1.00  0.00    -0.364 C  
HETATM   20  C   UNL     1     -13.107  13.811  72.076  1.00  0.00    -0.396 C  
HETATM   21  C   UNL     1     -13.369  15.284  71.727  1.00  0.00    -0.448 C  
HETATM   22  O   UNL     1     -14.288  13.218  72.619  1.00  0.00    -0.679 OA 
HETATM   23  H   UNL     1     -14.579  13.704  73.382  1.00  0.00     0.000 HD 
HETATM   24  O   UNL     1     -14.369  15.444  70.711  1.00  0.00    -0.842 OA 
HETATM   25  C   UNL     1     -12.064  15.939  71.276  1.00  0.00    -0.487 C  
HETATM   26  H   UNL     1     -14.532  16.355  70.495  1.00  0.00     0.000 HD 
ENDBRANCH  12  13
ENDBRANCH  11  12
ENDBRANCH   8  11
ENDBRANCH   7   8
ENDBRANCH   5   7
TORSDOF 5
ENDMDL
MODEL       26
REMARK 921   NORMALIZED FREE ENERGY PREDICTED BY IDOCK:   -6.18 KCAL/MOL
REMARK 922        TOTAL FREE ENERGY PREDICTED BY IDOCK:   -8.72 KCAL/MOL
REMARK 923 INTER-LIGAND FREE ENERGY PREDICTED BY IDOCK:   -8.28 KCAL/MOL
REMARK 924 INTRA-LIGAND FREE ENERGY PREDICTED BY IDOCK:   -0.43 KCAL/MOL
REMARK 927      BINDING AFFINITY PREDICTED BY RF-SCORE:    0.00 PKD
ROOT
HETATM    1  C   UNL     1     -13.595   9.075  72.487  1.00  0.00    -0.492 C  
HETATM    2  C   UNL     1     -12.609   8.190  71.703  1.00  0.00    -0.320 C  
HETATM    3  C   UNL     1     -13.360   6.928  71.237  1.00  0.00    -0.205 C  
HETATM    4  C   UNL     1     -11.451   7.753  72.617  1.00  0.00    -0.430 C  
HETATM    5  N   UNL     1     -12.099   8.858  70.491  1.00  0.00    -0.474 NA 
HETATM    6  H   UNL     1     -12.855   8.992  69.820  1.00  0.00     0.000 HD 
ENDROOT
BRANCH   5   7
HETATM    7  C   UNL     1     -11.401  10.128  70.724  1.00  0.00    -0.354 C  
BRANCH   7   8
HETATM    8  C   UNL     1     -10.289  10.358  69.684  1.00  0.00    -0.226 C  
HETATM    9  H   UNL     1      -8.597   9.488  69.170  1.00  0.00     0.000 HD 
HETATM   10  O   UNL     1      -9.282   9.346  69.812  1.00  0.00    -0.168 OA 
BRANCH   8  11
HETATM   11  C   UNL     1     -10.882  10.338  68.267  1.00  0.00    -0.255 C  
BRANCH  11  12
HETATM   12  O   UNL     1     -12.037  11.199  68.201  1.00  0.00    -0.633 OA 
BRANCH  12  13
HETATM   13  C   UNL     1     -11.742  12.518  67.943  1.00  0.00    -0.359 A  
HETATM   14  C   UNL     1     -11.493  13.442  68.965  1.00  0.00    -0.348 A  
HETATM   15  C   UNL     1     -11.148  14.754  68.665  1.00  0.00    -0.274 A  
HETATM   16  C   UNL     1     -11.053  15.159  67.339  1.00  0.00    -0.325 A  
HETATM   17  C   UNL     1     -11.334  14.263  66.299  1.00  0.00    -0.347 A  
HETATM   18  C   UNL     1     -11.732  12.939  66.599  1.00  0.00    -0.452 A  
HETATM   19  C   UNL     1     -12.094  11.975  65.487  1.00  0.00    -0.067 C  
HETATM   20  C   UNL     1     -12.317  12.659  64.133  1.00  0.00    -0.436 C  
HETATM   21  C   UNL     1     -11.199  13.669  63.831  1.00  0.00    -0.039 C  
HETATM   22  O   UNL     1     -12.391  11.683  63.092  1.00  0.00    -0.937 OA 
HETATM   23  H   UNL     1     -12.529  12.106  62.253  1.00  0.00     0.000 HD 
HETATM   24  O   UNL     1      -9.900  13.063  63.794  1.00  0.00    -0.730 OA 
HETATM   25  C   UNL     1     -11.223  14.781  64.879  1.00  0.00    -0.411 C  
HETATM   26  H   UNL     1      -9.208  13.687  63.607  1.00  0.00     0.000 HD 
ENDBRANCH  12  13
ENDBRANCH  11  12
ENDBRANCH   8  11
ENDBRANCH   7   8
ENDBRANCH   5   7
TORSDOF 5
ENDMDL
MODEL       27
REMARK 921   NORMALIZED FREE ENERGY PREDICTED BY IDOCK:   -6.18 KCAL/MOL
REMARK 922        TOTAL FREE ENERGY PREDICTED BY IDOCK:   -8.71 KCAL/MOL
REMARK 923 INTER-LIGAND FREE ENERGY PREDICTED BY IDOCK:   -7.97 KCAL/MOL
REMARK 924 INTRA-LIGAND FREE ENERGY PREDICTED BY IDOCK:   -0.75 KCAL/MOL
REMARK 927      BINDING AFFINITY PREDICTED BY RF-SCORE:    0.00 PKD
ROOT
HETATM    1  C   UNL     1     -13.153  10.102  71.910  1.00  0.00    -0.571 C  
HETATM    2  C   UNL     1     -12.534   8.742  71.540  1.00  0.00    -0.326 C  
HETATM    3  C   UNL     1     -13.663   7.695  71.490  1.00  0.00    -0.440 C  
HETATM    4  C   UNL     1     -11.525   8.312  72.620  1.00  0.00    -0.423 C  
HETATM    5  N   UNL     1     -11.903   8.758  70.208  1.00  0.00    -0.466 NA 
HETATM    6  H   UNL     1     -12.613   8.879  69.485  1.00  0.00     0.000 HD 
ENDROOT
BRANCH   5   7
HETATM    7  C   UNL     1     -10.833   9.747  70.034  1.00  0.00    -0.278 C  
BRANCH   7   8
HETATM    8  C   UNL     1      -9.557   9.101  69.461  1.00  0.00    -0.168 C  
HETATM    9  H   UNL     1      -8.888   7.274  69.143  1.00  0.00     0.000 HD 
HETATM   10  O   UNL     1      -9.675   7.673  69.497  1.00  0.00    -0.166 OA 
BRANCH   8  11
HETATM   11  C   UNL     1      -9.328   9.577  68.019  1.00  0.00    -0.132 C  
BRANCH  11  12
HETATM   12  O   UNL     1     -10.577   9.998  67.432  1.00  0.00    -0.242 OA 
BRANCH  12  13
HETATM   13  C   UNL     1     -10.448  10.585  66.195  1.00  0.00    -0.168 A  
HETATM   14  C   UNL     1      -9.867   9.920  65.109  1.00  0.00    -0.348 A  
HETATM   15  C   UNL     1      -9.799  10.526  63.860  1.00  0.00    -0.373 A  
HETATM   16  C   UNL     1     -10.306  11.808  63.685  1.00  0.00    -0.476 A  
HETATM   17  C   UNL     1     -10.858  12.509  64.765  1.00  0.00    -0.332 A  
HETATM   18  C   UNL     1     -10.887  11.916  66.049  1.00  0.00    -0.342 A  
HETATM   19  C   UNL     1     -11.429  12.682  67.237  1.00  0.00    -0.402 C  
HETATM   20  C   UNL     1     -11.585  14.185  66.977  1.00  0.00    -0.382 C  
HETATM   21  C   UNL     1     -12.264  14.445  65.623  1.00  0.00    -0.344 C  
HETATM   22  O   UNL     1     -12.338  14.794  68.028  1.00  0.00    -0.592 OA 
HETATM   23  H   UNL     1     -12.434  15.725  67.867  1.00  0.00     0.000 HD 
HETATM   24  O   UNL     1     -13.570  13.859  65.536  1.00  0.00    -0.613 OA 
HETATM   25  C   UNL     1     -11.379  13.907  64.500  1.00  0.00    -0.381 C  
HETATM   26  H   UNL     1     -13.990  14.020  64.699  1.00  0.00     0.000 HD 
ENDBRANCH  12  13
ENDBRANCH  11  12
ENDBRANCH   8  11
ENDBRANCH   7   8
ENDBRANCH   5   7
TORSDOF 5
ENDMDL
MODEL       28
REMARK 921   NORMALIZED FREE ENERGY PREDICTED BY IDOCK:   -6.18 KCAL/MOL
REMARK 922        TOTAL FREE ENERGY PREDICTED BY IDOCK:   -8.71 KCAL/MOL
REMARK 923 INTER-LIGAND FREE ENERGY PREDICTED BY IDOCK:   -7.70 KCAL/MOL
REMARK 924 INTRA-LIGAND FREE ENERGY PREDICTED BY IDOCK:   -1.01 KCAL/MOL
REMARK 927      BINDING AFFINITY PREDICTED BY RF-SCORE:    0.00 PKD
ROOT
HETATM    1  C   UNL     1     -11.386  15.994  68.541  1.00  0.00    -0.382 C  
HETATM    2  C   UNL     1      -9.870  15.960  68.274  1.00  0.00    -0.217 C  
HETATM    3  C   UNL     1      -9.248  14.864  69.159  1.00  0.00    -0.142 C  
HETATM    4  C   UNL     1      -9.238  17.309  68.659  1.00  0.00    -0.266 C  
HETATM    5  N   UNL     1      -9.556  15.613  66.876  1.00  0.00    -0.225 NA 
HETATM    6  H   UNL     1      -9.834  14.651  66.683  1.00  0.00     0.000 HD 
ENDROOT
BRANCH   5   7
HETATM    7  C   UNL     1     -10.123  16.514  65.865  1.00  0.00    -0.337 C  
BRANCH   7   8
HETATM    8  C   UNL     1     -11.246  15.827  65.065  1.00  0.00    -0.308 C  
HETATM    9  H   UNL     1     -12.168  16.111  63.346  1.00  0.00     0.000 HD 
HETATM   10  O   UNL     1     -11.476  16.535  63.840  1.00  0.00    -1.145 OA 
BRANCH   8  11
HETATM   11  C   UNL     1     -10.866  14.368  64.769  1.00  0.00    -0.399 C  
BRANCH  11  12
HETATM   12  O   UNL     1     -11.497  13.490  65.724  1.00  0.00    -0.307 OA 
BRANCH  12  13
HETATM   13  C   UNL     1     -11.012  12.202  65.709  1.00  0.00    -0.297 A  
HETATM   14  C   UNL     1     -10.531  11.598  64.542  1.00  0.00    -0.359 A  
HETATM   15  C   UNL     1     -10.003  10.313  64.575  1.00  0.00    -0.359 A  
HETATM   16  C   UNL     1      -9.954   9.615  65.775  1.00  0.00    -0.342 A  
HETATM   17  C   UNL     1     -10.464  10.183  66.950  1.00  0.00    -0.286 A  
HETATM   18  C   UNL     1     -11.047  11.472  66.913  1.00  0.00    -0.366 A  
HETATM   19  C   UNL     1     -11.653  12.077  68.163  1.00  0.00    -0.403 C  
HETATM   20  C   UNL     1     -11.874  11.060  69.290  1.00  0.00    -0.340 C  
HETATM   21  C   UNL     1     -10.635  10.172  69.486  1.00  0.00    -0.245 C  
HETATM   22  O   UNL     1     -12.193  11.734  70.509  1.00  0.00    -0.358 OA 
HETATM   23  H   UNL     1     -12.330  11.104  71.206  1.00  0.00     0.000 HD 
HETATM   24  O   UNL     1      -9.460  10.926  69.816  1.00  0.00    -0.363 OA 
HETATM   25  C   UNL     1     -10.389   9.357  68.217  1.00  0.00    -0.251 C  
HETATM   26  H   UNL     1      -8.694  10.377  69.938  1.00  0.00     0.000 HD 
ENDBRANCH  12  13
ENDBRANCH  11  12
ENDBRANCH   8  11
ENDBRANCH   7   8
ENDBRANCH   5   7
TORSDOF 5
ENDMDL
MODEL       29
REMARK 921   NORMALIZED FREE ENERGY PREDICTED BY IDOCK:   -6.18 KCAL/MOL
REMARK 922        TOTAL FREE ENERGY PREDICTED BY IDOCK:   -8.71 KCAL/MOL
REMARK 923 INTER-LIGAND FREE ENERGY PREDICTED BY IDOCK:   -8.30 KCAL/MOL
REMARK 924 INTRA-LIGAND FREE ENERGY PREDICTED BY IDOCK:   -0.41 KCAL/MOL
REMARK 927      BINDING AFFINITY PREDICTED BY RF-SCORE:    0.00 PKD
ROOT
HETATM    1  C   UNL     1      -9.852  20.382  67.824  1.00  0.00    -0.494 C  
HETATM    2  C   UNL     1      -9.455  19.166  66.967  1.00  0.00    -0.316 C  
HETATM    3  C   UNL     1      -8.241  19.558  66.104  1.00  0.00    -0.336 C  
HETATM    4  C   UNL     1     -10.612  18.783  66.027  1.00  0.00    -0.442 C  
HETATM    5  N   UNL     1      -9.042  18.013  67.789  1.00  0.00    -0.259 NA 
HETATM    6  H   UNL     1      -8.175  18.227  68.282  1.00  0.00     0.000 HD 
ENDROOT
BRANCH   5   7
HETATM    7  C   UNL     1     -10.053  17.526  68.735  1.00  0.00    -0.363 C  
BRANCH   7   8
HETATM    8  C   UNL     1      -9.905  16.014  68.988  1.00  0.00    -0.239 C  
HETATM    9  H   UNL     1      -8.553  14.811  69.769  1.00  0.00     0.000 HD 
HETATM   10  O   UNL     1      -8.644  15.744  69.613  1.00  0.00    -0.212 OA 
BRANCH   8  11
HETATM   11  C   UNL     1     -11.054  15.514  69.876  1.00  0.00    -0.310 C  
BRANCH  11  12
HETATM   12  O   UNL     1     -12.095  14.936  69.061  1.00  0.00    -0.282 OA 
BRANCH  12  13
HETATM   13  C   UNL     1     -11.780  13.703  68.538  1.00  0.00    -0.357 A  
HETATM   14  C   UNL     1     -11.689  12.555  69.334  1.00  0.00    -0.383 A  
HETATM   15  C   UNL     1     -11.418  11.317  68.764  1.00  0.00    -0.359 A  
HETATM   16  C   UNL     1     -11.232  11.213  67.391  1.00  0.00    -0.363 A  
HETATM   17  C   UNL     1     -11.281  12.353  66.577  1.00  0.00    -0.368 A  
HETATM   18  C   UNL     1     -11.508  13.623  67.158  1.00  0.00    -0.367 A  
HETATM   19  C   UNL     1     -11.508  14.871  66.300  1.00  0.00    -0.269 C  
HETATM   20  C   UNL     1     -10.913  14.653  64.903  1.00  0.00    -0.407 C  
HETATM   21  C   UNL     1     -11.469  13.375  64.258  1.00  0.00    -0.393 C  
HETATM   22  O   UNL     1     -11.184  15.782  64.069  1.00  0.00    -0.772 OA 
HETATM   23  H   UNL     1     -10.816  15.647  63.204  1.00  0.00     0.000 HD 
HETATM   24  O   UNL     1     -12.896  13.400  64.115  1.00  0.00    -0.635 OA 
HETATM   25  C   UNL     1     -11.054  12.163  65.092  1.00  0.00    -0.369 C  
HETATM   26  H   UNL     1     -13.240  12.610  63.715  1.00  0.00     0.000 HD 
ENDBRANCH  12  13
ENDBRANCH  11  12
ENDBRANCH   8  11
ENDBRANCH   7   8
ENDBRANCH   5   7
TORSDOF 5
ENDMDL
MODEL       30
REMARK 921   NORMALIZED FREE ENERGY PREDICTED BY IDOCK:   -6.18 KCAL/MOL
REMARK 922        TOTAL FREE ENERGY PREDICTED BY IDOCK:   -8.71 KCAL/MOL
REMARK 923 INTER-LIGAND FREE ENERGY PREDICTED BY IDOCK:   -7.95 KCAL/MOL
REMARK 924 INTRA-LIGAND FREE ENERGY PREDICTED BY IDOCK:   -0.76 KCAL/MOL
REMARK 927      BINDING AFFINITY PREDICTED BY RF-SCORE:    0.00 PKD
ROOT
HETATM    1  C   UNL     1     -10.761  16.473  67.453  1.00  0.00    -0.260 C  
HETATM    2  C   UNL     1     -10.084  15.677  66.322  1.00  0.00    -0.299 C  
HETATM    3  C   UNL     1      -8.609  16.116  66.239  1.00  0.00    -0.373 C  
HETATM    4  C   UNL     1     -10.759  15.996  64.976  1.00  0.00    -0.400 C  
HETATM    5  N   UNL     1     -10.086  14.226  66.580  1.00  0.00    -0.266 NA 
HETATM    6  H   UNL     1      -9.495  14.011  67.383  1.00  0.00     0.000 HD 
ENDROOT
BRANCH   5   7
HETATM    7  C   UNL     1     -11.413  13.624  66.756  1.00  0.00    -0.346 C  
BRANCH   7   8
HETATM    8  C   UNL     1     -11.438  12.163  66.268  1.00  0.00    -0.374 C  
HETATM    9  H   UNL     1     -10.614  11.117  64.814  1.00  0.00     0.000 HD 
HETATM   10  O   UNL     1     -10.599  12.019  65.115  1.00  0.00    -0.268 OA 
BRANCH   8  11
HETATM   11  C   UNL     1     -10.962  11.226  67.389  1.00  0.00    -0.282 C  
BRANCH  11  12
HETATM   12  O   UNL     1     -10.743  11.976  68.601  1.00  0.00    -0.223 OA 
BRANCH  12  13
HETATM   13  C   UNL     1     -11.544  11.592  69.652  1.00  0.00    -0.330 A  
HETATM   14  C   UNL     1     -11.720  10.249  70.007  1.00  0.00    -0.330 A  
HETATM   15  C   UNL     1     -12.496   9.902  71.106  1.00  0.00    -0.464 A  
HETATM   16  C   UNL     1     -13.112  10.894  71.859  1.00  0.00    -0.537 A  
HETATM   17  C   UNL     1     -12.982  12.243  71.503  1.00  0.00    -0.390 A  
HETATM   18  C   UNL     1     -12.232  12.599  70.357  1.00  0.00    -0.368 A  
HETATM   19  C   UNL     1     -12.130  14.048  69.926  1.00  0.00    -0.406 C  
HETATM   20  C   UNL     1     -13.156  14.963  70.606  1.00  0.00    -0.315 C  
HETATM   21  C   UNL     1     -13.217  14.698  72.118  1.00  0.00    -0.363 C  
HETATM   22  O   UNL     1     -12.835  16.334  70.361  1.00  0.00    -0.370 OA 
HETATM   23  H   UNL     1     -13.470  16.900  70.782  1.00  0.00     0.000 HD 
HETATM   24  O   UNL     1     -11.957  14.910  72.770  1.00  0.00    -0.308 OA 
HETATM   25  C   UNL     1     -13.693  13.266  72.364  1.00  0.00    -0.678 C  
HETATM   26  H   UNL     1     -11.995  14.747  73.706  1.00  0.00     0.000 HD 
ENDBRANCH  12  13
ENDBRANCH  11  12
ENDBRANCH   8  11
ENDBRANCH   7   8
ENDBRANCH   5   7
TORSDOF 5
ENDMDL
MODEL       31
REMARK 921   NORMALIZED FREE ENERGY PREDICTED BY IDOCK:   -6.16 KCAL/MOL
REMARK 922        TOTAL FREE ENERGY PREDICTED BY IDOCK:   -8.69 KCAL/MOL
REMARK 923 INTER-LIGAND FREE ENERGY PREDICTED BY IDOCK:   -7.92 KCAL/MOL
REMARK 924 INTRA-LIGAND FREE ENERGY PREDICTED BY IDOCK:   -0.77 KCAL/MOL
REMARK 927      BINDING AFFINITY PREDICTED BY RF-SCORE:    0.00 PKD
ROOT
HETATM    1  C   UNL     1     -10.751   6.820  69.453  1.00  0.00    -0.291 C  
HETATM    2  C   UNL     1     -10.281   8.175  68.894  1.00  0.00    -0.210 C  
HETATM    3  C   UNL     1     -10.488   8.166  67.368  1.00  0.00    -0.356 C  
HETATM    4  C   UNL     1      -8.780   8.369  69.177  1.00  0.00    -0.142 C  
HETATM    5  N   UNL     1     -11.066   9.303  69.428  1.00  0.00    -0.425 NA 
HETATM    6  H   UNL     1     -12.028   9.250  69.093  1.00  0.00     0.000 HD 
ENDROOT
BRANCH   5   7
HETATM    7  C   UNL     1     -11.048   9.443  70.888  1.00  0.00    -0.319 C  
BRANCH   7   8
HETATM    8  C   UNL     1     -12.448   9.225  71.492  1.00  0.00    -0.355 C  
HETATM    9  H   UNL     1     -13.212   8.306  73.060  1.00  0.00     0.000 HD 
HETATM   10  O   UNL     1     -12.348   8.440  72.687  1.00  0.00    -0.365 OA 
BRANCH   8  11
HETATM   11  C   UNL     1     -13.104  10.579  71.803  1.00  0.00    -0.464 C  
BRANCH  11  12
HETATM   12  O   UNL     1     -12.777  11.535  70.773  1.00  0.00    -0.301 OA 
BRANCH  12  13
HETATM   13  C   UNL     1     -12.762  12.842  71.202  1.00  0.00    -0.276 A  
HETATM   14  C   UNL     1     -13.483  13.268  72.325  1.00  0.00    -0.679 A  
HETATM   15  C   UNL     1     -13.404  14.586  72.759  1.00  0.00    -0.600 A  
HETATM   16  C   UNL     1     -12.607  15.494  72.073  1.00  0.00    -0.481 A  
HETATM   17  C   UNL     1     -11.906  15.102  70.925  1.00  0.00    -0.373 A  
HETATM   18  C   UNL     1     -12.021  13.774  70.450  1.00  0.00    -0.385 A  
HETATM   19  C   UNL     1     -11.314  13.349  69.179  1.00  0.00    -0.333 C  
HETATM   20  C   UNL     1     -10.807  14.527  68.338  1.00  0.00    -0.243 C  
HETATM   21  C   UNL     1     -10.084  15.562  69.214  1.00  0.00    -0.256 C  
HETATM   22  O   UNL     1      -9.933  14.059  67.309  1.00  0.00    -0.236 OA 
HETATM   23  H   UNL     1      -9.618  14.789  66.788  1.00  0.00     0.000 HD 
HETATM   24  O   UNL     1      -8.953  15.012  69.904  1.00  0.00    -0.451 OA 
HETATM   25  C   UNL     1     -11.070  16.151  70.222  1.00  0.00    -0.375 C  
HETATM   26  H   UNL     1      -8.506  15.652  70.446  1.00  0.00     0.000 HD 
ENDBRANCH  12  13
ENDBRANCH  11  12
ENDBRANCH   8  11
ENDBRANCH   7   8
ENDBRANCH   5   7
TORSDOF 5
ENDMDL
MODEL       32
REMARK 921   NORMALIZED FREE ENERGY PREDICTED BY IDOCK:   -6.15 KCAL/MOL
REMARK 922        TOTAL FREE ENERGY PREDICTED BY IDOCK:   -8.68 KCAL/MOL
REMARK 923 INTER-LIGAND FREE ENERGY PREDICTED BY IDOCK:   -8.23 KCAL/MOL
REMARK 924 INTRA-LIGAND FREE ENERGY PREDICTED BY IDOCK:   -0.45 KCAL/MOL
REMARK 927      BINDING AFFINITY PREDICTED BY RF-SCORE:    0.00 PKD
ROOT
HETATM    1  C   UNL     1     -11.713   6.093  72.147  1.00  0.00    -0.361 C  
HETATM    2  C   UNL     1     -11.076   6.887  70.991  1.00  0.00    -0.266 C  
HETATM    3  C   UNL     1     -11.039   5.981  69.746  1.00  0.00    -0.476 C  
HETATM    4  C   UNL     1      -9.630   7.272  71.351  1.00  0.00    -0.165 C  
HETATM    5  N   UNL     1     -11.863   8.080  70.631  1.00  0.00    -0.466 NA 
HETATM    6  H   UNL     1     -12.761   7.802  70.237  1.00  0.00     0.000 HD 
ENDROOT
BRANCH   5   7
HETATM    7  C   UNL     1     -12.068   9.046  71.718  1.00  0.00    -0.368 C  
BRANCH   7   8
HETATM    8  C   UNL     1     -13.484   9.649  71.676  1.00  0.00    -0.374 C  
HETATM    9  H   UNL     1     -15.241   9.252  72.477  1.00  0.00     0.000 HD 
HETATM   10  O   UNL     1     -14.367   8.879  72.503  1.00  0.00    -0.579 OA 
BRANCH   8  11
HETATM   11  C   UNL     1     -13.450  11.108  72.153  1.00  0.00    -0.088 C  
BRANCH  11  12
HETATM   12  O   UNL     1     -12.964  11.963  71.098  1.00  0.00    -0.299 OA 
BRANCH  12  13
HETATM   13  C   UNL     1     -12.826  13.283  71.461  1.00  0.00    -0.327 A  
HETATM   14  C   UNL     1     -13.413  13.804  72.620  1.00  0.00    -0.638 A  
HETATM   15  C   UNL     1     -13.210  15.130  72.982  1.00  0.00    -0.604 A  
HETATM   16  C   UNL     1     -12.423  15.953  72.185  1.00  0.00    -0.540 A  
HETATM   17  C   UNL     1     -11.857  15.465  71.000  1.00  0.00    -0.406 A  
HETATM   18  C   UNL     1     -12.099  14.130  70.602  1.00  0.00    -0.421 A  
HETATM   19  C   UNL     1     -11.540  13.604  69.295  1.00  0.00    -0.363 C  
HETATM   20  C   UNL     1     -11.038  14.708  68.357  1.00  0.00    -0.257 C  
HETATM   21  C   UNL     1     -10.173  15.728  69.114  1.00  0.00    -0.231 C  
HETATM   22  O   UNL     1     -10.293  14.139  67.278  1.00  0.00    -0.264 OA 
HETATM   23  H   UNL     1      -9.982  14.823  66.697  1.00  0.00     0.000 HD 
HETATM   24  O   UNL     1      -9.021  15.132  69.727  1.00  0.00    -0.446 OA 
HETATM   25  C   UNL     1     -11.023  16.425  70.176  1.00  0.00    -0.291 C  
HETATM   26  H   UNL     1      -8.486  15.762  70.196  1.00  0.00     0.000 HD 
ENDBRANCH  12  13
ENDBRANCH  11  12
ENDBRANCH   8  11
ENDBRANCH   7   8
ENDBRANCH   5   7
TORSDOF 5
ENDMDL
MODEL       33
REMARK 921   NORMALIZED FREE ENERGY PREDICTED BY IDOCK:   -6.14 KCAL/MOL
REMARK 922        TOTAL FREE ENERGY PREDICTED BY IDOCK:   -8.65 KCAL/MOL
REMARK 923 INTER-LIGAND FREE ENERGY PREDICTED BY IDOCK:   -8.09 KCAL/MOL
REMARK 924 INTRA-LIGAND FREE ENERGY PREDICTED BY IDOCK:   -0.56 KCAL/MOL
REMARK 927      BINDING AFFINITY PREDICTED BY RF-SCORE:    0.00 PKD
ROOT
HETATM    1  C   UNL     1      -8.840  15.914  67.672  1.00  0.00    -0.180 C  
HETATM    2  C   UNL     1     -10.301  16.337  67.435  1.00  0.00    -0.285 C  
HETATM    3  C   UNL     1     -10.784  15.691  66.123  1.00  0.00    -0.305 C  
HETATM    4  C   UNL     1     -10.388  17.866  67.281  1.00  0.00    -0.374 C  
HETATM    5  N   UNL     1     -11.201  15.864  68.503  1.00  0.00    -0.344 NA 
HETATM    6  H   UNL     1     -11.262  14.847  68.485  1.00  0.00     0.000 HD 
ENDROOT
BRANCH   5   7
HETATM    7  C   UNL     1     -10.863  16.326  69.855  1.00  0.00    -0.352 C  
BRANCH   7   8
HETATM    8  C   UNL     1     -11.442  15.387  70.931  1.00  0.00    -0.361 C  
HETATM    9  H   UNL     1     -12.378  15.580  72.655  1.00  0.00     0.000 HD 
HETATM   10  O   UNL     1     -12.021  16.159  71.991  1.00  0.00    -0.479 OA 
BRANCH   8  11
HETATM   11  C   UNL     1     -12.501  14.464  70.310  1.00  0.00    -0.354 C  
BRANCH  11  12
HETATM   12  O   UNL     1     -12.501  13.188  70.984  1.00  0.00    -0.370 OA 
BRANCH  12  13
HETATM   13  C   UNL     1     -11.983  12.156  70.235  1.00  0.00    -0.305 A  
HETATM   14  C   UNL     1     -11.286  12.376  69.041  1.00  0.00    -0.320 A  
HETATM   15  C   UNL     1     -10.733  11.312  68.337  1.00  0.00    -0.238 A  
HETATM   16  C   UNL     1     -10.877  10.016  68.816  1.00  0.00    -0.252 A  
HETATM   17  C   UNL     1     -11.604   9.766  69.988  1.00  0.00    -0.185 A  
HETATM   18  C   UNL     1     -12.209  10.840  70.683  1.00  0.00    -0.474 A  
HETATM   19  C   UNL     1     -13.044  10.581  71.920  1.00  0.00    -0.567 C  
HETATM   20  C   UNL     1     -13.431   9.108  72.099  1.00  0.00    -0.469 C  
HETATM   21  C   UNL     1     -12.221   8.186  71.881  1.00  0.00    -0.331 C  
HETATM   22  O   UNL     1     -13.980   8.895  73.401  1.00  0.00    -1.236 OA 
HETATM   23  H   UNL     1     -14.220   7.983  73.512  1.00  0.00     0.000 HD 
HETATM   24  O   UNL     1     -11.145   8.459  72.790  1.00  0.00    -0.327 OA 
HETATM   25  C   UNL     1     -11.729   8.326  70.440  1.00  0.00     0.015 C  
HETATM   26  H   UNL     1     -10.396   7.889  72.655  1.00  0.00     0.000 HD 
ENDBRANCH  12  13
ENDBRANCH  11  12
ENDBRANCH   8  11
ENDBRANCH   7   8
ENDBRANCH   5   7
TORSDOF 5
ENDMDL
MODEL       34
REMARK 921   NORMALIZED FREE ENERGY PREDICTED BY IDOCK:   -6.10 KCAL/MOL
REMARK 922        TOTAL FREE ENERGY PREDICTED BY IDOCK:   -8.60 KCAL/MOL
REMARK 923 INTER-LIGAND FREE ENERGY PREDICTED BY IDOCK:   -8.26 KCAL/MOL
REMARK 924 INTRA-LIGAND FREE ENERGY PREDICTED BY IDOCK:   -0.35 KCAL/MOL
REMARK 927      BINDING AFFINITY PREDICTED BY RF-SCORE:    0.00 PKD
ROOT
HETATM    1  C   UNL     1     -10.294   6.606  74.073  1.00  0.00    -0.377 C  
HETATM    2  C   UNL     1     -11.010   6.081  72.815  1.00  0.00    -0.264 C  
HETATM    3  C   UNL     1     -11.487   4.644  73.096  1.00  0.00    -0.317 C  
HETATM    4  C   UNL     1     -10.030   6.042  71.629  1.00  0.00    -0.211 C  
HETATM    5  N   UNL     1     -12.208   6.874  72.482  1.00  0.00    -0.500 NA 
HETATM    6  H   UNL     1     -12.918   6.756  73.204  1.00  0.00     0.000 HD 
ENDROOT
BRANCH   5   7
HETATM    7  C   UNL     1     -11.966   8.301  72.240  1.00  0.00    -0.386 C  
BRANCH   7   8
HETATM    8  C   UNL     1     -13.211   8.991  71.652  1.00  0.00    -0.371 C  
HETATM    9  H   UNL     1     -15.166   8.748  71.735  1.00  0.00     0.000 HD 
HETATM   10  O   UNL     1     -14.398   8.322  72.098  1.00  0.00    -0.417 OA 
BRANCH   8  11
HETATM   11  C   UNL     1     -13.245  10.467  72.076  1.00  0.00    -0.378 C  
BRANCH  11  12
HETATM   12  O   UNL     1     -12.634  11.289  71.060  1.00  0.00    -0.376 OA 
BRANCH  12  13
HETATM   13  C   UNL     1     -12.860  12.637  71.215  1.00  0.00    -0.250 A  
HETATM   14  C   UNL     1     -13.672  13.146  72.236  1.00  0.00    -0.647 A  
HETATM   15  C   UNL     1     -13.836  14.517  72.393  1.00  0.00    -0.587 A  
HETATM   16  C   UNL     1     -13.195  15.395  71.528  1.00  0.00    -0.572 A  
HETATM   17  C   UNL     1     -12.408  14.909  70.475  1.00  0.00    -0.400 A  
HETATM   18  C   UNL     1     -12.275  13.515  70.281  1.00  0.00    -0.417 A  
HETATM   19  C   UNL     1     -11.474  12.974  69.115  1.00  0.00    -0.353 C  
HETATM   20  C   UNL     1     -11.161  14.029  68.046  1.00  0.00    -0.279 C  
HETATM   21  C   UNL     1     -10.653  15.331  68.685  1.00  0.00    -0.236 C  
HETATM   22  O   UNL     1     -10.193  13.526  67.123  1.00  0.00    -0.244 OA 
HETATM   23  H   UNL     1      -9.999  14.179  66.461  1.00  0.00     0.000 HD 
HETATM   24  O   UNL     1      -9.461  15.140  69.459  1.00  0.00    -0.343 OA 
HETATM   25  C   UNL     1     -11.752  15.927  69.564  1.00  0.00    -0.331 C  
HETATM   26  H   UNL     1      -9.146  15.945  69.855  1.00  0.00     0.000 HD 
ENDBRANCH  12  13
ENDBRANCH  11  12
ENDBRANCH   8  11
ENDBRANCH   7   8
ENDBRANCH   5   7
TORSDOF 5
ENDMDL
MODEL       35
REMARK 921   NORMALIZED FREE ENERGY PREDICTED BY IDOCK:   -6.10 KCAL/MOL
REMARK 922        TOTAL FREE ENERGY PREDICTED BY IDOCK:   -8.60 KCAL/MOL
REMARK 923 INTER-LIGAND FREE ENERGY PREDICTED BY IDOCK:   -7.66 KCAL/MOL
REMARK 924 INTRA-LIGAND FREE ENERGY PREDICTED BY IDOCK:   -0.94 KCAL/MOL
REMARK 927      BINDING AFFINITY PREDICTED BY RF-SCORE:    0.00 PKD
ROOT
HETATM    1  C   UNL     1     -10.974   8.252  72.318  1.00  0.00    -0.418 C  
HETATM    2  C   UNL     1     -11.651   7.291  71.323  1.00  0.00    -0.286 C  
HETATM    3  C   UNL     1     -13.170   7.324  71.579  1.00  0.00    -0.434 C  
HETATM    4  C   UNL     1     -11.153   5.854  71.557  1.00  0.00    -0.314 C  
HETATM    5  N   UNL     1     -11.442   7.699  69.922  1.00  0.00    -0.471 NA 
HETATM    6  H   UNL     1     -11.923   8.579  69.737  1.00  0.00     0.000 HD 
ENDROOT
BRANCH   5   7
HETATM    7  C   UNL     1     -10.040   7.791  69.499  1.00  0.00    -0.194 C  
BRANCH   7   8
HETATM    8  C   UNL     1      -9.813   8.989  68.559  1.00  0.00    -0.169 C  
HETATM    9  H   UNL     1     -10.516   9.611  66.825  1.00  0.00     0.000 HD 
HETATM   10  O   UNL     1     -10.656   8.872  67.405  1.00  0.00    -0.277 OA 
BRANCH   8  11
HETATM   11  C   UNL     1     -10.109  10.303  69.298  1.00  0.00    -0.227 C  
BRANCH  11  12
HETATM   12  O   UNL     1     -11.399  10.814  68.902  1.00  0.00    -0.244 OA 
BRANCH  12  13
HETATM   13  C   UNL     1     -11.995  11.624  69.841  1.00  0.00    -0.340 A  
HETATM   14  C   UNL     1     -12.649  11.108  70.966  1.00  0.00    -0.503 A  
HETATM   15  C   UNL     1     -13.196  11.958  71.919  1.00  0.00    -0.467 A  
HETATM   16  C   UNL     1     -13.101  13.335  71.755  1.00  0.00    -0.472 A  
HETATM   17  C   UNL     1     -12.486  13.876  70.619  1.00  0.00    -0.436 A  
HETATM   18  C   UNL     1     -11.969  13.015  69.622  1.00  0.00    -0.367 A  
HETATM   19  C   UNL     1     -11.351  13.584  68.361  1.00  0.00    -0.327 C  
HETATM   20  C   UNL     1     -11.663  15.070  68.143  1.00  0.00    -0.312 C  
HETATM   21  C   UNL     1     -11.454  15.875  69.436  1.00  0.00    -0.351 C  
HETATM   22  O   UNL     1     -10.844  15.599  67.098  1.00  0.00    -0.312 OA 
HETATM   23  H   UNL     1     -11.037  16.519  66.964  1.00  0.00     0.000 HD 
HETATM   24  O   UNL     1     -10.111  15.788  69.932  1.00  0.00    -0.275 OA 
HETATM   25  C   UNL     1     -12.433  15.385  70.503  1.00  0.00    -0.468 C  
HETATM   26  H   UNL     1      -9.981  16.286  70.731  1.00  0.00     0.000 HD 
ENDBRANCH  12  13
ENDBRANCH  11  12
ENDBRANCH   8  11
ENDBRANCH   7   8
ENDBRANCH   5   7
TORSDOF 5
ENDMDL
MODEL       36
REMARK 921   NORMALIZED FREE ENERGY PREDICTED BY IDOCK:   -6.07 KCAL/MOL
REMARK 922        TOTAL FREE ENERGY PREDICTED BY IDOCK:   -8.57 KCAL/MOL
REMARK 923 INTER-LIGAND FREE ENERGY PREDICTED BY IDOCK:   -7.89 KCAL/MOL
REMARK 924 INTRA-LIGAND FREE ENERGY PREDICTED BY IDOCK:   -0.68 KCAL/MOL
REMARK 927      BINDING AFFINITY PREDICTED BY RF-SCORE:    0.00 PKD
ROOT
HETATM    1  C   UNL     1     -12.115  13.334  63.401  1.00  0.00    -0.508 C  
HETATM    2  C   UNL     1     -11.079  12.688  64.339  1.00  0.00    -0.345 C  
HETATM    3  C   UNL     1     -10.453  11.483  63.611  1.00  0.00    -0.483 C  
HETATM    4  C   UNL     1     -11.770  12.176  65.615  1.00  0.00    -0.385 C  
HETATM    5  N   UNL     1      -9.976  13.609  64.672  1.00  0.00    -0.620 NA 
HETATM    6  H   UNL     1      -9.423  13.809  63.839  1.00  0.00     0.000 HD 
ENDROOT
BRANCH   5   7
HETATM    7  C   UNL     1     -10.381  14.861  65.322  1.00  0.00    -0.396 C  
BRANCH   7   8
HETATM    8  C   UNL     1      -9.366  15.290  66.399  1.00  0.00    -0.296 C  
HETATM    9  H   UNL     1      -9.071  16.860  67.553  1.00  0.00     0.000 HD 
HETATM   10  O   UNL     1      -9.696  16.596  66.888  1.00  0.00    -0.239 OA 
BRANCH   8  11
HETATM   11  C   UNL     1      -9.364  14.277  67.554  1.00  0.00    -0.199 C  
BRANCH  11  12
HETATM   12  O   UNL     1     -10.549  14.444  68.360  1.00  0.00    -0.235 OA 
BRANCH  12  13
HETATM   13  C   UNL     1     -10.952  13.301  69.012  1.00  0.00    -0.206 A  
HETATM   14  C   UNL     1     -10.412  12.043  68.716  1.00  0.00    -0.207 A  
HETATM   15  C   UNL     1     -10.807  10.918  69.430  1.00  0.00    -0.286 A  
HETATM   16  C   UNL     1     -11.750  11.036  70.444  1.00  0.00    -0.437 A  
HETATM   17  C   UNL     1     -12.332  12.278  70.733  1.00  0.00    -0.383 A  
HETATM   18  C   UNL     1     -11.970  13.418  69.978  1.00  0.00    -0.407 A  
HETATM   19  C   UNL     1     -12.631  14.755  70.241  1.00  0.00    -0.365 C  
HETATM   20  C   UNL     1     -13.900  14.653  71.097  1.00  0.00    -0.275 C  
HETATM   21  C   UNL     1     -13.673  13.746  72.316  1.00  0.00    -0.575 C  
HETATM   22  O   UNL     1     -14.316  15.952  71.522  1.00  0.00    -0.338 OA 
HETATM   23  H   UNL     1     -15.101  15.889  72.052  1.00  0.00     0.000 HD 
HETATM   24  O   UNL     1     -12.620  14.216  73.169  1.00  0.00    -0.272 OA 
HETATM   25  C   UNL     1     -13.362  12.327  71.843  1.00  0.00    -0.431 C  
HETATM   26  H   UNL     1     -12.480  13.655  73.923  1.00  0.00     0.000 HD 
ENDBRANCH  12  13
ENDBRANCH  11  12
ENDBRANCH   8  11
ENDBRANCH   7   8
ENDBRANCH   5   7
TORSDOF 5
ENDMDL
MODEL       37
REMARK 921   NORMALIZED FREE ENERGY PREDICTED BY IDOCK:   -6.05 KCAL/MOL
REMARK 922        TOTAL FREE ENERGY PREDICTED BY IDOCK:   -8.54 KCAL/MOL
REMARK 923 INTER-LIGAND FREE ENERGY PREDICTED BY IDOCK:   -7.59 KCAL/MOL
REMARK 924 INTRA-LIGAND FREE ENERGY PREDICTED BY IDOCK:   -0.95 KCAL/MOL
REMARK 927      BINDING AFFINITY PREDICTED BY RF-SCORE:    0.00 PKD
ROOT
HETATM    1  C   UNL     1      -8.617   9.761  63.678  1.00  0.00    -0.207 C  
HETATM    2  C   UNL     1      -8.986  10.423  65.019  1.00  0.00    -0.195 C  
HETATM    3  C   UNL     1      -7.684  10.705  65.793  1.00  0.00    -0.130 C  
HETATM    4  C   UNL     1      -9.850   9.465  65.859  1.00  0.00    -0.362 C  
HETATM    5  N   UNL     1      -9.665  11.719  64.834  1.00  0.00    -0.365 NA 
HETATM    6  H   UNL     1      -9.022  12.396  64.425  1.00  0.00     0.000 HD 
ENDROOT
BRANCH   5   7
HETATM    7  C   UNL     1     -10.908  11.668  64.055  1.00  0.00    -0.392 C  
BRANCH   7   8
HETATM    8  C   UNL     1     -11.850  12.830  64.423  1.00  0.00    -0.384 C  
HETATM    9  H   UNL     1     -13.793  13.098  64.626  1.00  0.00     0.000 HD 
HETATM   10  O   UNL     1     -13.211  12.381  64.399  1.00  0.00    -0.816 OA 
BRANCH   8  11
HETATM   11  C   UNL     1     -11.497  13.375  65.815  1.00  0.00    -0.320 C  
BRANCH  11  12
HETATM   12  O   UNL     1     -11.629  12.331  66.802  1.00  0.00    -0.356 OA 
BRANCH  12  13
HETATM   13  C   UNL     1     -11.893  12.789  68.073  1.00  0.00    -0.336 A  
HETATM   14  C   UNL     1     -12.073  14.149  68.354  1.00  0.00    -0.308 A  
HETATM   15  C   UNL     1     -12.388  14.570  69.641  1.00  0.00    -0.284 A  
HETATM   16  C   UNL     1     -12.521  13.637  70.662  1.00  0.00    -0.417 A  
HETATM   17  C   UNL     1     -12.309  12.275  70.413  1.00  0.00    -0.309 A  
HETATM   18  C   UNL     1     -11.941  11.845  69.117  1.00  0.00    -0.336 A  
HETATM   19  C   UNL     1     -11.653  10.383  68.845  1.00  0.00    -0.208 C  
HETATM   20  C   UNL     1     -11.461   9.550  70.118  1.00  0.00    -0.162 C  
HETATM   21  C   UNL     1     -12.557   9.855  71.151  1.00  0.00    -0.367 C  
HETATM   22  O   UNL     1     -11.458   8.156  69.803  1.00  0.00    -0.453 OA 
HETATM   23  H   UNL     1     -11.339   7.641  70.591  1.00  0.00     0.000 HD 
HETATM   24  O   UNL     1     -13.876   9.581  70.656  1.00  0.00    -0.554 OA 
HETATM   25  C   UNL     1     -12.459  11.319  71.579  1.00  0.00    -0.332 C  
HETATM   26  H   UNL     1     -14.554   9.769  71.294  1.00  0.00     0.000 HD 
ENDBRANCH  12  13
ENDBRANCH  11  12
ENDBRANCH   8  11
ENDBRANCH   7   8
ENDBRANCH   5   7
TORSDOF 5
ENDMDL
MODEL       38
REMARK 921   NORMALIZED FREE ENERGY PREDICTED BY IDOCK:   -6.04 KCAL/MOL
REMARK 922        TOTAL FREE ENERGY PREDICTED BY IDOCK:   -8.54 KCAL/MOL
REMARK 923 INTER-LIGAND FREE ENERGY PREDICTED BY IDOCK:   -7.74 KCAL/MOL
REMARK 924 INTRA-LIGAND FREE ENERGY PREDICTED BY IDOCK:   -0.80 KCAL/MOL
REMARK 927      BINDING AFFINITY PREDICTED BY RF-SCORE:    0.00 PKD
ROOT
HETATM    1  C   UNL     1     -10.443  19.579  66.419  1.00  0.00    -0.597 C  
HETATM    2  C   UNL     1      -9.824  18.522  67.353  1.00  0.00    -0.312 C  
HETATM    3  C   UNL     1      -9.912  19.044  68.799  1.00  0.00    -0.475 C  
HETATM    4  C   UNL     1      -8.339  18.315  67.003  1.00  0.00    -0.256 C  
HETATM    5  N   UNL     1     -10.557  17.243  67.312  1.00  0.00    -0.319 NA 
HETATM    6  H   UNL     1     -11.491  17.362  67.704  1.00  0.00     0.000 HD 
ENDROOT
BRANCH   5   7
HETATM    7  C   UNL     1     -10.641  16.612  65.990  1.00  0.00    -0.233 C  
BRANCH   7   8
HETATM    8  C   UNL     1     -10.553  15.078  66.091  1.00  0.00    -0.310 C  
HETATM    9  H   UNL     1      -9.168  13.741  66.516  1.00  0.00     0.000 HD 
HETATM   10  O   UNL     1      -9.222  14.687  66.453  1.00  0.00    -0.274 OA 
BRANCH   8  11
HETATM   11  C   UNL     1     -11.557  14.561  67.133  1.00  0.00    -0.388 C  
BRANCH  11  12
HETATM   12  O   UNL     1     -10.868  14.205  68.350  1.00  0.00    -0.241 OA 
BRANCH  12  13
HETATM   13  C   UNL     1     -11.665  14.220  69.472  1.00  0.00    -0.316 A  
HETATM   14  C   UNL     1     -12.200  15.404  69.992  1.00  0.00    -0.392 A  
HETATM   15  C   UNL     1     -13.042  15.376  71.098  1.00  0.00    -0.565 A  
HETATM   16  C   UNL     1     -13.352  14.162  71.700  1.00  0.00    -0.440 A  
HETATM   17  C   UNL     1     -12.799  12.967  71.221  1.00  0.00    -0.370 A  
HETATM   18  C   UNL     1     -11.904  12.996  70.126  1.00  0.00    -0.324 A  
HETATM   19  C   UNL     1     -11.253  11.720  69.632  1.00  0.00    -0.225 C  
HETATM   20  C   UNL     1     -11.380  10.549  70.614  1.00  0.00    -0.275 C  
HETATM   21  C   UNL     1     -12.816  10.427  71.148  1.00  0.00    -0.414 C  
HETATM   22  O   UNL     1     -10.987   9.329  69.983  1.00  0.00    -0.231 OA 
HETATM   23  H   UNL     1     -11.065   8.603  70.591  1.00  0.00     0.000 HD 
HETATM   24  O   UNL     1     -13.779  10.217  70.106  1.00  0.00    -0.306 OA 
HETATM   25  C   UNL     1     -13.173  11.686  71.937  1.00  0.00    -0.475 C  
HETATM   26  H   UNL     1     -14.667  10.141  70.436  1.00  0.00     0.000 HD 
ENDBRANCH  12  13
ENDBRANCH  11  12
ENDBRANCH   8  11
ENDBRANCH   7   8
ENDBRANCH   5   7
TORSDOF 5
ENDMDL
MODEL       39
REMARK 921   NORMALIZED FREE ENERGY PREDICTED BY IDOCK:   -6.00 KCAL/MOL
REMARK 922        TOTAL FREE ENERGY PREDICTED BY IDOCK:   -8.47 KCAL/MOL
REMARK 923 INTER-LIGAND FREE ENERGY PREDICTED BY IDOCK:   -7.50 KCAL/MOL
REMARK 924 INTRA-LIGAND FREE ENERGY PREDICTED BY IDOCK:   -0.97 KCAL/MOL
REMARK 927      BINDING AFFINITY PREDICTED BY RF-SCORE:    0.00 PKD
ROOT
HETATM    1  C   UNL     1     -10.278  10.725  63.955  1.00  0.00    -0.377 C  
HETATM    2  C   UNL     1     -11.125  11.922  64.425  1.00  0.00    -0.336 C  
HETATM    3  C   UNL     1     -12.324  12.071  63.470  1.00  0.00    -0.661 C  
HETATM    4  C   UNL     1     -10.292  13.215  64.359  1.00  0.00    -0.390 C  
HETATM    5  N   UNL     1     -11.676  11.720  65.778  1.00  0.00    -0.349 NA 
HETATM    6  H   UNL     1     -12.356  10.960  65.770  1.00  0.00     0.000 HD 
ENDROOT
BRANCH   5   7
HETATM    7  C   UNL     1     -10.679  11.493  66.832  1.00  0.00    -0.263 C  
BRANCH   7   8
HETATM    8  C   UNL     1     -11.269  10.677  67.997  1.00  0.00    -0.307 C  
HETATM    9  H   UNL     1     -10.591   9.440  69.375  1.00  0.00     0.000 HD 
HETATM   10  O   UNL     1     -10.227   9.944  68.656  1.00  0.00    -0.165 OA 
BRANCH   8  11
HETATM   11  C   UNL     1     -11.969  11.612  68.995  1.00  0.00    -0.305 C  
BRANCH  11  12
HETATM   12  O   UNL     1     -12.156  12.915  68.403  1.00  0.00    -0.291 OA 
BRANCH  12  13
HETATM   13  C   UNL     1     -11.971  13.961  69.277  1.00  0.00    -0.357 A  
HETATM   14  C   UNL     1     -12.407  13.911  70.607  1.00  0.00    -0.451 A  
HETATM   15  C   UNL     1     -12.158  14.967  71.475  1.00  0.00    -0.406 A  
HETATM   16  C   UNL     1     -11.475  16.089  71.022  1.00  0.00    -0.460 A  
HETATM   17  C   UNL     1     -11.061  16.180  69.686  1.00  0.00    -0.344 A  
HETATM   18  C   UNL     1     -11.354  15.128  68.786  1.00  0.00    -0.313 A  
HETATM   19  C   UNL     1     -10.964  15.236  67.326  1.00  0.00    -0.327 C  
HETATM   20  C   UNL     1     -10.579  16.658  66.899  1.00  0.00    -0.229 C  
HETATM   21  C   UNL     1      -9.624  17.302  67.915  1.00  0.00    -0.269 C  
HETATM   22  O   UNL     1      -9.976  16.639  65.603  1.00  0.00    -0.519 OA 
HETATM   23  H   UNL     1      -9.738  17.519  65.338  1.00  0.00     0.000 HD 
HETATM   24  O   UNL     1      -8.407  16.562  68.080  1.00  0.00    -0.174 OA 
HETATM   25  C   UNL     1     -10.334  17.439  69.262  1.00  0.00    -0.212 C  
HETATM   26  H   UNL     1      -7.816  16.961  68.708  1.00  0.00     0.000 HD 
ENDBRANCH  12  13
ENDBRANCH  11  12
ENDBRANCH   8  11
ENDBRANCH   7   8
ENDBRANCH   5   7
TORSDOF 5
ENDMDL
MODEL       40
REMARK 921   NORMALIZED FREE ENERGY PREDICTED BY IDOCK:   -5.98 KCAL/MOL
REMARK 922        TOTAL FREE ENERGY PREDICTED BY IDOCK:   -8.46 KCAL/MOL
REMARK 923 INTER-LIGAND FREE ENERGY PREDICTED BY IDOCK:   -7.52 KCAL/MOL
REMARK 924 INTRA-LIGAND FREE ENERGY PREDICTED BY IDOCK:   -0.94 KCAL/MOL
REMARK 927      BINDING AFFINITY PREDICTED BY RF-SCORE:    0.00 PKD
ROOT
HETATM    1  C   UNL     1      -9.968  13.482  66.595  1.00  0.00    -0.282 C  
HETATM    2  C   UNL     1     -11.413  13.903  66.267  1.00  0.00    -0.339 C  
HETATM    3  C   UNL     1     -12.129  12.706  65.616  1.00  0.00    -0.502 C  
HETATM    4  C   UNL     1     -11.406  15.068  65.261  1.00  0.00    -0.349 C  
HETATM    5  N   UNL     1     -12.179  14.258  67.476  1.00  0.00    -0.598 NA 
HETATM    6  H   UNL     1     -12.318  13.431  68.057  1.00  0.00     0.000 HD 
ENDROOT
BRANCH   5   7
HETATM    7  C   UNL     1     -11.614  15.349  68.278  1.00  0.00    -0.348 C  
BRANCH   7   8
HETATM    8  C   UNL     1     -11.423  14.928  69.747  1.00  0.00    -0.295 C  
HETATM    9  H   UNL     1     -11.610  15.767  71.521  1.00  0.00     0.000 HD 
HETATM   10  O   UNL     1     -11.728  16.027  70.614  1.00  0.00    -0.366 OA 
BRANCH   8  11
HETATM   11  C   UNL     1     -12.327  13.729  70.073  1.00  0.00    -0.300 C  
BRANCH  11  12
HETATM   12  O   UNL     1     -11.688  12.502  69.665  1.00  0.00    -0.300 OA 
BRANCH  12  13
HETATM   13  C   UNL     1     -12.003  11.416  70.449  1.00  0.00    -0.374 A  
HETATM   14  C   UNL     1     -13.003  11.466  71.428  1.00  0.00    -0.468 A  
HETATM   15  C   UNL     1     -13.328  10.334  72.166  1.00  0.00    -0.404 A  
HETATM   16  C   UNL     1     -12.653   9.141  71.939  1.00  0.00    -0.463 A  
HETATM   17  C   UNL     1     -11.623   9.076  70.991  1.00  0.00    -0.360 A  
HETATM   18  C   UNL     1     -11.255  10.236  70.271  1.00  0.00    -0.395 A  
HETATM   19  C   UNL     1     -10.106  10.195  69.284  1.00  0.00    -0.237 C  
HETATM   20  C   UNL     1      -9.224   8.948  69.423  1.00  0.00    -0.146 C  
HETATM   21  C   UNL     1     -10.078   7.676  69.537  1.00  0.00    -0.192 C  
HETATM   22  O   UNL     1      -8.336   8.844  68.308  1.00  0.00    -0.123 OA 
HETATM   23  H   UNL     1      -7.789   8.071  68.395  1.00  0.00     0.000 HD 
HETATM   24  O   UNL     1     -10.927   7.474  68.399  1.00  0.00    -0.423 OA 
HETATM   25  C   UNL     1     -10.923   7.744  70.809  1.00  0.00    -0.259 C  
HETATM   26  H   UNL     1     -11.455   6.687  68.469  1.00  0.00     0.000 HD 
ENDBRANCH  12  13
ENDBRANCH  11  12
ENDBRANCH   8  11
ENDBRANCH   7   8
ENDBRANCH   5   7
TORSDOF 5
ENDMDL
MODEL       41
REMARK 921   NORMALIZED FREE ENERGY PREDICTED BY IDOCK:   -5.98 KCAL/MOL
REMARK 922        TOTAL FREE ENERGY PREDICTED BY IDOCK:   -8.46 KCAL/MOL
REMARK 923 INTER-LIGAND FREE ENERGY PREDICTED BY IDOCK:   -7.87 KCAL/MOL
REMARK 924 INTRA-LIGAND FREE ENERGY PREDICTED BY IDOCK:   -0.59 KCAL/MOL
REMARK 927      BINDING AFFINITY PREDICTED BY RF-SCORE:    0.00 PKD
ROOT
HETATM    1  C   UNL     1     -10.330  13.053  65.189  1.00  0.00    -0.321 C  
HETATM    2  C   UNL     1     -11.765  13.608  65.246  1.00  0.00    -0.334 C  
HETATM    3  C   UNL     1     -12.708  12.576  64.598  1.00  0.00    -0.434 C  
HETATM    4  C   UNL     1     -11.857  14.917  64.443  1.00  0.00    -0.372 C  
HETATM    5  N   UNL     1     -12.233  13.807  66.631  1.00  0.00    -0.426 NA 
HETATM    6  H   UNL     1     -12.326  12.907  67.102  1.00  0.00     0.000 HD 
ENDROOT
BRANCH   5   7
HETATM    7  C   UNL     1     -11.417  14.718  67.442  1.00  0.00    -0.363 C  
BRANCH   7   8
HETATM    8  C   UNL     1     -11.296  14.223  68.895  1.00  0.00    -0.274 C  
HETATM    9  H   UNL     1     -11.765  14.896  70.688  1.00  0.00     0.000 HD 
HETATM   10  O   UNL     1     -11.839  15.202  69.791  1.00  0.00    -0.294 OA 
BRANCH   8  11
HETATM   11  C   UNL     1     -12.036  12.887  69.060  1.00  0.00    -0.251 C  
BRANCH  11  12
HETATM   12  O   UNL     1     -11.443  12.122  70.130  1.00  0.00    -0.170 OA 
BRANCH  12  13
HETATM   13  C   UNL     1     -11.063  10.850  69.768  1.00  0.00    -0.262 A  
HETATM   14  C   UNL     1     -10.200  10.605  68.694  1.00  0.00    -0.196 A  
HETATM   15  C   UNL     1      -9.798   9.310  68.389  1.00  0.00    -0.173 A  
HETATM   16  C   UNL     1     -10.260   8.244  69.152  1.00  0.00    -0.223 A  
HETATM   17  C   UNL     1     -11.154   8.460  70.209  1.00  0.00    -0.216 A  
HETATM   18  C   UNL     1     -11.604   9.770  70.493  1.00  0.00    -0.365 A  
HETATM   19  C   UNL     1     -12.614  10.013  71.596  1.00  0.00    -0.524 C  
HETATM   20  C   UNL     1     -13.313   8.736  72.078  1.00  0.00    -0.413 C  
HETATM   21  C   UNL     1     -12.299   7.604  72.310  1.00  0.00    -0.191 C  
HETATM   22  O   UNL     1     -14.043   8.994  73.279  1.00  0.00    -1.218 OA 
HETATM   23  H   UNL     1     -14.476   8.203  73.577  1.00  0.00     0.000 HD 
HETATM   24  O   UNL     1     -11.305   7.942  73.287  1.00  0.00    -0.517 OA 
HETATM   25  C   UNL     1     -11.624   7.248  70.986  1.00  0.00    -0.329 C  
HETATM   26  H   UNL     1     -10.679   7.242  73.432  1.00  0.00     0.000 HD 
ENDBRANCH  12  13
ENDBRANCH  11  12
ENDBRANCH   8  11
ENDBRANCH   7   8
ENDBRANCH   5   7
TORSDOF 5
ENDMDL
MODEL       42
REMARK 921   NORMALIZED FREE ENERGY PREDICTED BY IDOCK:   -5.96 KCAL/MOL
REMARK 922        TOTAL FREE ENERGY PREDICTED BY IDOCK:   -8.43 KCAL/MOL
REMARK 923 INTER-LIGAND FREE ENERGY PREDICTED BY IDOCK:   -7.60 KCAL/MOL
REMARK 924 INTRA-LIGAND FREE ENERGY PREDICTED BY IDOCK:   -0.83 KCAL/MOL
REMARK 927      BINDING AFFINITY PREDICTED BY RF-SCORE:    0.00 PKD
ROOT
HETATM    1  C   UNL     1      -7.048  19.304  68.840  1.00  0.00    -0.385 C  
HETATM    2  C   UNL     1      -6.876  19.704  67.363  1.00  0.00    -0.207 C  
HETATM    3  C   UNL     1      -5.909  18.704  66.701  1.00  0.00    -0.172 C  
HETATM    4  C   UNL     1      -6.257  21.110  67.267  1.00  0.00    -0.411 C  
HETATM    5  N   UNL     1      -8.144  19.636  66.613  1.00  0.00    -0.293 NA 
HETATM    6  H   UNL     1      -8.457  18.668  66.543  1.00  0.00     0.000 HD 
ENDROOT
BRANCH   5   7
HETATM    7  C   UNL     1      -9.225  20.480  67.135  1.00  0.00    -0.351 C  
BRANCH   7   8
HETATM    8  C   UNL     1     -10.601  19.815  66.942  1.00  0.00    -0.466 C  
HETATM    9  H   UNL     1     -11.706  19.207  65.427  1.00  0.00     0.000 HD 
HETATM   10  O   UNL     1     -10.857  19.617  65.546  1.00  0.00    -0.452 OA 
BRANCH   8  11
HETATM   11  C   UNL     1     -10.644  18.470  67.683  1.00  0.00    -0.414 C  
BRANCH  11  12
HETATM   12  O   UNL     1     -10.890  17.398  66.750  1.00  0.00    -0.154 OA 
BRANCH  12  13
HETATM   13  C   UNL     1     -10.166  16.255  67.001  1.00  0.00    -0.280 A  
HETATM   14  C   UNL     1      -9.186  16.197  67.999  1.00  0.00    -0.195 A  
HETATM   15  C   UNL     1      -8.510  15.010  68.259  1.00  0.00    -0.147 A  
HETATM   16  C   UNL     1      -8.803  13.871  67.520  1.00  0.00    -0.196 A  
HETATM   17  C   UNL     1      -9.752  13.914  66.490  1.00  0.00    -0.303 A  
HETATM   18  C   UNL     1     -10.409  15.130  66.190  1.00  0.00    -0.313 A  
HETATM   19  C   UNL     1     -11.397  15.207  65.044  1.00  0.00    -0.381 C  
HETATM   20  C   UNL     1     -11.326  14.005  64.094  1.00  0.00    -0.153 C  
HETATM   21  C   UNL     1     -11.281  12.683  64.876  1.00  0.00    -0.297 C  
HETATM   22  O   UNL     1     -12.445  14.011  63.204  1.00  0.00    -1.137 OA 
HETATM   23  H   UNL     1     -12.401  13.266  62.616  1.00  0.00     0.000 HD 
HETATM   24  O   UNL     1     -12.428  12.496  65.716  1.00  0.00    -0.626 OA 
HETATM   25  C   UNL     1     -10.008  12.635  65.719  1.00  0.00    -0.266 C  
HETATM   26  H   UNL     1     -12.401  11.679  66.200  1.00  0.00     0.000 HD 
ENDBRANCH  12  13
ENDBRANCH  11  12
ENDBRANCH   8  11
ENDBRANCH   7   8
ENDBRANCH   5   7
TORSDOF 5
ENDMDL
MODEL       43
REMARK 921   NORMALIZED FREE ENERGY PREDICTED BY IDOCK:   -5.95 KCAL/MOL
REMARK 922        TOTAL FREE ENERGY PREDICTED BY IDOCK:   -8.42 KCAL/MOL
REMARK 923 INTER-LIGAND FREE ENERGY PREDICTED BY IDOCK:   -7.60 KCAL/MOL
REMARK 924 INTRA-LIGAND FREE ENERGY PREDICTED BY IDOCK:   -0.82 KCAL/MOL
REMARK 927      BINDING AFFINITY PREDICTED BY RF-SCORE:    0.00 PKD
ROOT
HETATM    1  C   UNL     1     -10.289  17.902  66.198  1.00  0.00    -0.352 C  
HETATM    2  C   UNL     1      -9.861  16.510  66.698  1.00  0.00    -0.268 C  
HETATM    3  C   UNL     1      -9.832  16.539  68.238  1.00  0.00    -0.243 C  
HETATM    4  C   UNL     1      -8.444  16.182  66.195  1.00  0.00    -0.288 C  
HETATM    5  N   UNL     1     -10.815  15.457  66.306  1.00  0.00    -0.313 NA 
HETATM    6  H   UNL     1     -11.706  15.596  66.781  1.00  0.00     0.000 HD 
ENDROOT
BRANCH   5   7
HETATM    7  C   UNL     1     -11.031  15.315  64.861  1.00  0.00    -0.430 C  
BRANCH   7   8
HETATM    8  C   UNL     1     -12.380  14.636  64.557  1.00  0.00    -0.398 C  
HETATM    9  H   UNL     1     -13.145  13.538  63.109  1.00  0.00     0.000 HD 
HETATM   10  O   UNL     1     -12.313  13.958  63.297  1.00  0.00    -0.749 OA 
BRANCH   8  11
HETATM   11  C   UNL     1     -12.733  13.643  65.675  1.00  0.00    -0.454 C  
BRANCH  11  12
HETATM   12  O   UNL     1     -11.730  12.609  65.752  1.00  0.00    -0.373 OA 
BRANCH  12  13
HETATM   13  C   UNL     1     -11.556  12.087  67.014  1.00  0.00    -0.317 A  
HETATM   14  C   UNL     1     -12.015  12.742  68.163  1.00  0.00    -0.295 A  
HETATM   15  C   UNL     1     -11.866  12.161  69.416  1.00  0.00    -0.370 A  
HETATM   16  C   UNL     1     -11.252  10.920  69.536  1.00  0.00    -0.340 A  
HETATM   17  C   UNL     1     -10.751  10.262  68.405  1.00  0.00    -0.263 A  
HETATM   18  C   UNL     1     -10.856  10.871  67.132  1.00  0.00    -0.337 A  
HETATM   19  C   UNL     1     -10.269  10.198  65.908  1.00  0.00    -0.281 C  
HETATM   20  C   UNL     1      -9.303   9.055  66.242  1.00  0.00    -0.225 C  
HETATM   21  C   UNL     1      -9.889   8.131  67.320  1.00  0.00    -0.197 C  
HETATM   22  O   UNL     1      -8.999   8.305  65.065  1.00  0.00    -0.397 OA 
HETATM   23  H   UNL     1      -8.400   7.597  65.272  1.00  0.00     0.000 HD 
HETATM   24  O   UNL     1     -11.133   7.536  66.924  1.00  0.00    -0.501 OA 
HETATM   25  C   UNL     1     -10.082   8.919  68.615  1.00  0.00    -0.206 C  
HETATM   26  H   UNL     1     -11.496   6.964  67.590  1.00  0.00     0.000 HD 
ENDBRANCH  12  13
ENDBRANCH  11  12
ENDBRANCH   8  11
ENDBRANCH   7   8
ENDBRANCH   5   7
TORSDOF 5
ENDMDL
MODEL       44
REMARK 921   NORMALIZED FREE ENERGY PREDICTED BY IDOCK:   -5.94 KCAL/MOL
REMARK 922        TOTAL FREE ENERGY PREDICTED BY IDOCK:   -8.40 KCAL/MOL
REMARK 923 INTER-LIGAND FREE ENERGY PREDICTED BY IDOCK:   -7.93 KCAL/MOL
REMARK 924 INTRA-LIGAND FREE ENERGY PREDICTED BY IDOCK:   -0.47 KCAL/MOL
REMARK 927      BINDING AFFINITY PREDICTED BY RF-SCORE:    0.00 PKD
ROOT
HETATM    1  C   UNL     1     -10.457  19.903  66.327  1.00  0.00    -0.590 C  
HETATM    2  C   UNL     1      -9.757  19.004  67.363  1.00  0.00    -0.315 C  
HETATM    3  C   UNL     1      -9.842  19.695  68.738  1.00  0.00    -0.519 C  
HETATM    4  C   UNL     1      -8.271  18.837  66.998  1.00  0.00    -0.271 C  
HETATM    5  N   UNL     1     -10.415  17.692  67.500  1.00  0.00    -0.364 NA 
HETATM    6  H   UNL     1     -11.345  17.806  67.902  1.00  0.00     0.000 HD 
ENDROOT
BRANCH   5   7
HETATM    7  C   UNL     1     -10.492  16.899  66.268  1.00  0.00    -0.262 C  
BRANCH   7   8
HETATM    8  C   UNL     1     -10.842  15.429  66.565  1.00  0.00    -0.298 C  
HETATM    9  H   UNL     1     -11.820  14.436  67.959  1.00  0.00     0.000 HD 
HETATM   10  O   UNL     1     -11.604  15.343  67.776  1.00  0.00    -0.322 OA 
BRANCH   8  11
HETATM   11  C   UNL     1     -11.638  14.830  65.396  1.00  0.00    -0.316 C  
BRANCH  11  12
HETATM   12  O   UNL     1     -12.292  13.613  65.814  1.00  0.00    -0.433 OA 
BRANCH  12  13
HETATM   13  C   UNL     1     -11.552  12.473  65.596  1.00  0.00    -0.389 A  
HETATM   14  C   UNL     1     -11.185  12.056  64.311  1.00  0.00    -0.421 A  
HETATM   15  C   UNL     1     -10.395  10.927  64.132  1.00  0.00    -0.432 A  
HETATM   16  C   UNL     1      -9.969  10.198  65.236  1.00  0.00    -0.381 A  
HETATM   17  C   UNL     1     -10.355  10.574  66.529  1.00  0.00    -0.294 A  
HETATM   18  C   UNL     1     -11.198  11.694  66.714  1.00  0.00    -0.371 A  
HETATM   19  C   UNL     1     -11.670  12.080  68.101  1.00  0.00    -0.398 C  
HETATM   20  C   UNL     1     -11.448  10.983  69.150  1.00  0.00    -0.301 C  
HETATM   21  C   UNL     1     -10.032  10.395  69.044  1.00  0.00    -0.214 C  
HETATM   22  O   UNL     1     -11.665  11.504  70.463  1.00  0.00    -0.455 OA 
HETATM   23  H   UNL     1     -11.528  10.824  71.113  1.00  0.00     0.000 HD 
HETATM   24  O   UNL     1      -9.006  11.380  69.232  1.00  0.00    -0.382 OA 
HETATM   25  C   UNL     1      -9.863   9.723  67.682  1.00  0.00    -0.202 C  
HETATM   26  H   UNL     1      -8.131  11.016  69.166  1.00  0.00     0.000 HD 
ENDBRANCH  12  13
ENDBRANCH  11  12
ENDBRANCH   8  11
ENDBRANCH   7   8
ENDBRANCH   5   7
TORSDOF 5
ENDMDL
MODEL       45
REMARK 921   NORMALIZED FREE ENERGY PREDICTED BY IDOCK:   -5.94 KCAL/MOL
REMARK 922        TOTAL FREE ENERGY PREDICTED BY IDOCK:   -8.40 KCAL/MOL
REMARK 923 INTER-LIGAND FREE ENERGY PREDICTED BY IDOCK:   -7.61 KCAL/MOL
REMARK 924 INTRA-LIGAND FREE ENERGY PREDICTED BY IDOCK:   -0.79 KCAL/MOL
REMARK 927      BINDING AFFINITY PREDICTED BY RF-SCORE:    0.00 PKD
ROOT
HETATM    1  C   UNL     1     -10.372  13.331  64.513  1.00  0.00    -0.394 C  
HETATM    2  C   UNL     1     -11.267  12.128  64.862  1.00  0.00    -0.323 C  
HETATM    3  C   UNL     1     -10.505  10.838  64.504  1.00  0.00    -0.351 C  
HETATM    4  C   UNL     1     -12.559  12.174  64.027  1.00  0.00    -0.507 C  
HETATM    5  N   UNL     1     -11.575  12.059  66.303  1.00  0.00    -0.486 NA 
HETATM    6  H   UNL     1     -10.727  11.862  66.833  1.00  0.00     0.000 HD 
ENDROOT
BRANCH   5   7
HETATM    7  C   UNL     1     -12.253  13.238  66.855  1.00  0.00    -0.257 C  
BRANCH   7   8
HETATM    8  C   UNL     1     -11.397  13.923  67.937  1.00  0.00    -0.292 C  
HETATM    9  H   UNL     1     -11.214  15.735  68.693  1.00  0.00     0.000 HD 
HETATM   10  O   UNL     1     -11.741  15.312  68.025  1.00  0.00    -0.342 OA 
BRANCH   8  11
HETATM   11  C   UNL     1     -11.617  13.237  69.294  1.00  0.00    -0.314 C  
BRANCH  11  12
HETATM   12  O   UNL     1     -11.103  11.890  69.256  1.00  0.00    -0.240 OA 
BRANCH  12  13
HETATM   13  C   UNL     1     -11.686  11.039  70.166  1.00  0.00    -0.356 A  
HETATM   14  C   UNL     1     -12.651  11.474  71.083  1.00  0.00    -0.463 A  
HETATM   15  C   UNL     1     -13.255  10.576  71.955  1.00  0.00    -0.526 A  
HETATM   16  C   UNL     1     -12.898   9.233  71.923  1.00  0.00    -0.485 A  
HETATM   17  C   UNL     1     -11.909   8.780  71.040  1.00  0.00    -0.315 A  
HETATM   18  C   UNL     1     -11.256   9.698  70.184  1.00  0.00    -0.302 A  
HETATM   19  C   UNL     1     -10.145   9.234  69.265  1.00  0.00    -0.201 C  
HETATM   20  C   UNL     1      -9.605   7.842  69.612  1.00  0.00    -0.163 C  
HETATM   21  C   UNL     1     -10.751   6.849  69.861  1.00  0.00    -0.246 C  
HETATM   22  O   UNL     1      -8.761   7.363  68.563  1.00  0.00    -0.128 OA 
HETATM   23  H   UNL     1      -8.426   6.500  68.778  1.00  0.00     0.000 HD 
HETATM   24  O   UNL     1     -11.614   6.701  68.724  1.00  0.00    -0.587 OA 
HETATM   25  C   UNL     1     -11.564   7.306  71.072  1.00  0.00    -0.329 C  
HETATM   26  H   UNL     1     -12.322   6.088  68.878  1.00  0.00     0.000 HD 
ENDBRANCH  12  13
ENDBRANCH  11  12
ENDBRANCH   8  11
ENDBRANCH   7   8
ENDBRANCH   5   7
TORSDOF 5
ENDMDL
MODEL       46
REMARK 921   NORMALIZED FREE ENERGY PREDICTED BY IDOCK:   -5.90 KCAL/MOL
REMARK 922        TOTAL FREE ENERGY PREDICTED BY IDOCK:   -8.34 KCAL/MOL
REMARK 923 INTER-LIGAND FREE ENERGY PREDICTED BY IDOCK:   -7.59 KCAL/MOL
REMARK 924 INTRA-LIGAND FREE ENERGY PREDICTED BY IDOCK:   -0.76 KCAL/MOL
REMARK 927      BINDING AFFINITY PREDICTED BY RF-SCORE:    0.00 PKD
ROOT
HETATM    1  C   UNL     1     -14.175  15.167  70.968  1.00  0.00    -0.303 C  
HETATM    2  C   UNL     1     -12.832  14.853  71.653  1.00  0.00    -0.328 C  
HETATM    3  C   UNL     1     -13.126  14.166  73.000  1.00  0.00    -0.458 C  
HETATM    4  C   UNL     1     -12.066  16.158  71.933  1.00  0.00    -0.548 C  
HETATM    5  N   UNL     1     -12.007  13.918  70.865  1.00  0.00    -0.488 NA 
HETATM    6  H   UNL     1     -12.454  13.002  70.828  1.00  0.00     0.000 HD 
ENDROOT
BRANCH   5   7
HETATM    7  C   UNL     1     -11.672  14.370  69.509  1.00  0.00    -0.313 C  
BRANCH   7   8
HETATM    8  C   UNL     1     -11.350  13.182  68.583  1.00  0.00    -0.289 C  
HETATM    9  H   UNL     1      -9.733  12.253  67.944  1.00  0.00     0.000 HD 
HETATM   10  O   UNL     1      -9.931  12.986  68.515  1.00  0.00    -0.227 OA 
BRANCH   8  11
HETATM   11  C   UNL     1     -12.035  11.909  69.102  1.00  0.00    -0.276 C  
BRANCH  11  12
HETATM   12  O   UNL     1     -11.292  11.364  70.212  1.00  0.00    -0.223 OA 
BRANCH  12  13
HETATM   13  C   UNL     1     -11.916  10.314  70.846  1.00  0.00    -0.375 A  
HETATM   14  C   UNL     1     -12.994  10.503  71.719  1.00  0.00    -0.582 A  
HETATM   15  C   UNL     1     -13.632   9.414  72.302  1.00  0.00    -0.532 A  
HETATM   16  C   UNL     1     -13.195   8.125  72.024  1.00  0.00    -0.306 A  
HETATM   17  C   UNL     1     -12.095   7.912  71.183  1.00  0.00    -0.294 A  
HETATM   18  C   UNL     1     -11.411   9.018  70.625  1.00  0.00    -0.291 A  
HETATM   19  C   UNL     1     -10.186   8.807  69.760  1.00  0.00    -0.205 C  
HETATM   20  C   UNL     1      -9.603   7.391  69.859  1.00  0.00    -0.163 C  
HETATM   21  C   UNL     1     -10.709   6.329  69.757  1.00  0.00    -0.297 C  
HETATM   22  O   UNL     1      -8.629   7.185  68.835  1.00  0.00    -0.128 OA 
HETATM   23  H   UNL     1      -8.268   6.308  68.896  1.00  0.00     0.000 HD 
HETATM   24  O   UNL     1     -11.439   6.405  68.524  1.00  0.00    -0.547 OA 
HETATM   25  C   UNL     1     -11.668   6.480  70.937  1.00  0.00    -0.416 C  
HETATM   26  H   UNL     1     -12.123   5.748  68.460  1.00  0.00     0.000 HD 
ENDBRANCH  12  13
ENDBRANCH  11  12
ENDBRANCH   8  11
ENDBRANCH   7   8
ENDBRANCH   5   7
TORSDOF 5
ENDMDL
MODEL       47
REMARK 921   NORMALIZED FREE ENERGY PREDICTED BY IDOCK:   -5.89 KCAL/MOL
REMARK 922        TOTAL FREE ENERGY PREDICTED BY IDOCK:   -8.33 KCAL/MOL
REMARK 923 INTER-LIGAND FREE ENERGY PREDICTED BY IDOCK:   -7.93 KCAL/MOL
REMARK 924 INTRA-LIGAND FREE ENERGY PREDICTED BY IDOCK:   -0.40 KCAL/MOL
REMARK 927      BINDING AFFINITY PREDICTED BY RF-SCORE:    0.00 PKD
ROOT
HETATM    1  C   UNL     1      -9.272   7.104  72.493  1.00  0.00    -0.159 C  
HETATM    2  C   UNL     1     -10.635   6.402  72.355  1.00  0.00    -0.213 C  
HETATM    3  C   UNL     1     -10.582   5.083  73.150  1.00  0.00    -0.278 C  
HETATM    4  C   UNL     1     -10.907   6.065  70.878  1.00  0.00    -0.349 C  
HETATM    5  N   UNL     1     -11.736   7.202  72.923  1.00  0.00    -0.543 NA 
HETATM    6  H   UNL     1     -11.629   7.276  73.934  1.00  0.00     0.000 HD 
ENDROOT
BRANCH   5   7
HETATM    7  C   UNL     1     -11.909   8.535  72.334  1.00  0.00    -0.367 C  
BRANCH   7   8
HETATM    8  C   UNL     1     -13.324   8.713  71.751  1.00  0.00    -0.374 C  
HETATM    9  H   UNL     1     -15.162   8.840  72.450  1.00  0.00     0.000 HD 
HETATM   10  O   UNL     1     -14.290   8.730  72.810  1.00  0.00    -0.569 OA 
BRANCH   8  11
HETATM   11  C   UNL     1     -13.400  10.019  70.945  1.00  0.00    -0.219 C  
BRANCH  11  12
HETATM   12  O   UNL     1     -12.094  10.626  70.862  1.00  0.00    -0.330 OA 
BRANCH  12  13
HETATM   13  C   UNL     1     -11.966  11.548  69.848  1.00  0.00    -0.351 A  
HETATM   14  C   UNL     1     -11.674  11.174  68.531  1.00  0.00    -0.368 A  
HETATM   15  C   UNL     1     -11.602  12.128  67.523  1.00  0.00    -0.413 A  
HETATM   16  C   UNL     1     -11.815  13.468  67.822  1.00  0.00    -0.398 A  
HETATM   17  C   UNL     1     -12.071  13.872  69.140  1.00  0.00    -0.377 A  
HETATM   18  C   UNL     1     -12.098  12.911  70.177  1.00  0.00    -0.373 A  
HETATM   19  C   UNL     1     -12.317  13.338  71.614  1.00  0.00    -0.001 C  
HETATM   20  C   UNL     1     -12.147  14.846  71.837  1.00  0.00    -0.362 C  
HETATM   21  C   UNL     1     -12.889  15.652  70.759  1.00  0.00    -0.404 C  
HETATM   22  O   UNL     1     -12.622  15.210  73.135  1.00  0.00    -0.391 OA 
HETATM   23  H   UNL     1     -12.516  16.144  73.273  1.00  0.00     0.000 HD 
HETATM   24  O   UNL     1     -14.297  15.379  70.734  1.00  0.00    -0.842 OA 
HETATM   25  C   UNL     1     -12.278  15.351  69.391  1.00  0.00    -0.250 C  
HETATM   26  H   UNL     1     -14.756  15.878  70.067  1.00  0.00     0.000 HD 
ENDBRANCH  12  13
ENDBRANCH  11  12
ENDBRANCH   8  11
ENDBRANCH   7   8
ENDBRANCH   5   7
TORSDOF 5
ENDMDL
MODEL       48
REMARK 921   NORMALIZED FREE ENERGY PREDICTED BY IDOCK:   -5.88 KCAL/MOL
REMARK 922        TOTAL FREE ENERGY PREDICTED BY IDOCK:   -8.33 KCAL/MOL
REMARK 923 INTER-LIGAND FREE ENERGY PREDICTED BY IDOCK:   -7.33 KCAL/MOL
REMARK 924 INTRA-LIGAND FREE ENERGY PREDICTED BY IDOCK:   -1.00 KCAL/MOL
REMARK 927      BINDING AFFINITY PREDICTED BY RF-SCORE:    0.00 PKD
ROOT
HETATM    1  C   UNL     1     -11.536  12.008  66.587  1.00  0.00    -0.411 C  
HETATM    2  C   UNL     1     -11.631  13.540  66.469  1.00  0.00    -0.359 C  
HETATM    3  C   UNL     1     -12.439  13.878  65.202  1.00  0.00    -0.479 C  
HETATM    4  C   UNL     1     -10.223  14.145  66.320  1.00  0.00    -0.301 C  
HETATM    5  N   UNL     1     -12.345  14.145  67.609  1.00  0.00    -0.552 NA 
HETATM    6  H   UNL     1     -13.325  13.863  67.597  1.00  0.00     0.000 HD 
ENDROOT
BRANCH   5   7
HETATM    7  C   UNL     1     -11.758  13.879  68.927  1.00  0.00    -0.337 C  
BRANCH   7   8
HETATM    8  C   UNL     1     -12.264  14.881  69.981  1.00  0.00    -0.333 C  
HETATM    9  H   UNL     1     -12.832  14.821  71.868  1.00  0.00     0.000 HD 
HETATM   10  O   UNL     1     -12.520  14.202  71.218  1.00  0.00    -0.333 OA 
BRANCH   8  11
HETATM   11  C   UNL     1     -11.225  15.992  70.193  1.00  0.00    -0.373 C  
BRANCH  11  12
HETATM   12  O   UNL     1     -10.641  16.371  68.929  1.00  0.00    -0.265 OA 
BRANCH  12  13
HETATM   13  C   UNL     1      -9.280  16.566  68.975  1.00  0.00    -0.237 A  
HETATM   14  C   UNL     1      -8.411  15.637  69.561  1.00  0.00    -0.182 A  
HETATM   15  C   UNL     1      -7.037  15.844  69.544  1.00  0.00    -0.184 A  
HETATM   16  C   UNL     1      -6.516  16.984  68.945  1.00  0.00    -0.189 A  
HETATM   17  C   UNL     1      -7.367  17.947  68.385  1.00  0.00    -0.259 A  
HETATM   18  C   UNL     1      -8.768  17.765  68.442  1.00  0.00    -0.292 A  
HETATM   19  C   UNL     1      -9.703  18.823  67.891  1.00  0.00    -0.368 C  
HETATM   20  C   UNL     1      -9.016  20.168  67.625  1.00  0.00    -0.315 C  
HETATM   21  C   UNL     1      -7.685  19.972  66.883  1.00  0.00    -0.293 C  
HETATM   22  O   UNL     1      -9.878  21.022  66.870  1.00  0.00    -0.588 OA 
HETATM   23  H   UNL     1      -9.452  21.855  66.706  1.00  0.00     0.000 HD 
HETATM   24  O   UNL     1      -7.847  19.317  65.617  1.00  0.00    -0.445 OA 
HETATM   25  C   UNL     1      -6.726  19.170  67.762  1.00  0.00    -0.229 C  
HETATM   26  H   UNL     1      -7.024  19.197  65.157  1.00  0.00     0.000 HD 
ENDBRANCH  12  13
ENDBRANCH  11  12
ENDBRANCH   8  11
ENDBRANCH   7   8
ENDBRANCH   5   7
TORSDOF 5
ENDMDL
MODEL       49
REMARK 921   NORMALIZED FREE ENERGY PREDICTED BY IDOCK:   -5.87 KCAL/MOL
REMARK 922        TOTAL FREE ENERGY PREDICTED BY IDOCK:   -8.32 KCAL/MOL
REMARK 923 INTER-LIGAND FREE ENERGY PREDICTED BY IDOCK:   -7.45 KCAL/MOL
REMARK 924 INTRA-LIGAND FREE ENERGY PREDICTED BY IDOCK:   -0.87 KCAL/MOL
REMARK 927      BINDING AFFINITY PREDICTED BY RF-SCORE:    0.00 PKD
ROOT
HETATM    1  C   UNL     1      -9.155   7.402  69.524  1.00  0.00    -0.143 C  
HETATM    2  C   UNL     1     -10.402   6.786  68.862  1.00  0.00    -0.192 C  
HETATM    3  C   UNL     1     -11.458   6.541  69.956  1.00  0.00    -0.476 C  
HETATM    4  C   UNL     1     -10.045   5.432  68.223  1.00  0.00    -0.225 C  
HETATM    5  N   UNL     1     -11.013   7.691  67.871  1.00  0.00    -0.484 NA 
HETATM    6  H   UNL     1     -11.395   8.513  68.336  1.00  0.00     0.000 HD 
ENDROOT
BRANCH   5   7
HETATM    7  C   UNL     1     -10.133   8.098  66.769  1.00  0.00    -0.295 C  
BRANCH   7   8
HETATM    8  C   UNL     1     -10.042   9.631  66.658  1.00  0.00    -0.239 C  
HETATM    9  H   UNL     1     -10.194  10.982  65.230  1.00  0.00     0.000 HD 
HETATM   10  O   UNL     1     -10.250  10.036  65.299  1.00  0.00    -0.296 OA 
BRANCH   8  11
HETATM   11  C   UNL     1     -11.088  10.288  67.572  1.00  0.00    -0.232 C  
BRANCH  11  12
HETATM   12  O   UNL     1     -10.474  10.698  68.811  1.00  0.00    -0.173 OA 
BRANCH  12  13
HETATM   13  C   UNL     1     -11.369  10.969  69.820  1.00  0.00    -0.292 A  
HETATM   14  C   UNL     1     -11.882   9.968  70.653  1.00  0.00    -0.411 A  
HETATM   15  C   UNL     1     -12.746  10.286  71.694  1.00  0.00    -0.561 A  
HETATM   16  C   UNL     1     -13.112  11.609  71.910  1.00  0.00    -0.490 A  
HETATM   17  C   UNL     1     -12.643  12.624  71.066  1.00  0.00    -0.354 A  
HETATM   18  C   UNL     1     -11.801  12.301  69.976  1.00  0.00    -0.372 A  
HETATM   19  C   UNL     1     -11.331  13.379  69.022  1.00  0.00    -0.335 C  
HETATM   20  C   UNL     1     -12.113  14.693  69.151  1.00  0.00    -0.248 C  
HETATM   21  C   UNL     1     -12.273  15.100  70.624  1.00  0.00    -0.351 C  
HETATM   22  O   UNL     1     -11.455  15.733  68.424  1.00  0.00    -0.362 OA 
HETATM   23  H   UNL     1     -11.939  16.546  68.503  1.00  0.00     0.000 HD 
HETATM   24  O   UNL     1     -11.016  15.284  71.289  1.00  0.00    -0.494 OA 
HETATM   25  C   UNL     1     -13.096  14.040  71.356  1.00  0.00    -0.423 C  
HETATM   26  H   UNL     1     -11.115  15.536  72.200  1.00  0.00     0.000 HD 
ENDBRANCH  12  13
ENDBRANCH  11  12
ENDBRANCH   8  11
ENDBRANCH   7   8
ENDBRANCH   5   7
TORSDOF 5
ENDMDL
MODEL       50
REMARK 921   NORMALIZED FREE ENERGY PREDICTED BY IDOCK:   -5.87 KCAL/MOL
REMARK 922        TOTAL FREE ENERGY PREDICTED BY IDOCK:   -8.31 KCAL/MOL
REMARK 923 INTER-LIGAND FREE ENERGY PREDICTED BY IDOCK:   -7.41 KCAL/MOL
REMARK 924 INTRA-LIGAND FREE ENERGY PREDICTED BY IDOCK:   -0.90 KCAL/MOL
REMARK 927      BINDING AFFINITY PREDICTED BY RF-SCORE:    0.00 PKD
ROOT
HETATM    1  C   UNL     1      -8.944   9.665  69.467  1.00  0.00    -0.203 C  
HETATM    2  C   UNL     1     -10.444   9.335  69.565  1.00  0.00    -0.220 C  
HETATM    3  C   UNL     1     -10.959   9.831  70.930  1.00  0.00    -0.411 C  
HETATM    4  C   UNL     1     -10.654   7.812  69.494  1.00  0.00    -0.221 C  
HETATM    5  N   UNL     1     -11.237  10.024  68.531  1.00  0.00    -0.474 NA 
HETATM    6  H   UNL     1     -11.224  11.031  68.692  1.00  0.00     0.000 HD 
ENDROOT
BRANCH   5   7
HETATM    7  C   UNL     1     -10.851   9.729  67.146  1.00  0.00    -0.136 C  
BRANCH   7   8
HETATM    8  C   UNL     1     -10.343  10.990  66.422  1.00  0.00    -0.250 C  
HETATM    9  H   UNL     1      -9.317  11.397  64.789  1.00  0.00     0.000 HD 
HETATM   10  O   UNL     1      -9.630  10.619  65.236  1.00  0.00    -0.205 OA 
BRANCH   8  11
HETATM   11  C   UNL     1     -11.525  11.904  66.065  1.00  0.00    -0.281 C  
BRANCH  11  12
HETATM   12  O   UNL     1     -12.123  12.433  67.267  1.00  0.00    -0.516 OA 
BRANCH  12  13
HETATM   13  C   UNL     1     -11.700  13.700  67.595  1.00  0.00    -0.363 A  
HETATM   14  C   UNL     1     -11.025  14.522  66.684  1.00  0.00    -0.321 A  
HETATM   15  C   UNL     1     -10.657  15.816  67.035  1.00  0.00    -0.316 A  
HETATM   16  C   UNL     1     -10.954  16.300  68.303  1.00  0.00    -0.348 A  
HETATM   17  C   UNL     1     -11.595  15.484  69.245  1.00  0.00    -0.369 A  
HETATM   18  C   UNL     1     -11.929  14.151  68.910  1.00  0.00    -0.376 A  
HETATM   19  C   UNL     1     -12.571  13.239  69.935  1.00  0.00     0.007 C  
HETATM   20  C   UNL     1     -12.482  13.773  71.370  1.00  0.00    -0.318 C  
HETATM   21  C   UNL     1     -12.869  15.259  71.433  1.00  0.00    -0.415 C  
HETATM   22  O   UNL     1     -13.325  13.010  72.235  1.00  0.00    -0.517 OA 
HETATM   23  H   UNL     1     -13.269  13.340  73.124  1.00  0.00     0.000 HD 
HETATM   24  O   UNL     1     -14.203  15.505  70.968  1.00  0.00    -0.820 OA 
HETATM   25  C   UNL     1     -11.874  16.078  70.610  1.00  0.00    -0.342 C  
HETATM   26  H   UNL     1     -14.443  16.424  71.007  1.00  0.00     0.000 HD 
ENDBRANCH  12  13
ENDBRANCH  11  12
ENDBRANCH   8  11
ENDBRANCH   7   8
ENDBRANCH   5   7
TORSDOF 5
ENDMDL
MODEL       51
REMARK 921   NORMALIZED FREE ENERGY PREDICTED BY IDOCK:   -5.84 KCAL/MOL
REMARK 922        TOTAL FREE ENERGY PREDICTED BY IDOCK:   -8.27 KCAL/MOL
REMARK 923 INTER-LIGAND FREE ENERGY PREDICTED BY IDOCK:   -7.31 KCAL/MOL
REMARK 924 INTRA-LIGAND FREE ENERGY PREDICTED BY IDOCK:   -0.96 KCAL/MOL
REMARK 927      BINDING AFFINITY PREDICTED BY RF-SCORE:    0.00 PKD
ROOT
HETATM    1  C   UNL     1     -10.221  13.417  64.727  1.00  0.00    -0.339 C  
HETATM    2  C   UNL     1     -11.756  13.302  64.771  1.00  0.00    -0.355 C  
HETATM    3  C   UNL     1     -12.169  12.044  63.983  1.00  0.00    -0.505 C  
HETATM    4  C   UNL     1     -12.396  14.527  64.095  1.00  0.00    -0.317 C  
HETATM    5  N   UNL     1     -12.264  13.134  66.145  1.00  0.00    -0.412 NA 
HETATM    6  H   UNL     1     -11.966  12.235  66.522  1.00  0.00     0.000 HD 
ENDROOT
BRANCH   5   7
HETATM    7  C   UNL     1     -11.915  14.212  67.077  1.00  0.00    -0.439 C  
BRANCH   7   8
HETATM    8  C   UNL     1     -11.028  13.698  68.226  1.00  0.00    -0.254 C  
HETATM    9  H   UNL     1      -9.772  14.473  69.533  1.00  0.00     0.000 HD 
HETATM   10  O   UNL     1     -10.319  14.791  68.824  1.00  0.00    -0.234 OA 
BRANCH   8  11
HETATM   11  C   UNL     1     -11.890  12.987  69.280  1.00  0.00    -0.316 C  
BRANCH  11  12
HETATM   12  O   UNL     1     -12.313  11.699  68.788  1.00  0.00    -0.374 OA 
BRANCH  12  13
HETATM   13  C   UNL     1     -11.766  10.631  69.462  1.00  0.00    -0.284 A  
HETATM   14  C   UNL     1     -11.904  10.472  70.846  1.00  0.00    -0.455 A  
HETATM   15  C   UNL     1     -11.381   9.355  71.486  1.00  0.00    -0.464 A  
HETATM   16  C   UNL     1     -10.708   8.387  70.750  1.00  0.00    -0.244 A  
HETATM   17  C   UNL     1     -10.524   8.542  69.370  1.00  0.00    -0.223 A  
HETATM   18  C   UNL     1     -11.012   9.700  68.721  1.00  0.00    -0.153 A  
HETATM   19  C   UNL     1     -10.772   9.910  67.240  1.00  0.00    -0.304 C  
HETATM   20  C   UNL     1      -9.705   8.977  66.655  1.00  0.00    -0.230 C  
HETATM   21  C   UNL     1      -9.922   7.528  67.119  1.00  0.00    -0.220 C  
HETATM   22  O   UNL     1      -9.719   9.042  65.228  1.00  0.00    -0.452 OA 
HETATM   23  H   UNL     1      -9.057   8.464  64.866  1.00  0.00     0.000 HD 
HETATM   24  O   UNL     1     -11.202   7.008  66.732  1.00  0.00    -0.580 OA 
HETATM   25  C   UNL     1      -9.769   7.452  68.637  1.00  0.00    -0.152 C  
HETATM   26  H   UNL     1     -11.336   6.112  67.019  1.00  0.00     0.000 HD 
ENDBRANCH  12  13
ENDBRANCH  11  12
ENDBRANCH   8  11
ENDBRANCH   7   8
ENDBRANCH   5   7
TORSDOF 5
ENDMDL
MODEL       52
REMARK 921   NORMALIZED FREE ENERGY PREDICTED BY IDOCK:   -5.84 KCAL/MOL
REMARK 922        TOTAL FREE ENERGY PREDICTED BY IDOCK:   -8.27 KCAL/MOL
REMARK 923 INTER-LIGAND FREE ENERGY PREDICTED BY IDOCK:   -7.34 KCAL/MOL
REMARK 924 INTRA-LIGAND FREE ENERGY PREDICTED BY IDOCK:   -0.93 KCAL/MOL
REMARK 927      BINDING AFFINITY PREDICTED BY RF-SCORE:    0.00 PKD
ROOT
HETATM    1  C   UNL     1     -11.862  12.477  65.695  1.00  0.00    -0.493 C  
HETATM    2  C   UNL     1     -11.666  14.003  65.638  1.00  0.00    -0.354 C  
HETATM    3  C   UNL     1     -12.401  14.539  64.395  1.00  0.00    -0.437 C  
HETATM    4  C   UNL     1     -10.170  14.337  65.495  1.00  0.00    -0.379 C  
HETATM    5  N   UNL     1     -12.247  14.686  66.809  1.00  0.00    -0.413 NA 
HETATM    6  H   UNL     1     -13.262  14.596  66.799  1.00  0.00     0.000 HD 
ENDROOT
BRANCH   5   7
HETATM    7  C   UNL     1     -11.715  14.260  68.109  1.00  0.00    -0.350 C  
BRANCH   7   8
HETATM    8  C   UNL     1     -12.092  15.254  69.224  1.00  0.00    -0.249 C  
HETATM    9  H   UNL     1     -12.772  15.154  71.071  1.00  0.00     0.000 HD 
HETATM   10  O   UNL     1     -12.540  14.540  70.384  1.00  0.00    -0.339 OA 
BRANCH   8  11
HETATM   11  C   UNL     1     -10.883  16.133  69.577  1.00  0.00    -0.329 C  
BRANCH  11  12
HETATM   12  O   UNL     1     -10.004  16.246  68.439  1.00  0.00    -0.224 OA 
BRANCH  12  13
HETATM   13  C   UNL     1      -9.873  17.527  67.954  1.00  0.00    -0.293 A  
HETATM   14  C   UNL     1     -10.910  18.179  67.276  1.00  0.00    -0.241 A  
HETATM   15  C   UNL     1     -10.759  19.492  66.845  1.00  0.00    -0.576 A  
HETATM   16  C   UNL     1      -9.567  20.166  67.083  1.00  0.00    -0.554 A  
HETATM   17  C   UNL     1      -8.501  19.523  67.726  1.00  0.00    -0.352 A  
HETATM   18  C   UNL     1      -8.632  18.172  68.124  1.00  0.00    -0.282 A  
HETATM   19  C   UNL     1      -7.470  17.445  68.770  1.00  0.00    -0.258 C  
HETATM   20  C   UNL     1      -6.130  18.175  68.614  1.00  0.00    -0.197 C  
HETATM   21  C   UNL     1      -6.272  19.670  68.938  1.00  0.00    -0.270 C  
HETATM   22  O   UNL     1      -5.142  17.581  69.460  1.00  0.00    -0.158 OA 
HETATM   23  H   UNL     1      -4.312  18.033  69.363  1.00  0.00     0.000 HD 
HETATM   24  O   UNL     1      -6.734  19.906  70.276  1.00  0.00    -0.276 OA 
HETATM   25  C   UNL     1      -7.229  20.317  67.938  1.00  0.00    -0.319 C  
HETATM   26  H   UNL     1      -6.822  20.830  70.477  1.00  0.00     0.000 HD 
ENDBRANCH  12  13
ENDBRANCH  11  12
ENDBRANCH   8  11
ENDBRANCH   7   8
ENDBRANCH   5   7
TORSDOF 5
ENDMDL
MODEL       53
REMARK 921   NORMALIZED FREE ENERGY PREDICTED BY IDOCK:   -5.83 KCAL/MOL
REMARK 922        TOTAL FREE ENERGY PREDICTED BY IDOCK:   -8.26 KCAL/MOL
REMARK 923 INTER-LIGAND FREE ENERGY PREDICTED BY IDOCK:   -7.41 KCAL/MOL
REMARK 924 INTRA-LIGAND FREE ENERGY PREDICTED BY IDOCK:   -0.85 KCAL/MOL
REMARK 927      BINDING AFFINITY PREDICTED BY RF-SCORE:    0.00 PKD
ROOT
HETATM    1  C   UNL     1     -10.620  18.004  68.063  1.00  0.00    -0.361 C  
HETATM    2  C   UNL     1      -9.283  17.644  67.388  1.00  0.00    -0.247 C  
HETATM    3  C   UNL     1      -8.192  17.598  68.474  1.00  0.00    -0.292 C  
HETATM    4  C   UNL     1      -8.901  18.729  66.365  1.00  0.00    -0.298 C  
HETATM    5  N   UNL     1      -9.317  16.313  66.756  1.00  0.00    -0.225 NA 
HETATM    6  H   UNL     1      -9.405  15.589  67.468  1.00  0.00     0.000 HD 
ENDROOT
BRANCH   5   7
HETATM    7  C   UNL     1     -10.347  16.135  65.726  1.00  0.00    -0.378 C  
BRANCH   7   8
HETATM    8  C   UNL     1     -11.339  15.020  66.109  1.00  0.00    -0.270 C  
HETATM    9  H   UNL     1     -12.528  13.765  65.162  1.00  0.00     0.000 HD 
HETATM   10  O   UNL     1     -11.916  14.453  64.926  1.00  0.00    -0.387 OA 
BRANCH   8  11
HETATM   11  C   UNL     1     -10.620  13.932  66.921  1.00  0.00    -0.280 C  
BRANCH  11  12
HETATM   12  O   UNL     1     -10.796  14.170  68.333  1.00  0.00    -0.241 OA 
BRANCH  12  13
HETATM   13  C   UNL     1     -11.175  13.058  69.048  1.00  0.00    -0.264 A  
HETATM   14  C   UNL     1     -10.680  11.780  68.760  1.00  0.00    -0.255 A  
HETATM   15  C   UNL     1     -11.045  10.687  69.536  1.00  0.00    -0.328 A  
HETATM   16  C   UNL     1     -11.914  10.858  70.607  1.00  0.00    -0.467 A  
HETATM   17  C   UNL     1     -12.452  12.120  70.893  1.00  0.00    -0.374 A  
HETATM   18  C   UNL     1     -12.122  13.227  70.077  1.00  0.00    -0.385 A  
HETATM   19  C   UNL     1     -12.739  14.585  70.338  1.00  0.00    -0.378 C  
HETATM   20  C   UNL     1     -13.948  14.537  71.281  1.00  0.00    -0.286 C  
HETATM   21  C   UNL     1     -13.655  13.666  72.512  1.00  0.00    -0.570 C  
HETATM   22  O   UNL     1     -14.310  15.858  71.689  1.00  0.00    -0.347 OA 
HETATM   23  H   UNL     1     -15.059  15.828  72.273  1.00  0.00     0.000 HD 
HETATM   24  O   UNL     1     -12.537  14.141  73.275  1.00  0.00    -0.288 OA 
HETATM   25  C   UNL     1     -13.403  12.226  72.067  1.00  0.00    -0.491 C  
HETATM   26  H   UNL     1     -12.356  13.603  74.037  1.00  0.00     0.000 HD 
ENDBRANCH  12  13
ENDBRANCH  11  12
ENDBRANCH   8  11
ENDBRANCH   7   8
ENDBRANCH   5   7
TORSDOF 5
ENDMDL
MODEL       54
REMARK 921   NORMALIZED FREE ENERGY PREDICTED BY IDOCK:   -5.83 KCAL/MOL
REMARK 922        TOTAL FREE ENERGY PREDICTED BY IDOCK:   -8.26 KCAL/MOL
REMARK 923 INTER-LIGAND FREE ENERGY PREDICTED BY IDOCK:   -7.28 KCAL/MOL
REMARK 924 INTRA-LIGAND FREE ENERGY PREDICTED BY IDOCK:   -0.98 KCAL/MOL
REMARK 927      BINDING AFFINITY PREDICTED BY RF-SCORE:    0.00 PKD
ROOT
HETATM    1  C   UNL     1      -9.127   7.454  69.286  1.00  0.00    -0.135 C  
HETATM    2  C   UNL     1     -10.019   8.545  68.666  1.00  0.00    -0.184 C  
HETATM    3  C   UNL     1     -10.299   8.165  67.200  1.00  0.00    -0.391 C  
HETATM    4  C   UNL     1      -9.284   9.898  68.682  1.00  0.00    -0.139 C  
HETATM    5  N   UNL     1     -11.326   8.649  69.340  1.00  0.00    -0.370 NA 
HETATM    6  H   UNL     1     -11.871   7.803  69.179  1.00  0.00     0.000 HD 
ENDROOT
BRANCH   5   7
HETATM    7  C   UNL     1     -11.267   8.946  70.776  1.00  0.00    -0.272 C  
BRANCH   7   8
HETATM    8  C   UNL     1     -12.589   9.557  71.279  1.00  0.00    -0.339 C  
HETATM    9  H   UNL     1     -13.582   9.636  72.980  1.00  0.00     0.000 HD 
HETATM   10  O   UNL     1     -12.767   9.258  72.670  1.00  0.00    -0.303 OA 
BRANCH   8  11
HETATM   11  C   UNL     1     -12.583  11.078  71.061  1.00  0.00    -0.411 C  
BRANCH  11  12
HETATM   12  O   UNL     1     -12.066  11.387  69.750  1.00  0.00    -0.311 OA 
BRANCH  12  13
HETATM   13  C   UNL     1     -12.001  12.734  69.475  1.00  0.00    -0.276 A  
HETATM   14  C   UNL     1     -12.193  13.708  70.462  1.00  0.00    -0.438 A  
HETATM   15  C   UNL     1     -12.070  15.059  70.157  1.00  0.00    -0.378 A  
HETATM   16  C   UNL     1     -11.759  15.451  68.861  1.00  0.00    -0.377 A  
HETATM   17  C   UNL     1     -11.600  14.496  67.847  1.00  0.00    -0.371 A  
HETATM   18  C   UNL     1     -11.771  13.123  68.141  1.00  0.00    -0.391 A  
HETATM   19  C   UNL     1     -11.658  12.083  67.045  1.00  0.00    -0.387 C  
HETATM   20  C   UNL     1     -11.701  12.677  65.632  1.00  0.00    -0.412 C  
HETATM   21  C   UNL     1     -10.780  13.901  65.516  1.00  0.00    -0.302 C  
HETATM   22  O   UNL     1     -11.327  11.689  64.669  1.00  0.00    -0.291 OA 
HETATM   23  H   UNL     1     -11.354  12.057  63.793  1.00  0.00     0.000 HD 
HETATM   24  O   UNL     1      -9.410  13.594  65.808  1.00  0.00    -0.494 OA 
HETATM   25  C   UNL     1     -11.276  15.000  66.456  1.00  0.00    -0.312 C  
HETATM   26  H   UNL     1      -8.839  14.350  65.737  1.00  0.00     0.000 HD 
ENDBRANCH  12  13
ENDBRANCH  11  12
ENDBRANCH   8  11
ENDBRANCH   7   8
ENDBRANCH   5   7
TORSDOF 5
ENDMDL
MODEL       55
REMARK 921   NORMALIZED FREE ENERGY PREDICTED BY IDOCK:   -5.80 KCAL/MOL
REMARK 922        TOTAL FREE ENERGY PREDICTED BY IDOCK:   -8.23 KCAL/MOL
REMARK 923 INTER-LIGAND FREE ENERGY PREDICTED BY IDOCK:   -7.21 KCAL/MOL
REMARK 924 INTRA-LIGAND FREE ENERGY PREDICTED BY IDOCK:   -1.02 KCAL/MOL
REMARK 927      BINDING AFFINITY PREDICTED BY RF-SCORE:    0.00 PKD
ROOT
HETATM    1  C   UNL     1      -8.481  11.296  66.613  1.00  0.00    -0.168 C  
HETATM    2  C   UNL     1      -8.715   9.855  66.125  1.00  0.00    -0.136 C  
HETATM    3  C   UNL     1      -7.346   9.224  65.808  1.00  0.00    -0.094 C  
HETATM    4  C   UNL     1      -9.552   9.865  64.834  1.00  0.00    -0.356 C  
HETATM    5  N   UNL     1      -9.348   9.012  67.156  1.00  0.00    -0.143 NA 
HETATM    6  H   UNL     1      -8.710   8.877  67.939  1.00  0.00     0.000 HD 
ENDROOT
BRANCH   5   7
HETATM    7  C   UNL     1     -10.649   9.488  67.641  1.00  0.00    -0.269 C  
BRANCH   7   8
HETATM    8  C   UNL     1     -10.645   9.677  69.169  1.00  0.00    -0.220 C  
HETATM    9  H   UNL     1      -9.338  10.193  70.552  1.00  0.00     0.000 HD 
HETATM   10  O   UNL     1      -9.340  10.076  69.609  1.00  0.00    -0.213 OA 
BRANCH   8  11
HETATM   11  C   UNL     1     -11.685  10.733  69.572  1.00  0.00    -0.312 C  
BRANCH  11  12
HETATM   12  O   UNL     1     -12.269  11.327  68.395  1.00  0.00    -0.604 OA 
BRANCH  12  13
HETATM   13  C   UNL     1     -11.978  12.662  68.235  1.00  0.00    -0.222 A  
HETATM   14  C   UNL     1     -11.833  13.530  69.324  1.00  0.00    -0.392 A  
HETATM   15  C   UNL     1     -11.490  14.863  69.127  1.00  0.00    -0.324 A  
HETATM   16  C   UNL     1     -11.293  15.343  67.838  1.00  0.00    -0.328 A  
HETATM   17  C   UNL     1     -11.469  14.503  66.730  1.00  0.00    -0.376 A  
HETATM   18  C   UNL     1     -11.865  13.159  66.922  1.00  0.00    -0.444 A  
HETATM   19  C   UNL     1     -12.115  12.255  65.733  1.00  0.00    -0.287 C  
HETATM   20  C   UNL     1     -12.238  13.011  64.404  1.00  0.00    -0.406 C  
HETATM   21  C   UNL     1     -11.118  14.052  64.253  1.00  0.00    -0.180 C  
HETATM   22  O   UNL     1     -12.206  12.094  63.309  1.00  0.00    -0.685 OA 
HETATM   23  H   UNL     1     -12.282  12.562  62.486  1.00  0.00     0.000 HD 
HETATM   24  O   UNL     1      -9.809  13.468  64.293  1.00  0.00    -0.713 OA 
HETATM   25  C   UNL     1     -11.250  15.102  65.356  1.00  0.00    -0.338 C  
HETATM   26  H   UNL     1      -9.116  14.112  64.199  1.00  0.00     0.000 HD 
ENDBRANCH  12  13
ENDBRANCH  11  12
ENDBRANCH   8  11
ENDBRANCH   7   8
ENDBRANCH   5   7
TORSDOF 5
ENDMDL
MODEL       56
REMARK 921   NORMALIZED FREE ENERGY PREDICTED BY IDOCK:   -5.80 KCAL/MOL
REMARK 922        TOTAL FREE ENERGY PREDICTED BY IDOCK:   -8.23 KCAL/MOL
REMARK 923 INTER-LIGAND FREE ENERGY PREDICTED BY IDOCK:   -7.64 KCAL/MOL
REMARK 924 INTRA-LIGAND FREE ENERGY PREDICTED BY IDOCK:   -0.58 KCAL/MOL
REMARK 927      BINDING AFFINITY PREDICTED BY RF-SCORE:    0.00 PKD
ROOT
HETATM    1  C   UNL     1      -8.378  18.094  66.558  1.00  0.00    -0.288 C  
HETATM    2  C   UNL     1      -9.664  18.581  67.251  1.00  0.00    -0.300 C  
HETATM    3  C   UNL     1     -10.408  19.520  66.282  1.00  0.00    -0.601 C  
HETATM    4  C   UNL     1      -9.309  19.378  68.519  1.00  0.00    -0.446 C  
HETATM    5  N   UNL     1     -10.583  17.472  67.566  1.00  0.00    -0.355 NA 
HETATM    6  H   UNL     1     -10.941  17.058  66.706  1.00  0.00     0.000 HD 
ENDROOT
BRANCH   5   7
HETATM    7  C   UNL     1     -10.029  16.428  68.436  1.00  0.00    -0.238 C  
BRANCH   7   8
HETATM    8  C   UNL     1     -10.286  15.022  67.862  1.00  0.00    -0.241 C  
HETATM    9  H   UNL     1      -9.627  13.193  68.186  1.00  0.00     0.000 HD 
HETATM   10  O   UNL     1      -9.468  14.060  68.540  1.00  0.00    -0.211 OA 
BRANCH   8  11
HETATM   11  C   UNL     1     -11.770  14.655  68.013  1.00  0.00    -0.342 C  
BRANCH  11  12
HETATM   12  O   UNL     1     -11.980  13.279  67.634  1.00  0.00    -0.355 OA 
BRANCH  12  13
HETATM   13  C   UNL     1     -11.875  13.046  66.282  1.00  0.00    -0.408 A  
HETATM   14  C   UNL     1     -12.554  13.822  65.335  1.00  0.00    -0.534 A  
HETATM   15  C   UNL     1     -12.384  13.589  63.975  1.00  0.00    -0.391 A  
HETATM   16  C   UNL     1     -11.539  12.573  63.547  1.00  0.00    -0.584 A  
HETATM   17  C   UNL     1     -10.878  11.757  64.476  1.00  0.00    -0.377 A  
HETATM   18  C   UNL     1     -11.084  11.959  65.861  1.00  0.00    -0.365 A  
HETATM   19  C   UNL     1     -10.422  11.050  66.876  1.00  0.00    -0.293 C  
HETATM   20  C   UNL     1      -9.850   9.765  66.266  1.00  0.00    -0.250 C  
HETATM   21  C   UNL     1      -9.051  10.067  64.989  1.00  0.00    -0.211 C  
HETATM   22  O   UNL     1      -9.021   9.093  67.216  1.00  0.00    -0.123 OA 
HETATM   23  H   UNL     1      -8.666   8.297  66.838  1.00  0.00     0.000 HD 
HETATM   24  O   UNL     1      -7.950  10.957  65.220  1.00  0.00    -0.342 OA 
HETATM   25  C   UNL     1      -9.984  10.661  63.934  1.00  0.00    -0.390 C  
HETATM   26  H   UNL     1      -7.455  11.143  64.431  1.00  0.00     0.000 HD 
ENDBRANCH  12  13
ENDBRANCH  11  12
ENDBRANCH   8  11
ENDBRANCH   7   8
ENDBRANCH   5   7
TORSDOF 5
ENDMDL
MODEL       57
REMARK 921   NORMALIZED FREE ENERGY PREDICTED BY IDOCK:   -5.79 KCAL/MOL
REMARK 922        TOTAL FREE ENERGY PREDICTED BY IDOCK:   -8.21 KCAL/MOL
REMARK 923 INTER-LIGAND FREE ENERGY PREDICTED BY IDOCK:   -7.49 KCAL/MOL
REMARK 924 INTRA-LIGAND FREE ENERGY PREDICTED BY IDOCK:   -0.72 KCAL/MOL
REMARK 927      BINDING AFFINITY PREDICTED BY RF-SCORE:    0.00 PKD
ROOT
HETATM    1  C   UNL     1     -12.399  13.000  65.797  1.00  0.00    -0.477 C  
HETATM    2  C   UNL     1     -11.225  13.108  64.808  1.00  0.00    -0.324 C  
HETATM    3  C   UNL     1     -10.656  14.538  64.888  1.00  0.00    -0.450 C  
HETATM    4  C   UNL     1     -11.722  12.866  63.371  1.00  0.00    -0.526 C  
HETATM    5  N   UNL     1     -10.123  12.188  65.145  1.00  0.00    -0.264 NA 
HETATM    6  H   UNL     1      -9.693  12.465  66.027  1.00  0.00     0.000 HD 
ENDROOT
BRANCH   5   7
HETATM    7  C   UNL     1     -10.485  10.767  65.184  1.00  0.00    -0.229 C  
BRANCH   7   8
HETATM    8  C   UNL     1      -9.518   9.964  66.076  1.00  0.00    -0.202 C  
HETATM    9  H   UNL     1      -7.788  10.276  66.966  1.00  0.00     0.000 HD 
HETATM   10  O   UNL     1      -8.384  10.771  66.416  1.00  0.00    -0.142 OA 
BRANCH   8  11
HETATM   11  C   UNL     1     -10.239   9.501  67.350  1.00  0.00    -0.227 C  
BRANCH  11  12
HETATM   12  O   UNL     1      -9.679  10.162  68.504  1.00  0.00    -0.147 OA 
BRANCH  12  13
HETATM   13  C   UNL     1     -10.533  11.053  69.112  1.00  0.00    -0.210 A  
HETATM   14  C   UNL     1     -10.613  12.395  68.721  1.00  0.00    -0.213 A  
HETATM   15  C   UNL     1     -11.524  13.255  69.324  1.00  0.00    -0.345 A  
HETATM   16  C   UNL     1     -12.361  12.784  70.328  1.00  0.00    -0.277 A  
HETATM   17  C   UNL     1     -12.273  11.454  70.762  1.00  0.00    -0.475 A  
HETATM   18  C   UNL     1     -11.316  10.587  70.186  1.00  0.00    -0.400 A  
HETATM   19  C   UNL     1     -11.171   9.164  70.683  1.00  0.00    -0.322 C  
HETATM   20  C   UNL     1     -11.870   8.910  72.024  1.00  0.00    -0.368 C  
HETATM   21  C   UNL     1     -13.289   9.499  72.029  1.00  0.00    -0.452 C  
HETATM   22  O   UNL     1     -11.919   7.508  72.298  1.00  0.00    -0.342 OA 
HETATM   23  H   UNL     1     -12.352   7.351  73.129  1.00  0.00     0.000 HD 
HETATM   24  O   UNL     1     -14.123   8.946  71.002  1.00  0.00    -0.592 OA 
HETATM   25  C   UNL     1     -13.209  11.017  71.871  1.00  0.00    -0.503 C  
HETATM   26  H   UNL     1     -15.000   9.309  71.005  1.00  0.00     0.000 HD 
ENDBRANCH  12  13
ENDBRANCH  11  12
ENDBRANCH   8  11
ENDBRANCH   7   8
ENDBRANCH   5   7
TORSDOF 5
ENDMDL
MODEL       58
REMARK 921   NORMALIZED FREE ENERGY PREDICTED BY IDOCK:   -5.78 KCAL/MOL
REMARK 922        TOTAL FREE ENERGY PREDICTED BY IDOCK:   -8.20 KCAL/MOL
REMARK 923 INTER-LIGAND FREE ENERGY PREDICTED BY IDOCK:   -6.82 KCAL/MOL
REMARK 924 INTRA-LIGAND FREE ENERGY PREDICTED BY IDOCK:   -1.38 KCAL/MOL
REMARK 927      BINDING AFFINITY PREDICTED BY RF-SCORE:    0.00 PKD
ROOT
HETATM    1  C   UNL     1     -12.085  11.972  63.526  1.00  0.00    -0.628 C  
HETATM    2  C   UNL     1     -11.661  12.684  64.823  1.00  0.00    -0.331 C  
HETATM    3  C   UNL     1     -12.868  13.481  65.354  1.00  0.00    -0.420 C  
HETATM    4  C   UNL     1     -10.519  13.675  64.531  1.00  0.00    -0.411 C  
HETATM    5  N   UNL     1     -11.274  11.734  65.882  1.00  0.00    -0.316 NA 
HETATM    6  H   UNL     1     -12.086  11.196  66.183  1.00  0.00     0.000 HD 
ENDROOT
BRANCH   5   7
HETATM    7  C   UNL     1     -10.169  10.831  65.539  1.00  0.00    -0.266 C  
BRANCH   7   8
HETATM    8  C   UNL     1      -9.148  10.729  66.689  1.00  0.00    -0.159 C  
HETATM    9  H   UNL     1      -7.241  11.146  66.961  1.00  0.00     0.000 HD 
HETATM   10  O   UNL     1      -7.870  11.209  66.252  1.00  0.00    -0.158 OA 
BRANCH   8  11
HETATM   11  C   UNL     1      -9.634  11.543  67.898  1.00  0.00    -0.177 C  
BRANCH  11  12
HETATM   12  O   UNL     1      -9.161  12.902  67.801  1.00  0.00    -0.179 OA 
BRANCH  12  13
HETATM   13  C   UNL     1     -10.058  13.843  68.252  1.00  0.00    -0.241 A  
HETATM   14  C   UNL     1     -11.172  13.502  69.028  1.00  0.00    -0.314 A  
HETATM   15  C   UNL     1     -12.029  14.485  69.508  1.00  0.00    -0.363 A  
HETATM   16  C   UNL     1     -11.784  15.820  69.214  1.00  0.00    -0.384 A  
HETATM   17  C   UNL     1     -10.697  16.185  68.409  1.00  0.00    -0.298 A  
HETATM   18  C   UNL     1      -9.849  15.185  67.877  1.00  0.00    -0.216 A  
HETATM   19  C   UNL     1      -8.703  15.558  66.959  1.00  0.00    -0.258 C  
HETATM   20  C   UNL     1      -8.792  16.991  66.421  1.00  0.00    -0.278 C  
HETATM   21  C   UNL     1      -9.124  17.985  67.545  1.00  0.00    -0.253 C  
HETATM   22  O   UNL     1      -7.564  17.359  65.789  1.00  0.00    -0.484 OA 
HETATM   23  H   UNL     1      -7.619  18.247  65.456  1.00  0.00     0.000 HD 
HETATM   24  O   UNL     1      -8.146  17.982  68.595  1.00  0.00    -0.303 OA 
HETATM   25  C   UNL     1     -10.502  17.659  68.120  1.00  0.00    -0.386 C  
HETATM   26  H   UNL     1      -8.351  18.596  69.290  1.00  0.00     0.000 HD 
ENDBRANCH  12  13
ENDBRANCH  11  12
ENDBRANCH   8  11
ENDBRANCH   7   8
ENDBRANCH   5   7
TORSDOF 5
ENDMDL
MODEL       59
REMARK 921   NORMALIZED FREE ENERGY PREDICTED BY IDOCK:   -5.77 KCAL/MOL
REMARK 922        TOTAL FREE ENERGY PREDICTED BY IDOCK:   -8.18 KCAL/MOL
REMARK 923 INTER-LIGAND FREE ENERGY PREDICTED BY IDOCK:   -7.61 KCAL/MOL
REMARK 924 INTRA-LIGAND FREE ENERGY PREDICTED BY IDOCK:   -0.57 KCAL/MOL
REMARK 927      BINDING AFFINITY PREDICTED BY RF-SCORE:    0.00 PKD
ROOT
HETATM    1  C   UNL     1     -11.905  15.275  72.085  1.00  0.00    -0.526 C  
HETATM    2  C   UNL     1     -13.011  14.557  71.290  1.00  0.00    -0.333 C  
HETATM    3  C   UNL     1     -14.337  15.304  71.524  1.00  0.00    -0.633 C  
HETATM    4  C   UNL     1     -13.173  13.114  71.800  1.00  0.00    -0.494 C  
HETATM    5  N   UNL     1     -12.758  14.576  69.838  1.00  0.00    -0.547 NA 
HETATM    6  H   UNL     1     -12.818  15.530  69.484  1.00  0.00     0.000 HD 
ENDROOT
BRANCH   5   7
HETATM    7  C   UNL     1     -11.494  13.960  69.415  1.00  0.00    -0.280 C  
BRANCH   7   8
HETATM    8  C   UNL     1     -11.164  14.302  67.950  1.00  0.00    -0.285 C  
HETATM    9  H   UNL     1     -12.002  14.034  66.185  1.00  0.00     0.000 HD 
HETATM   10  O   UNL     1     -12.206  13.822  67.089  1.00  0.00    -0.391 OA 
BRANCH   8  11
HETATM   11  C   UNL     1     -11.001  15.821  67.787  1.00  0.00    -0.314 C  
BRANCH  11  12
HETATM   12  O   UNL     1     -10.426  16.387  68.983  1.00  0.00    -0.248 OA 
BRANCH  12  13
HETATM   13  C   UNL     1      -9.058  16.522  68.940  1.00  0.00    -0.245 A  
HETATM   14  C   UNL     1      -8.194  15.546  69.451  1.00  0.00    -0.247 A  
HETATM   15  C   UNL     1      -6.816  15.694  69.345  1.00  0.00    -0.186 A  
HETATM   16  C   UNL     1      -6.286  16.821  68.730  1.00  0.00    -0.158 A  
HETATM   17  C   UNL     1      -7.129  17.830  68.244  1.00  0.00    -0.230 A  
HETATM   18  C   UNL     1      -8.530  17.708  68.393  1.00  0.00    -0.287 A  
HETATM   19  C   UNL     1      -9.451  18.815  67.923  1.00  0.00    -0.339 C  
HETATM   20  C   UNL     1      -8.724  20.134  67.633  1.00  0.00    -0.303 C  
HETATM   21  C   UNL     1      -7.456  19.896  66.799  1.00  0.00    -0.254 C  
HETATM   22  O   UNL     1      -9.595  21.040  66.951  1.00  0.00    -0.671 OA 
HETATM   23  H   UNL     1      -9.145  21.856  66.772  1.00  0.00     0.000 HD 
HETATM   24  O   UNL     1      -7.730  19.272  65.537  1.00  0.00    -0.426 OA 
HETATM   25  C   UNL     1      -6.477  19.036  67.599  1.00  0.00    -0.212 C  
HETATM   26  H   UNL     1      -6.946  19.125  65.021  1.00  0.00     0.000 HD 
ENDBRANCH  12  13
ENDBRANCH  11  12
ENDBRANCH   8  11
ENDBRANCH   7   8
ENDBRANCH   5   7
TORSDOF 5
ENDMDL
MODEL       60
REMARK 921   NORMALIZED FREE ENERGY PREDICTED BY IDOCK:   -5.74 KCAL/MOL
REMARK 922        TOTAL FREE ENERGY PREDICTED BY IDOCK:   -8.14 KCAL/MOL
REMARK 923 INTER-LIGAND FREE ENERGY PREDICTED BY IDOCK:   -6.81 KCAL/MOL
REMARK 924 INTRA-LIGAND FREE ENERGY PREDICTED BY IDOCK:   -1.33 KCAL/MOL
REMARK 927      BINDING AFFINITY PREDICTED BY RF-SCORE:    0.00 PKD
ROOT
HETATM    1  C   UNL     1      -7.291  15.678  68.045  1.00  0.00    -0.137 C  
HETATM    2  C   UNL     1      -8.245  14.557  67.594  1.00  0.00    -0.177 C  
HETATM    3  C   UNL     1      -7.400  13.324  67.224  1.00  0.00    -0.050 C  
HETATM    4  C   UNL     1      -9.025  15.001  66.343  1.00  0.00    -0.286 C  
HETATM    5  N   UNL     1      -9.166  14.141  68.668  1.00  0.00    -0.304 NA 
HETATM    6  H   UNL     1      -8.645  13.695  69.423  1.00  0.00     0.000 HD 
ENDROOT
BRANCH   5   7
HETATM    7  C   UNL     1     -10.021  15.205  69.205  1.00  0.00    -0.242 C  
BRANCH   7   8
HETATM    8  C   UNL     1     -11.458  14.705  69.444  1.00  0.00    -0.296 C  
HETATM    9  H   UNL     1     -13.080  15.366  70.350  1.00  0.00     0.000 HD 
HETATM   10  O   UNL     1     -12.194  15.675  70.202  1.00  0.00    -0.379 OA 
BRANCH   8  11
HETATM   11  C   UNL     1     -12.156  14.445  68.101  1.00  0.00    -0.223 C  
BRANCH  11  12
HETATM   12  O   UNL     1     -11.828  13.125  67.620  1.00  0.00    -0.354 OA 
BRANCH  12  13
HETATM   13  C   UNL     1     -11.799  13.016  66.249  1.00  0.00    -0.408 A  
HETATM   14  C   UNL     1     -12.492  13.901  65.415  1.00  0.00    -0.528 A  
HETATM   15  C   UNL     1     -12.399  13.791  64.032  1.00  0.00    -0.370 A  
HETATM   16  C   UNL     1     -11.616  12.791  63.468  1.00  0.00    -0.565 A  
HETATM   17  C   UNL     1     -10.943  11.870  64.282  1.00  0.00    -0.411 A  
HETATM   18  C   UNL     1     -11.072  11.947  65.689  1.00  0.00    -0.362 A  
HETATM   19  C   UNL     1     -10.397  10.925  66.579  1.00  0.00    -0.299 C  
HETATM   20  C   UNL     1      -9.906   9.684  65.824  1.00  0.00    -0.302 C  
HETATM   21  C   UNL     1      -9.159  10.077  64.540  1.00  0.00    -0.243 C  
HETATM   22  O   UNL     1      -9.057   8.898  66.663  1.00  0.00    -0.141 OA 
HETATM   23  H   UNL     1      -8.753   8.129  66.195  1.00  0.00     0.000 HD 
HETATM   24  O   UNL     1      -8.015  10.903  64.794  1.00  0.00    -0.363 OA 
HETATM   25  C   UNL     1     -10.120  10.800  63.595  1.00  0.00    -0.375 C  
HETATM   26  H   UNL     1      -7.553  11.147  64.000  1.00  0.00     0.000 HD 
ENDBRANCH  12  13
ENDBRANCH  11  12
ENDBRANCH   8  11
ENDBRANCH   7   8
ENDBRANCH   5   7
TORSDOF 5
ENDMDL
MODEL       61
REMARK 921   NORMALIZED FREE ENERGY PREDICTED BY IDOCK:   -5.62 KCAL/MOL
REMARK 922        TOTAL FREE ENERGY PREDICTED BY IDOCK:   -7.99 KCAL/MOL
REMARK 923 INTER-LIGAND FREE ENERGY PREDICTED BY IDOCK:   -7.14 KCAL/MOL
REMARK 924 INTRA-LIGAND FREE ENERGY PREDICTED BY IDOCK:   -0.85 KCAL/MOL
REMARK 927      BINDING AFFINITY PREDICTED BY RF-SCORE:    0.00 PKD
ROOT
HETATM    1  C   UNL     1      -8.422  10.147  67.277  1.00  0.00    -0.125 C  
HETATM    2  C   UNL     1      -9.768   9.447  67.013  1.00  0.00    -0.178 C  
HETATM    3  C   UNL     1     -10.565   9.419  68.330  1.00  0.00    -0.247 C  
HETATM    4  C   UNL     1      -9.527   7.995  66.562  1.00  0.00    -0.278 C  
HETATM    5  N   UNL     1     -10.592  10.173  66.028  1.00  0.00    -0.074 NA 
HETATM    6  H   UNL     1     -10.884  11.072  66.410  1.00  0.00     0.000 HD 
ENDROOT
BRANCH   5   7
HETATM    7  C   UNL     1      -9.971  10.362  64.712  1.00  0.00    -0.339 C  
BRANCH   7   8
HETATM    8  C   UNL     1     -10.325  11.737  64.115  1.00  0.00    -0.331 C  
HETATM    9  H   UNL     1      -9.886  12.754  62.484  1.00  0.00     0.000 HD 
HETATM   10  O   UNL     1      -9.668  11.906  62.852  1.00  0.00    -0.349 OA 
BRANCH   8  11
HETATM   11  C   UNL     1     -11.846  11.860  63.940  1.00  0.00    -0.411 C  
BRANCH  11  12
HETATM   12  O   UNL     1     -12.429  12.486  65.102  1.00  0.00    -0.573 OA 
BRANCH  12  13
HETATM   13  C   UNL     1     -11.880  13.708  65.418  1.00  0.00    -0.353 A  
HETATM   14  C   UNL     1     -11.582  14.667  64.443  1.00  0.00    -0.315 A  
HETATM   15  C   UNL     1     -11.075  15.910  64.804  1.00  0.00    -0.397 A  
HETATM   16  C   UNL     1     -10.855  16.205  66.144  1.00  0.00    -0.138 A  
HETATM   17  C   UNL     1     -11.109  15.247  67.135  1.00  0.00    -0.323 A  
HETATM   18  C   UNL     1     -11.580  13.964  66.770  1.00  0.00    -0.398 A  
HETATM   19  C   UNL     1     -11.806  12.900  67.824  1.00  0.00    -0.391 C  
HETATM   20  C   UNL     1     -11.162  13.232  69.176  1.00  0.00    -0.251 C  
HETATM   21  C   UNL     1     -11.458  14.682  69.589  1.00  0.00    -0.289 C  
HETATM   22  O   UNL     1     -11.632  12.331  70.182  1.00  0.00    -0.509 OA 
HETATM   23  H   UNL     1     -11.233  12.537  71.019  1.00  0.00     0.000 HD 
HETATM   24  O   UNL     1     -12.862  14.951  69.706  1.00  0.00    -0.591 OA 
HETATM   25  C   UNL     1     -10.831  15.637  68.573  1.00  0.00    -0.282 C  
HETATM   26  H   UNL     1     -13.045  15.848  69.962  1.00  0.00     0.000 HD 
ENDBRANCH  12  13
ENDBRANCH  11  12
ENDBRANCH   8  11
ENDBRANCH   7   8
ENDBRANCH   5   7
TORSDOF 5
ENDMDL
MODEL       62
REMARK 921   NORMALIZED FREE ENERGY PREDICTED BY IDOCK:   -5.60 KCAL/MOL
REMARK 922        TOTAL FREE ENERGY PREDICTED BY IDOCK:   -7.97 KCAL/MOL
REMARK 923 INTER-LIGAND FREE ENERGY PREDICTED BY IDOCK:   -7.20 KCAL/MOL
REMARK 924 INTRA-LIGAND FREE ENERGY PREDICTED BY IDOCK:   -0.76 KCAL/MOL
REMARK 927      BINDING AFFINITY PREDICTED BY RF-SCORE:    0.00 PKD
ROOT
HETATM    1  C   UNL     1     -11.781  15.868  68.717  1.00  0.00    -0.355 C  
HETATM    2  C   UNL     1     -10.834  15.184  69.721  1.00  0.00    -0.284 C  
HETATM    3  C   UNL     1     -11.270  15.582  71.143  1.00  0.00    -0.423 C  
HETATM    4  C   UNL     1      -9.392  15.675  69.502  1.00  0.00    -0.263 C  
HETATM    5  N   UNL     1     -10.906  13.713  69.644  1.00  0.00    -0.446 NA 
HETATM    6  H   UNL     1     -11.823  13.391  69.954  1.00  0.00     0.000 HD 
ENDROOT
BRANCH   5   7
HETATM    7  C   UNL     1     -10.585  13.138  68.333  1.00  0.00    -0.251 C  
BRANCH   7   8
HETATM    8  C   UNL     1     -11.634  12.096  67.903  1.00  0.00    -0.347 C  
HETATM    9  H   UNL     1     -12.447  11.484  66.215  1.00  0.00     0.000 HD 
HETATM   10  O   UNL     1     -11.800  12.128  66.480  1.00  0.00    -0.569 OA 
BRANCH   8  11
HETATM   11  C   UNL     1     -11.199  10.693  68.354  1.00  0.00    -0.288 C  
BRANCH  11  12
HETATM   12  O   UNL     1     -10.609  10.757  69.669  1.00  0.00    -0.231 OA 
BRANCH  12  13
HETATM   13  C   UNL     1     -11.349  10.135  70.648  1.00  0.00    -0.352 A  
HETATM   14  C   UNL     1     -12.632  10.568  71.003  1.00  0.00    -0.499 A  
HETATM   15  C   UNL     1     -13.371   9.884  71.961  1.00  0.00    -0.532 A  
HETATM   16  C   UNL     1     -12.832   8.763  72.580  1.00  0.00    -0.380 A  
HETATM   17  C   UNL     1     -11.536   8.332  72.269  1.00  0.00    -0.452 A  
HETATM   18  C   UNL     1     -10.761   9.051  71.329  1.00  0.00    -0.379 A  
HETATM   19  C   UNL     1      -9.338   8.632  71.024  1.00  0.00    -0.254 C  
HETATM   20  C   UNL     1      -8.760   7.643  72.044  1.00  0.00    -0.117 C  
HETATM   21  C   UNL     1      -9.759   6.516  72.350  1.00  0.00    -0.152 C  
HETATM   22  O   UNL     1      -7.534   7.092  71.559  1.00  0.00    -0.084 OA 
HETATM   23  H   UNL     1      -7.176   6.480  72.190  1.00  0.00     0.000 HD 
HETATM   24  O   UNL     1     -10.122   5.764  71.184  1.00  0.00    -0.189 OA 
HETATM   25  C   UNL     1     -11.011   7.109  72.994  1.00  0.00    -0.357 C  
HETATM   26  H   UNL     1     -10.739   5.067  71.373  1.00  0.00     0.000 HD 
ENDBRANCH  12  13
ENDBRANCH  11  12
ENDBRANCH   8  11
ENDBRANCH   7   8
ENDBRANCH   5   7
TORSDOF 5
ENDMDL
MODEL       63
REMARK 921   NORMALIZED FREE ENERGY PREDICTED BY IDOCK:   -5.59 KCAL/MOL
REMARK 922        TOTAL FREE ENERGY PREDICTED BY IDOCK:   -7.95 KCAL/MOL
REMARK 923 INTER-LIGAND FREE ENERGY PREDICTED BY IDOCK:   -7.31 KCAL/MOL
REMARK 924 INTRA-LIGAND FREE ENERGY PREDICTED BY IDOCK:   -0.64 KCAL/MOL
REMARK 927      BINDING AFFINITY PREDICTED BY RF-SCORE:    0.00 PKD
ROOT
HETATM    1  C   UNL     1     -12.500  13.128  65.757  1.00  0.00    -0.441 C  
HETATM    2  C   UNL     1     -11.625  13.532  64.556  1.00  0.00    -0.381 C  
HETATM    3  C   UNL     1     -11.607  15.070  64.468  1.00  0.00    -0.346 C  
HETATM    4  C   UNL     1     -12.232  12.981  63.254  1.00  0.00    -0.464 C  
HETATM    5  N   UNL     1     -10.226  13.094  64.711  1.00  0.00    -0.511 NA 
HETATM    6  H   UNL     1      -9.785  13.595  65.481  1.00  0.00     0.000 HD 
ENDROOT
BRANCH   5   7
HETATM    7  C   UNL     1     -10.038  11.648  64.877  1.00  0.00    -0.260 C  
BRANCH   7   8
HETATM    8  C   UNL     1      -9.296  11.323  66.187  1.00  0.00    -0.211 C  
HETATM    9  H   UNL     1      -8.333  12.329  67.582  1.00  0.00     0.000 HD 
HETATM   10  O   UNL     1      -8.790  12.529  66.774  1.00  0.00    -0.208 OA 
BRANCH   8  11
HETATM   11  C   UNL     1     -10.244  10.615  67.167  1.00  0.00    -0.216 C  
BRANCH  11  12
HETATM   12  O   UNL     1      -9.767  10.776  68.519  1.00  0.00    -0.167 OA 
BRANCH  12  13
HETATM   13  C   UNL     1     -10.765  10.933  69.453  1.00  0.00    -0.225 A  
HETATM   14  C   UNL     1     -11.472  12.133  69.596  1.00  0.00    -0.308 A  
HETATM   15  C   UNL     1     -12.508  12.239  70.516  1.00  0.00    -0.272 A  
HETATM   16  C   UNL     1     -12.846  11.148  71.307  1.00  0.00    -0.515 A  
HETATM   17  C   UNL     1     -12.130   9.948  71.209  1.00  0.00    -0.485 A  
HETATM   18  C   UNL     1     -11.043   9.849  70.308  1.00  0.00    -0.368 A  
HETATM   19  C   UNL     1     -10.223   8.578  70.230  1.00  0.00    -0.206 C  
HETATM   20  C   UNL     1     -10.458   7.625  71.409  1.00  0.00    -0.208 C  
HETATM   21  C   UNL     1     -11.958   7.459  71.696  1.00  0.00    -0.307 C  
HETATM   22  O   UNL     1      -9.866   6.352  71.141  1.00  0.00    -0.178 OA 
HETATM   23  H   UNL     1     -10.012   5.762  71.871  1.00  0.00     0.000 HD 
HETATM   24  O   UNL     1     -12.684   6.938  70.574  1.00  0.00    -0.569 OA 
HETATM   25  C   UNL     1     -12.547   8.806  72.113  1.00  0.00    -0.463 C  
HETATM   26  H   UNL     1     -13.611   6.835  70.751  1.00  0.00     0.000 HD 
ENDBRANCH  12  13
ENDBRANCH  11  12
ENDBRANCH   8  11
ENDBRANCH   7   8
ENDBRANCH   5   7
TORSDOF 5
ENDMDL
MODEL       64
REMARK 921   NORMALIZED FREE ENERGY PREDICTED BY IDOCK:   -5.59 KCAL/MOL
REMARK 922        TOTAL FREE ENERGY PREDICTED BY IDOCK:   -7.94 KCAL/MOL
REMARK 923 INTER-LIGAND FREE ENERGY PREDICTED BY IDOCK:   -7.43 KCAL/MOL
REMARK 924 INTRA-LIGAND FREE ENERGY PREDICTED BY IDOCK:   -0.51 KCAL/MOL
REMARK 927      BINDING AFFINITY PREDICTED BY RF-SCORE:    0.00 PKD
ROOT
HETATM    1  C   UNL     1      -9.360   7.171  71.324  1.00  0.00    -0.155 C  
HETATM    2  C   UNL     1     -10.496   7.183  72.364  1.00  0.00    -0.218 C  
HETATM    3  C   UNL     1      -9.888   6.891  73.748  1.00  0.00    -0.313 C  
HETATM    4  C   UNL     1     -11.517   6.076  72.041  1.00  0.00    -0.343 C  
HETATM    5  N   UNL     1     -11.158   8.498  72.454  1.00  0.00    -0.361 NA 
HETATM    6  H   UNL     1     -10.511   9.191  72.829  1.00  0.00     0.000 HD 
ENDROOT
BRANCH   5   7
HETATM    7  C   UNL     1     -11.751   8.987  71.204  1.00  0.00    -0.302 C  
BRANCH   7   8
HETATM    8  C   UNL     1     -13.125   9.638  71.450  1.00  0.00    -0.385 C  
HETATM    9  H   UNL     1     -14.444   9.705  72.914  1.00  0.00     0.000 HD 
HETATM   10  O   UNL     1     -13.597   9.303  72.762  1.00  0.00    -0.403 OA 
BRANCH   8  11
HETATM   11  C   UNL     1     -13.020  11.163  71.299  1.00  0.00    -0.357 C  
BRANCH  11  12
HETATM   12  O   UNL     1     -12.021  11.495  70.312  1.00  0.00    -0.333 OA 
BRANCH  12  13
HETATM   13  C   UNL     1     -12.055  12.806  69.897  1.00  0.00    -0.259 A  
HETATM   14  C   UNL     1     -12.418  13.852  70.753  1.00  0.00    -0.445 A  
HETATM   15  C   UNL     1     -12.392  15.170  70.313  1.00  0.00    -0.398 A  
HETATM   16  C   UNL     1     -12.007  15.457  69.010  1.00  0.00    -0.313 A  
HETATM   17  C   UNL     1     -11.674  14.425  68.122  1.00  0.00    -0.377 A  
HETATM   18  C   UNL     1     -11.746  13.078  68.550  1.00  0.00    -0.377 A  
HETATM   19  C   UNL     1     -11.445  11.949  67.586  1.00  0.00    -0.387 C  
HETATM   20  C   UNL     1     -11.419  12.389  66.117  1.00  0.00    -0.379 C  
HETATM   21  C   UNL     1     -10.605  13.680  65.939  1.00  0.00    -0.289 C  
HETATM   22  O   UNL     1     -10.875  11.350  65.299  1.00  0.00    -0.284 OA 
HETATM   23  H   UNL     1     -10.860  11.623  64.389  1.00  0.00     0.000 HD 
HETATM   24  O   UNL     1      -9.243  13.541  66.367  1.00  0.00    -0.409 OA 
HETATM   25  C   UNL     1     -11.278  14.814  66.713  1.00  0.00    -0.344 C  
HETATM   26  H   UNL     1      -8.740  14.339  66.257  1.00  0.00     0.000 HD 
ENDBRANCH  12  13
ENDBRANCH  11  12
ENDBRANCH   8  11
ENDBRANCH   7   8
ENDBRANCH   5   7
TORSDOF 5
ENDMDL
MODEL       65
REMARK 921   NORMALIZED FREE ENERGY PREDICTED BY IDOCK:   -5.56 KCAL/MOL
REMARK 922        TOTAL FREE ENERGY PREDICTED BY IDOCK:   -7.90 KCAL/MOL
REMARK 923 INTER-LIGAND FREE ENERGY PREDICTED BY IDOCK:   -7.12 KCAL/MOL
REMARK 924 INTRA-LIGAND FREE ENERGY PREDICTED BY IDOCK:   -0.78 KCAL/MOL
REMARK 927      BINDING AFFINITY PREDICTED BY RF-SCORE:    0.00 PKD
ROOT
HETATM    1  C   UNL     1      -9.802  20.826  67.671  1.00  0.00    -0.353 C  
HETATM    2  C   UNL     1      -9.912  19.579  66.774  1.00  0.00    -0.395 C  
HETATM    3  C   UNL     1     -10.601  19.990  65.459  1.00  0.00    -0.300 C  
HETATM    4  C   UNL     1     -10.781  18.511  67.462  1.00  0.00    -0.419 C  
HETATM    5  N   UNL     1      -8.591  19.030  66.415  1.00  0.00    -0.317 NA 
HETATM    6  H   UNL     1      -8.090  19.687  65.817  1.00  0.00     0.000 HD 
ENDROOT
BRANCH   5   7
HETATM    7  C   UNL     1      -7.748  18.637  67.549  1.00  0.00    -0.229 C  
BRANCH   7   8
HETATM    8  C   UNL     1      -7.051  17.287  67.291  1.00  0.00    -0.165 C  
HETATM    9  H   UNL     1      -6.305  15.821  68.378  1.00  0.00     0.000 HD 
HETATM   10  O   UNL     1      -6.735  16.654  68.537  1.00  0.00    -0.138 OA 
BRANCH   8  11
HETATM   11  C   UNL     1      -7.961  16.377  66.451  1.00  0.00    -0.294 C  
BRANCH  11  12
HETATM   12  O   UNL     1      -8.189  15.132  67.143  1.00  0.00    -0.191 OA 
BRANCH  12  13
HETATM   13  C   UNL     1      -9.498  14.928  67.518  1.00  0.00    -0.200 A  
HETATM   14  C   UNL     1      -9.977  15.287  68.783  1.00  0.00    -0.215 A  
HETATM   15  C   UNL     1     -11.317  15.113  69.109  1.00  0.00    -0.311 A  
HETATM   16  C   UNL     1     -12.191  14.571  68.174  1.00  0.00    -0.120 A  
HETATM   17  C   UNL     1     -11.728  14.169  66.914  1.00  0.00    -0.437 A  
HETATM   18  C   UNL     1     -10.356  14.300  66.595  1.00  0.00    -0.279 A  
HETATM   19  C   UNL     1      -9.830  13.818  65.259  1.00  0.00    -0.155 C  
HETATM   20  C   UNL     1     -10.809  12.909  64.507  1.00  0.00    -0.363 C  
HETATM   21  C   UNL     1     -12.229  13.497  64.515  1.00  0.00    -0.398 C  
HETATM   22  O   UNL     1     -10.368  12.711  63.162  1.00  0.00    -0.481 OA 
HETATM   23  H   UNL     1     -10.975  12.148  62.696  1.00  0.00     0.000 HD 
HETATM   24  O   UNL     1     -12.295  14.793  63.905  1.00  0.00    -0.981 OA 
HETATM   25  C   UNL     1     -12.738  13.575  65.954  1.00  0.00    -0.382 C  
HETATM   26  H   UNL     1     -13.173  15.157  63.909  1.00  0.00     0.000 HD 
ENDBRANCH  12  13
ENDBRANCH  11  12
ENDBRANCH   8  11
ENDBRANCH   7   8
ENDBRANCH   5   7
TORSDOF 5
ENDMDL
MODEL       66
REMARK 921   NORMALIZED FREE ENERGY PREDICTED BY IDOCK:   -5.54 KCAL/MOL
REMARK 922        TOTAL FREE ENERGY PREDICTED BY IDOCK:   -7.88 KCAL/MOL
REMARK 923 INTER-LIGAND FREE ENERGY PREDICTED BY IDOCK:   -7.40 KCAL/MOL
REMARK 924 INTRA-LIGAND FREE ENERGY PREDICTED BY IDOCK:   -0.48 KCAL/MOL
REMARK 927      BINDING AFFINITY PREDICTED BY RF-SCORE:    0.00 PKD
ROOT
HETATM    1  C   UNL     1     -10.548   8.727  72.023  1.00  0.00    -0.414 C  
HETATM    2  C   UNL     1     -11.727   8.610  71.040  1.00  0.00    -0.278 C  
HETATM    3  C   UNL     1     -12.787   9.658  71.431  1.00  0.00    -0.471 C  
HETATM    4  C   UNL     1     -12.366   7.214  71.148  1.00  0.00    -0.404 C  
HETATM    5  N   UNL     1     -11.328   8.900  69.651  1.00  0.00    -0.431 NA 
HETATM    6  H   UNL     1     -11.063   9.880  69.560  1.00  0.00     0.000 HD 
ENDROOT
BRANCH   5   7
HETATM    7  C   UNL     1     -10.269   8.039  69.112  1.00  0.00    -0.217 C  
BRANCH   7   8
HETATM    8  C   UNL     1     -10.170   8.159  67.580  1.00  0.00    -0.243 C  
HETATM    9  H   UNL     1     -10.795   7.139  66.013  1.00  0.00     0.000 HD 
HETATM   10  O   UNL     1     -10.856   7.064  66.959  1.00  0.00    -0.348 OA 
BRANCH   8  11
HETATM   11  C   UNL     1     -10.775   9.493  67.116  1.00  0.00    -0.182 C  
BRANCH  11  12
HETATM   12  O   UNL     1      -9.738  10.357  66.608  1.00  0.00    -0.177 OA 
BRANCH  12  13
HETATM   13  C   UNL     1     -10.192  11.350  65.771  1.00  0.00    -0.248 A  
HETATM   14  C   UNL     1     -10.465  11.119  64.418  1.00  0.00    -0.418 A  
HETATM   15  C   UNL     1     -10.971  12.134  63.614  1.00  0.00    -0.527 A  
HETATM   16  C   UNL     1     -11.204  13.393  64.153  1.00  0.00    -0.379 A  
HETATM   17  C   UNL     1     -10.903  13.660  65.496  1.00  0.00    -0.295 A  
HETATM   18  C   UNL     1     -10.343  12.644  66.306  1.00  0.00    -0.269 A  
HETATM   19  C   UNL     1      -9.960  12.932  67.743  1.00  0.00    -0.230 C  
HETATM   20  C   UNL     1      -9.909  14.429  68.075  1.00  0.00    -0.221 C  
HETATM   21  C   UNL     1     -11.149  15.158  67.534  1.00  0.00    -0.319 C  
HETATM   22  O   UNL     1      -9.806  14.620  69.487  1.00  0.00    -0.416 OA 
HETATM   23  H   UNL     1      -9.774  15.546  69.692  1.00  0.00     0.000 HD 
HETATM   24  O   UNL     1     -12.375  14.643  68.072  1.00  0.00    -0.604 OA 
HETATM   25  C   UNL     1     -11.171  15.060  66.009  1.00  0.00    -0.310 C  
HETATM   26  H   UNL     1     -13.142  15.094  67.738  1.00  0.00     0.000 HD 
ENDBRANCH  12  13
ENDBRANCH  11  12
ENDBRANCH   8  11
ENDBRANCH   7   8
ENDBRANCH   5   7
TORSDOF 5
ENDMDL
MODEL       67
REMARK 921   NORMALIZED FREE ENERGY PREDICTED BY IDOCK:   -5.50 KCAL/MOL
REMARK 922        TOTAL FREE ENERGY PREDICTED BY IDOCK:   -7.84 KCAL/MOL
REMARK 923 INTER-LIGAND FREE ENERGY PREDICTED BY IDOCK:   -7.03 KCAL/MOL
REMARK 924 INTRA-LIGAND FREE ENERGY PREDICTED BY IDOCK:   -0.81 KCAL/MOL
REMARK 927      BINDING AFFINITY PREDICTED BY RF-SCORE:    0.00 PKD
ROOT
HETATM    1  C   UNL     1     -12.244   9.878  71.304  1.00  0.00    -0.480 C  
HETATM    2  C   UNL     1     -12.371   8.352  71.461  1.00  0.00    -0.309 C  
HETATM    3  C   UNL     1     -13.856   8.012  71.689  1.00  0.00    -0.444 C  
HETATM    4  C   UNL     1     -11.574   7.880  72.690  1.00  0.00    -0.435 C  
HETATM    5  N   UNL     1     -11.946   7.628  70.249  1.00  0.00    -0.481 NA 
HETATM    6  H   UNL     1     -12.588   7.823  69.481  1.00  0.00     0.000 HD 
ENDROOT
BRANCH   5   7
HETATM    7  C   UNL     1     -10.563   7.874  69.826  1.00  0.00    -0.242 C  
BRANCH   7   8
HETATM    8  C   UNL     1     -10.226   7.112  68.531  1.00  0.00    -0.175 C  
HETATM    9  H   UNL     1     -10.735   5.400  67.695  1.00  0.00     0.000 HD 
HETATM   10  O   UNL     1     -10.943   5.871  68.494  1.00  0.00    -0.281 OA 
BRANCH   8  11
HETATM   11  C   UNL     1     -10.586   7.967  67.307  1.00  0.00    -0.295 C  
BRANCH  11  12
HETATM   12  O   UNL     1     -10.766   9.343  67.700  1.00  0.00    -0.273 OA 
BRANCH  12  13
HETATM   13  C   UNL     1     -10.487  10.254  66.707  1.00  0.00    -0.214 A  
HETATM   14  C   UNL     1     -10.059   9.861  65.433  1.00  0.00    -0.270 A  
HETATM   15  C   UNL     1      -9.836  10.806  64.438  1.00  0.00    -0.374 A  
HETATM   16  C   UNL     1     -10.033  12.155  64.708  1.00  0.00    -0.224 A  
HETATM   17  C   UNL     1     -10.424  12.576  65.987  1.00  0.00    -0.282 A  
HETATM   18  C   UNL     1     -10.606  11.623  67.016  1.00  0.00    -0.272 A  
HETATM   19  C   UNL     1     -10.974  12.066  68.417  1.00  0.00    -0.276 C  
HETATM   20  C   UNL     1     -10.776  13.568  68.655  1.00  0.00    -0.253 C  
HETATM   21  C   UNL     1     -11.358  14.394  67.498  1.00  0.00    -0.328 C  
HETATM   22  O   UNL     1     -11.384  13.957  69.889  1.00  0.00    -0.415 OA 
HETATM   23  H   UNL     1     -11.261  14.887  70.037  1.00  0.00     0.000 HD 
HETATM   24  O   UNL     1     -12.763  14.172  67.309  1.00  0.00    -0.429 OA 
HETATM   25  C   UNL     1     -10.605  14.063  66.209  1.00  0.00    -0.281 C  
HETATM   26  H   UNL     1     -13.123  14.683  66.594  1.00  0.00     0.000 HD 
ENDBRANCH  12  13
ENDBRANCH  11  12
ENDBRANCH   8  11
ENDBRANCH   7   8
ENDBRANCH   5   7
TORSDOF 5
ENDMDL
MODEL       68
REMARK 921   NORMALIZED FREE ENERGY PREDICTED BY IDOCK:   -5.49 KCAL/MOL
REMARK 922        TOTAL FREE ENERGY PREDICTED BY IDOCK:   -7.82 KCAL/MOL
REMARK 923 INTER-LIGAND FREE ENERGY PREDICTED BY IDOCK:   -7.27 KCAL/MOL
REMARK 924 INTRA-LIGAND FREE ENERGY PREDICTED BY IDOCK:   -0.55 KCAL/MOL
REMARK 927      BINDING AFFINITY PREDICTED BY RF-SCORE:    0.00 PKD
ROOT
HETATM    1  C   UNL     1      -9.225   6.587  70.053  1.00  0.00    -0.157 C  
HETATM    2  C   UNL     1     -10.062   7.203  68.917  1.00  0.00    -0.177 C  
HETATM    3  C   UNL     1     -11.213   6.234  68.586  1.00  0.00    -0.328 C  
HETATM    4  C   UNL     1      -9.195   7.373  67.657  1.00  0.00    -0.132 C  
HETATM    5  N   UNL     1     -10.679   8.484  69.309  1.00  0.00    -0.366 NA 
HETATM    6  H   UNL     1     -11.376   8.330  70.036  1.00  0.00     0.000 HD 
ENDROOT
BRANCH   5   7
HETATM    7  C   UNL     1      -9.737   9.530  69.726  1.00  0.00    -0.214 C  
BRANCH   7   8
HETATM    8  C   UNL     1      -9.856  10.782  68.837  1.00  0.00    -0.199 C  
HETATM    9  H   UNL     1      -8.684  11.799  67.621  1.00  0.00     0.000 HD 
HETATM   10  O   UNL     1      -8.611  11.026  68.170  1.00  0.00    -0.128 OA 
BRANCH   8  11
HETATM   11  C   UNL     1     -10.980  10.592  67.808  1.00  0.00    -0.306 C  
BRANCH  11  12
HETATM   12  O   UNL     1     -12.039  11.541  68.051  1.00  0.00    -0.617 OA 
BRANCH  12  13
HETATM   13  C   UNL     1     -11.647  12.857  67.956  1.00  0.00    -0.342 A  
HETATM   14  C   UNL     1     -10.998  13.364  66.824  1.00  0.00    -0.298 A  
HETATM   15  C   UNL     1     -10.662  14.710  66.744  1.00  0.00    -0.301 A  
HETATM   16  C   UNL     1     -10.967  15.564  67.797  1.00  0.00    -0.317 A  
HETATM   17  C   UNL     1     -11.583  15.073  68.956  1.00  0.00    -0.342 A  
HETATM   18  C   UNL     1     -11.883  13.695  69.064  1.00  0.00    -0.393 A  
HETATM   19  C   UNL     1     -12.497  13.140  70.332  1.00  0.00    -0.280 C  
HETATM   20  C   UNL     1     -12.416  14.102  71.524  1.00  0.00    -0.341 C  
HETATM   21  C   UNL     1     -12.841  15.522  71.119  1.00  0.00    -0.489 C  
HETATM   22  O   UNL     1     -13.235  13.632  72.596  1.00  0.00    -0.503 OA 
HETATM   23  H   UNL     1     -13.185  14.228  73.334  1.00  0.00     0.000 HD 
HETATM   24  O   UNL     1     -14.183  15.577  70.616  1.00  0.00    -0.799 OA 
HETATM   25  C   UNL     1     -11.872  16.061  70.067  1.00  0.00    -0.241 C  
HETATM   26  H   UNL     1     -14.447  16.455  70.365  1.00  0.00     0.000 HD 
ENDBRANCH  12  13
ENDBRANCH  11  12
ENDBRANCH   8  11
ENDBRANCH   7   8
ENDBRANCH   5   7
TORSDOF 5
ENDMDL
MODEL       69
REMARK 921   NORMALIZED FREE ENERGY PREDICTED BY IDOCK:   -5.48 KCAL/MOL
REMARK 922        TOTAL FREE ENERGY PREDICTED BY IDOCK:   -7.80 KCAL/MOL
REMARK 923 INTER-LIGAND FREE ENERGY PREDICTED BY IDOCK:   -7.06 KCAL/MOL
REMARK 924 INTRA-LIGAND FREE ENERGY PREDICTED BY IDOCK:   -0.74 KCAL/MOL
REMARK 927      BINDING AFFINITY PREDICTED BY RF-SCORE:    0.00 PKD
ROOT
HETATM    1  C   UNL     1     -10.944  15.367  68.485  1.00  0.00    -0.278 C  
HETATM    2  C   UNL     1     -10.983  13.837  68.649  1.00  0.00    -0.266 C  
HETATM    3  C   UNL     1      -9.597  13.276  68.279  1.00  0.00    -0.221 C  
HETATM    4  C   UNL     1     -12.021  13.231  67.687  1.00  0.00    -0.366 C  
HETATM    5  N   UNL     1     -11.255  13.429  70.040  1.00  0.00    -0.477 NA 
HETATM    6  H   UNL     1     -10.475  13.694  70.641  1.00  0.00     0.000 HD 
ENDROOT
BRANCH   5   7
HETATM    7  C   UNL     1     -12.516  13.926  70.602  1.00  0.00    -0.366 C  
BRANCH   7   8
HETATM    8  C   UNL     1     -12.791  13.319  71.991  1.00  0.00    -0.210 C  
HETATM    9  H   UNL     1     -13.894  13.765  73.563  1.00  0.00     0.000 HD 
HETATM   10  O   UNL     1     -13.724  14.139  72.706  1.00  0.00    -0.628 OA 
BRANCH   8  11
HETATM   11  C   UNL     1     -13.344  11.894  71.843  1.00  0.00    -0.300 C  
BRANCH  11  12
HETATM   12  O   UNL     1     -12.259  10.945  71.789  1.00  0.00    -0.146 OA 
BRANCH  12  13
HETATM   13  C   UNL     1     -12.662   9.630  71.752  1.00  0.00    -0.420 A  
HETATM   14  C   UNL     1     -13.849   9.196  72.354  1.00  0.00    -0.524 A  
HETATM   15  C   UNL     1     -14.250   7.869  72.253  1.00  0.00    -0.264 A  
HETATM   16  C   UNL     1     -13.466   6.960  71.554  1.00  0.00    -0.290 A  
HETATM   17  C   UNL     1     -12.254   7.362  70.975  1.00  0.00    -0.315 A  
HETATM   18  C   UNL     1     -11.817   8.700  71.115  1.00  0.00    -0.331 A  
HETATM   19  C   UNL     1     -10.484   9.137  70.544  1.00  0.00    -0.289 C  
HETATM   20  C   UNL     1      -9.573   7.966  70.154  1.00  0.00    -0.175 C  
HETATM   21  C   UNL     1     -10.346   6.902  69.360  1.00  0.00    -0.204 C  
HETATM   22  O   UNL     1      -8.462   8.438  69.389  1.00  0.00    -0.122 OA 
HETATM   23  H   UNL     1      -7.897   7.713  69.148  1.00  0.00     0.000 HD 
HETATM   24  O   UNL     1     -10.918   7.420  68.150  1.00  0.00    -0.441 OA 
HETATM   25  C   UNL     1     -11.447   6.311  70.241  1.00  0.00    -0.428 C  
HETATM   26  H   UNL     1     -11.396   6.762  67.659  1.00  0.00     0.000 HD 
ENDBRANCH  12  13
ENDBRANCH  11  12
ENDBRANCH   8  11
ENDBRANCH   7   8
ENDBRANCH   5   7
TORSDOF 5
ENDMDL
MODEL       70
REMARK 921   NORMALIZED FREE ENERGY PREDICTED BY IDOCK:   -5.44 KCAL/MOL
REMARK 922        TOTAL FREE ENERGY PREDICTED BY IDOCK:   -7.75 KCAL/MOL
REMARK 923 INTER-LIGAND FREE ENERGY PREDICTED BY IDOCK:   -6.93 KCAL/MOL
REMARK 924 INTRA-LIGAND FREE ENERGY PREDICTED BY IDOCK:   -0.82 KCAL/MOL
REMARK 927      BINDING AFFINITY PREDICTED BY RF-SCORE:    0.00 PKD
ROOT
HETATM    1  C   UNL     1     -10.990   9.419  71.420  1.00  0.00    -0.443 C  
HETATM    2  C   UNL     1     -11.537   8.020  71.081  1.00  0.00    -0.282 C  
HETATM    3  C   UNL     1     -13.027   7.977  71.468  1.00  0.00    -0.326 C  
HETATM    4  C   UNL     1     -10.793   6.951  71.901  1.00  0.00    -0.258 C  
HETATM    5  N   UNL     1     -11.459   7.724  69.638  1.00  0.00    -0.421 NA 
HETATM    6  H   UNL     1     -12.088   8.337  69.120  1.00  0.00     0.000 HD 
ENDROOT
BRANCH   5   7
HETATM    7  C   UNL     1     -10.111   7.780  69.060  1.00  0.00    -0.196 C  
BRANCH   7   8
HETATM    8  C   UNL     1     -10.144   7.575  67.534  1.00  0.00    -0.200 C  
HETATM    9  H   UNL     1     -11.347   6.726  66.222  1.00  0.00     0.000 HD 
HETATM   10  O   UNL     1     -11.326   6.852  67.164  1.00  0.00    -0.290 OA 
BRANCH   8  11
HETATM   11  C   UNL     1     -10.109   8.933  66.819  1.00  0.00    -0.280 C  
BRANCH  11  12
HETATM   12  O   UNL     1     -10.614   9.965  67.691  1.00  0.00    -0.234 OA 
BRANCH  12  13
HETATM   13  C   UNL     1      -9.809  11.078  67.771  1.00  0.00    -0.173 A  
HETATM   14  C   UNL     1      -8.620  11.089  68.509  1.00  0.00    -0.158 A  
HETATM   15  C   UNL     1      -7.806  12.216  68.525  1.00  0.00    -0.122 A  
HETATM   16  C   UNL     1      -8.176  13.347  67.809  1.00  0.00    -0.172 A  
HETATM   17  C   UNL     1      -9.381  13.375  67.093  1.00  0.00    -0.240 A  
HETATM   18  C   UNL     1     -10.236  12.248  67.112  1.00  0.00    -0.224 A  
HETATM   19  C   UNL     1     -11.567  12.282  66.390  1.00  0.00    -0.445 C  
HETATM   20  C   UNL     1     -12.007  13.694  65.984  1.00  0.00    -0.413 C  
HETATM   21  C   UNL     1     -10.851  14.468  65.332  1.00  0.00    -0.354 C  
HETATM   22  O   UNL     1     -13.119  13.627  65.089  1.00  0.00    -0.750 OA 
HETATM   23  H   UNL     1     -13.392  14.502  64.838  1.00  0.00     0.000 HD 
HETATM   24  O   UNL     1     -10.346  13.823  64.154  1.00  0.00    -0.639 OA 
HETATM   25  C   UNL     1      -9.724  14.648  66.348  1.00  0.00    -0.315 C  
HETATM   26  H   UNL     1      -9.631  14.302  63.751  1.00  0.00     0.000 HD 
ENDBRANCH  12  13
ENDBRANCH  11  12
ENDBRANCH   8  11
ENDBRANCH   7   8
ENDBRANCH   5   7
TORSDOF 5
ENDMDL
MODEL       71
REMARK 921   NORMALIZED FREE ENERGY PREDICTED BY IDOCK:   -5.43 KCAL/MOL
REMARK 922        TOTAL FREE ENERGY PREDICTED BY IDOCK:   -7.74 KCAL/MOL
REMARK 923 INTER-LIGAND FREE ENERGY PREDICTED BY IDOCK:   -7.00 KCAL/MOL
REMARK 924 INTRA-LIGAND FREE ENERGY PREDICTED BY IDOCK:   -0.74 KCAL/MOL
REMARK 927      BINDING AFFINITY PREDICTED BY RF-SCORE:    0.00 PKD
ROOT
HETATM    1  C   UNL     1      -6.487  11.707  67.173  1.00  0.00    -0.137 C  
HETATM    2  C   UNL     1      -7.038  10.723  68.220  1.00  0.00    -0.078 C  
HETATM    3  C   UNL     1      -6.556  11.177  69.611  1.00  0.00    -0.139 C  
HETATM    4  C   UNL     1      -6.488   9.310  67.956  1.00  0.00    -0.059 C  
HETATM    5  N   UNL     1      -8.512  10.714  68.258  1.00  0.00    -0.122 NA 
HETATM    6  H   UNL     1      -8.859  11.611  68.597  1.00  0.00     0.000 HD 
ENDROOT
BRANCH   5   7
HETATM    7  C   UNL     1      -9.169  10.364  66.993  1.00  0.00    -0.147 C  
BRANCH   7   8
HETATM    8  C   UNL     1     -10.561   9.750  67.232  1.00  0.00    -0.255 C  
HETATM    9  H   UNL     1     -11.295   7.970  67.654  1.00  0.00     0.000 HD 
HETATM   10  O   UNL     1     -10.436   8.349  67.506  1.00  0.00    -0.249 OA 
BRANCH   8  11
HETATM   11  C   UNL     1     -11.255  10.459  68.405  1.00  0.00    -0.258 C  
BRANCH  11  12
HETATM   12  O   UNL     1     -12.222  11.407  67.908  1.00  0.00    -0.592 OA 
BRANCH  12  13
HETATM   13  C   UNL     1     -11.900  12.722  68.157  1.00  0.00    -0.324 A  
HETATM   14  C   UNL     1     -11.673  13.202  69.452  1.00  0.00    -0.386 A  
HETATM   15  C   UNL     1     -11.301  14.525  69.662  1.00  0.00    -0.314 A  
HETATM   16  C   UNL     1     -11.157  15.383  68.579  1.00  0.00    -0.295 A  
HETATM   17  C   UNL     1     -11.416  14.936  67.276  1.00  0.00    -0.350 A  
HETATM   18  C   UNL     1     -11.842  13.604  67.061  1.00  0.00    -0.448 A  
HETATM   19  C   UNL     1     -12.180  13.121  65.666  1.00  0.00    -0.521 C  
HETATM   20  C   UNL     1     -12.350  14.257  64.650  1.00  0.00    -0.415 C  
HETATM   21  C   UNL     1     -11.209  15.280  64.766  1.00  0.00    -0.396 C  
HETATM   22  O   UNL     1     -12.403  13.730  63.323  1.00  0.00    -1.069 OA 
HETATM   23  H   UNL     1     -12.508  14.434  62.693  1.00  0.00     0.000 HD 
HETATM   24  O   UNL     1      -9.918  14.698  64.543  1.00  0.00    -0.540 OA 
HETATM   25  C   UNL     1     -11.252  15.933  66.148  1.00  0.00     0.091 C  
HETATM   26  H   UNL     1      -9.212  15.330  64.615  1.00  0.00     0.000 HD 
ENDBRANCH  12  13
ENDBRANCH  11  12
ENDBRANCH   8  11
ENDBRANCH   7   8
ENDBRANCH   5   7
TORSDOF 5
ENDMDL
MODEL       72
REMARK 921   NORMALIZED FREE ENERGY PREDICTED BY IDOCK:   -5.43 KCAL/MOL
REMARK 922        TOTAL FREE ENERGY PREDICTED BY IDOCK:   -7.74 KCAL/MOL
REMARK 923 INTER-LIGAND FREE ENERGY PREDICTED BY IDOCK:   -7.12 KCAL/MOL
REMARK 924 INTRA-LIGAND FREE ENERGY PREDICTED BY IDOCK:   -0.61 KCAL/MOL
REMARK 927      BINDING AFFINITY PREDICTED BY RF-SCORE:    0.00 PKD
ROOT
HETATM    1  C   UNL     1     -10.868  10.225  68.160  1.00  0.00    -0.312 C  
HETATM    2  C   UNL     1      -9.898  10.797  67.109  1.00  0.00    -0.185 C  
HETATM    3  C   UNL     1      -8.919   9.681  66.698  1.00  0.00    -0.166 C  
HETATM    4  C   UNL     1      -9.084  11.953  67.718  1.00  0.00    -0.180 C  
HETATM    5  N   UNL     1     -10.593  11.232  65.884  1.00  0.00    -0.262 NA 
HETATM    6  H   UNL     1     -10.989  10.426  65.401  1.00  0.00     0.000 HD 
ENDROOT
BRANCH   5   7
HETATM    7  C   UNL     1     -11.624  12.258  66.080  1.00  0.00    -0.390 C  
BRANCH   7   8
HETATM    8  C   UNL     1     -11.612  13.293  64.940  1.00  0.00    -0.325 C  
HETATM    9  H   UNL     1     -12.908  14.507  64.085  1.00  0.00     0.000 HD 
HETATM   10  O   UNL     1     -12.916  13.869  64.788  1.00  0.00    -0.686 OA 
BRANCH   8  11
HETATM   11  C   UNL     1     -10.580  14.392  65.236  1.00  0.00    -0.382 C  
BRANCH  11  12
HETATM   12  O   UNL     1     -11.247  15.585  65.699  1.00  0.00    -0.269 OA 
BRANCH  12  13
HETATM   13  C   UNL     1     -10.954  15.924  67.000  1.00  0.00    -0.189 A  
HETATM   14  C   UNL     1     -11.080  15.014  68.056  1.00  0.00    -0.304 A  
HETATM   15  C   UNL     1     -10.726  15.377  69.351  1.00  0.00    -0.258 A  
HETATM   16  C   UNL     1     -10.249  16.657  69.604  1.00  0.00    -0.124 A  
HETATM   17  C   UNL     1     -10.150  17.598  68.571  1.00  0.00    -0.375 A  
HETATM   18  C   UNL     1     -10.553  17.249  67.260  1.00  0.00    -0.283 A  
HETATM   19  C   UNL     1     -10.505  18.272  66.144  1.00  0.00    -0.403 C  
HETATM   20  C   UNL     1     -10.335  19.713  66.641  1.00  0.00    -0.486 C  
HETATM   21  C   UNL     1      -9.232  19.805  67.706  1.00  0.00    -0.338 C  
HETATM   22  O   UNL     1     -10.034  20.581  65.547  1.00  0.00    -0.533 OA 
HETATM   23  H   UNL     1      -9.929  21.474  65.855  1.00  0.00     0.000 HD 
HETATM   24  O   UNL     1      -7.955  19.367  67.221  1.00  0.00    -0.255 OA 
HETATM   25  C   UNL     1      -9.633  18.977  68.927  1.00  0.00    -0.417 C  
HETATM   26  H   UNL     1      -7.272  19.424  67.879  1.00  0.00     0.000 HD 
ENDBRANCH  12  13
ENDBRANCH  11  12
ENDBRANCH   8  11
ENDBRANCH   7   8
ENDBRANCH   5   7
TORSDOF 5
ENDMDL
MODEL       73
REMARK 921   NORMALIZED FREE ENERGY PREDICTED BY IDOCK:   -5.41 KCAL/MOL
REMARK 922        TOTAL FREE ENERGY PREDICTED BY IDOCK:   -7.72 KCAL/MOL
REMARK 923 INTER-LIGAND FREE ENERGY PREDICTED BY IDOCK:   -6.72 KCAL/MOL
REMARK 924 INTRA-LIGAND FREE ENERGY PREDICTED BY IDOCK:   -0.99 KCAL/MOL
REMARK 927      BINDING AFFINITY PREDICTED BY RF-SCORE:    0.00 PKD
ROOT
HETATM    1  C   UNL     1     -11.844  13.582  68.188  1.00  0.00    -0.400 C  
HETATM    2  C   UNL     1     -10.950  12.346  68.403  1.00  0.00    -0.241 C  
HETATM    3  C   UNL     1      -9.484  12.766  68.186  1.00  0.00    -0.219 C  
HETATM    4  C   UNL     1     -11.299  11.258  67.371  1.00  0.00    -0.349 C  
HETATM    5  N   UNL     1     -11.048  11.818  69.776  1.00  0.00    -0.475 NA 
HETATM    6  H   UNL     1     -10.657  12.488  70.438  1.00  0.00     0.000 HD 
ENDROOT
BRANCH   5   7
HETATM    7  C   UNL     1     -12.395  11.419  70.199  1.00  0.00    -0.266 C  
BRANCH   7   8
HETATM    8  C   UNL     1     -12.346  10.457  71.401  1.00  0.00    -0.397 C  
HETATM    9  H   UNL     1     -13.527   9.100  72.207  1.00  0.00     0.000 HD 
HETATM   10  O   UNL     1     -13.558   9.693  71.465  1.00  0.00    -0.361 OA 
BRANCH   8  11
HETATM   11  C   UNL     1     -11.136   9.519  71.276  1.00  0.00    -0.379 C  
BRANCH  11  12
HETATM   12  O   UNL     1     -11.189   8.807  70.022  1.00  0.00    -0.215 OA 
BRANCH  12  13
HETATM   13  C   UNL     1     -10.823   7.484  70.110  1.00  0.00    -0.249 A  
HETATM   14  C   UNL     1     -10.916   6.761  71.305  1.00  0.00    -0.288 A  
HETATM   15  C   UNL     1     -10.585   5.412  71.345  1.00  0.00    -0.282 A  
HETATM   16  C   UNL     1     -10.151   4.771  70.190  1.00  0.00    -0.310 A  
HETATM   17  C   UNL     1     -10.013   5.482  68.991  1.00  0.00    -0.244 A  
HETATM   18  C   UNL     1     -10.303   6.866  68.956  1.00  0.00    -0.203 A  
HETATM   19  C   UNL     1     -10.105   7.661  67.681  1.00  0.00    -0.249 C  
HETATM   20  C   UNL     1      -9.269   6.926  66.626  1.00  0.00    -0.157 C  
HETATM   21  C   UNL     1      -9.736   5.471  66.464  1.00  0.00    -0.162 C  
HETATM   22  O   UNL     1      -9.345   7.607  65.372  1.00  0.00    -0.338 OA 
HETATM   23  H   UNL     1      -8.828   7.152  64.718  1.00  0.00     0.000 HD 
HETATM   24  O   UNL     1     -11.111   5.370  66.066  1.00  0.00    -0.761 OA 
HETATM   25  C   UNL     1      -9.521   4.720  67.778  1.00  0.00    -0.180 C  
HETATM   26  H   UNL     1     -11.400   4.471  65.966  1.00  0.00     0.000 HD 
ENDBRANCH  12  13
ENDBRANCH  11  12
ENDBRANCH   8  11
ENDBRANCH   7   8
ENDBRANCH   5   7
TORSDOF 5
ENDMDL
MODEL       74
REMARK 921   NORMALIZED FREE ENERGY PREDICTED BY IDOCK:   -5.37 KCAL/MOL
REMARK 922        TOTAL FREE ENERGY PREDICTED BY IDOCK:   -7.67 KCAL/MOL
REMARK 923 INTER-LIGAND FREE ENERGY PREDICTED BY IDOCK:   -6.86 KCAL/MOL
REMARK 924 INTRA-LIGAND FREE ENERGY PREDICTED BY IDOCK:   -0.81 KCAL/MOL
REMARK 927      BINDING AFFINITY PREDICTED BY RF-SCORE:    0.00 PKD
ROOT
HETATM    1  C   UNL     1     -12.605  13.088  65.321  1.00  0.00    -0.516 C  
HETATM    2  C   UNL     1     -11.366  13.760  65.940  1.00  0.00    -0.307 C  
HETATM    3  C   UNL     1     -11.839  14.712  67.055  1.00  0.00    -0.358 C  
HETATM    4  C   UNL     1     -10.630  14.592  64.874  1.00  0.00    -0.450 C  
HETATM    5  N   UNL     1     -10.455  12.784  66.566  1.00  0.00    -0.260 NA 
HETATM    6  H   UNL     1     -10.901  12.358  67.378  1.00  0.00     0.000 HD 
ENDROOT
BRANCH   5   7
HETATM    7  C   UNL     1      -9.941  11.742  65.669  1.00  0.00    -0.240 C  
BRANCH   7   8
HETATM    8  C   UNL     1      -9.881  10.373  66.372  1.00  0.00    -0.213 C  
HETATM    9  H   UNL     1      -8.525   9.299  67.317  1.00  0.00     0.000 HD 
HETATM   10  O   UNL     1      -8.562  10.144  66.883  1.00  0.00    -0.125 OA 
BRANCH   8  11
HETATM   11  C   UNL     1     -10.907  10.322  67.514  1.00  0.00    -0.298 C  
BRANCH  11  12
HETATM   12  O   UNL     1     -10.268  10.647  68.767  1.00  0.00    -0.172 OA 
BRANCH  12  13
HETATM   13  C   UNL     1     -11.078  10.488  69.868  1.00  0.00    -0.307 A  
HETATM   14  C   UNL     1     -12.078  11.409  70.199  1.00  0.00    -0.439 A  
HETATM   15  C   UNL     1     -12.910  11.191  71.291  1.00  0.00    -0.515 A  
HETATM   16  C   UNL     1     -12.747  10.050  72.068  1.00  0.00    -0.439 A  
HETATM   17  C   UNL     1     -11.728   9.132  71.780  1.00  0.00    -0.456 A  
HETATM   18  C   UNL     1     -10.848   9.374  70.699  1.00  0.00    -0.346 A  
HETATM   19  C   UNL     1      -9.708   8.420  70.409  1.00  0.00    -0.185 C  
HETATM   20  C   UNL     1      -9.419   7.444  71.557  1.00  0.00    -0.151 C  
HETATM   21  C   UNL     1     -10.717   6.821  72.093  1.00  0.00    -0.220 C  
HETATM   22  O   UNL     1      -8.526   6.417  71.120  1.00  0.00    -0.122 OA 
HETATM   23  H   UNL     1      -8.348   5.813  71.831  1.00  0.00     0.000 HD 
HETATM   24  O   UNL     1     -11.442   6.097  71.088  1.00  0.00    -0.302 OA 
HETATM   25  C   UNL     1     -11.603   7.920  72.679  1.00  0.00    -0.435 C  
HETATM   26  H   UNL     1     -12.244   5.711  71.420  1.00  0.00     0.000 HD 
ENDBRANCH  12  13
ENDBRANCH  11  12
ENDBRANCH   8  11
ENDBRANCH   7   8
ENDBRANCH   5   7
TORSDOF 5
ENDMDL
MODEL       75
REMARK 921   NORMALIZED FREE ENERGY PREDICTED BY IDOCK:   -5.37 KCAL/MOL
REMARK 922        TOTAL FREE ENERGY PREDICTED BY IDOCK:   -7.66 KCAL/MOL
REMARK 923 INTER-LIGAND FREE ENERGY PREDICTED BY IDOCK:   -6.98 KCAL/MOL
REMARK 924 INTRA-LIGAND FREE ENERGY PREDICTED BY IDOCK:   -0.68 KCAL/MOL
REMARK 927      BINDING AFFINITY PREDICTED BY RF-SCORE:    0.00 PKD
ROOT
HETATM    1  C   UNL     1      -9.130   7.419  70.021  1.00  0.00    -0.148 C  
HETATM    2  C   UNL     1     -10.571   7.409  69.480  1.00  0.00    -0.237 C  
HETATM    3  C   UNL     1     -11.241   6.091  69.914  1.00  0.00    -0.438 C  
HETATM    4  C   UNL     1     -10.557   7.459  67.942  1.00  0.00    -0.255 C  
HETATM    5  N   UNL     1     -11.384   8.507  70.034  1.00  0.00    -0.450 NA 
HETATM    6  H   UNL     1     -11.525   8.369  71.034  1.00  0.00     0.000 HD 
ENDROOT
BRANCH   5   7
HETATM    7  C   UNL     1     -10.869   9.857  69.779  1.00  0.00    -0.269 C  
BRANCH   7   8
HETATM    8  C   UNL     1     -12.013  10.873  69.604  1.00  0.00    -0.343 C  
HETATM    9  H   UNL     1     -12.888  12.258  70.701  1.00  0.00     0.000 HD 
HETATM   10  O   UNL     1     -12.182  11.631  70.809  1.00  0.00    -0.375 OA 
BRANCH   8  11
HETATM   11  C   UNL     1     -11.709  11.812  68.427  1.00  0.00    -0.325 C  
BRANCH  11  12
HETATM   12  O   UNL     1     -10.834  11.158  67.486  1.00  0.00    -0.219 OA 
BRANCH  12  13
HETATM   13  C   UNL     1     -11.008  11.561  66.182  1.00  0.00    -0.266 A  
HETATM   14  C   UNL     1     -11.938  12.543  65.821  1.00  0.00    -0.482 A  
HETATM   15  C   UNL     1     -12.051  12.961  64.500  1.00  0.00    -0.473 A  
HETATM   16  C   UNL     1     -11.239  12.398  63.524  1.00  0.00    -0.540 A  
HETATM   17  C   UNL     1     -10.326  11.387  63.854  1.00  0.00    -0.434 A  
HETATM   18  C   UNL     1     -10.240  10.923  65.188  1.00  0.00    -0.360 A  
HETATM   19  C   UNL     1      -9.299   9.793  65.549  1.00  0.00    -0.299 C  
HETATM   20  C   UNL     1      -8.769   9.025  64.332  1.00  0.00    -0.118 C  
HETATM   21  C   UNL     1      -8.296   9.988  63.232  1.00  0.00    -0.168 C  
HETATM   22  O   UNL     1      -7.699   8.161  64.720  1.00  0.00    -0.107 OA 
HETATM   23  H   UNL     1      -7.371   7.685  63.966  1.00  0.00     0.000 HD 
HETATM   24  O   UNL     1      -7.249  10.864  63.674  1.00  0.00    -0.317 OA 
HETATM   25  C   UNL     1      -9.484  10.811  62.734  1.00  0.00    -0.358 C  
HETATM   26  H   UNL     1      -6.957  11.460  62.994  1.00  0.00     0.000 HD 
ENDBRANCH  12  13
ENDBRANCH  11  12
ENDBRANCH   8  11
ENDBRANCH   7   8
ENDBRANCH   5   7
TORSDOF 5
ENDMDL
MODEL       76
REMARK 921   NORMALIZED FREE ENERGY PREDICTED BY IDOCK:   -5.36 KCAL/MOL
REMARK 922        TOTAL FREE ENERGY PREDICTED BY IDOCK:   -7.65 KCAL/MOL
REMARK 923 INTER-LIGAND FREE ENERGY PREDICTED BY IDOCK:   -6.95 KCAL/MOL
REMARK 924 INTRA-LIGAND FREE ENERGY PREDICTED BY IDOCK:   -0.70 KCAL/MOL
REMARK 927      BINDING AFFINITY PREDICTED BY RF-SCORE:    0.00 PKD
ROOT
HETATM    1  C   UNL     1     -13.574  15.524  71.030  1.00  0.00    -0.377 C  
HETATM    2  C   UNL     1     -12.591  14.668  71.849  1.00  0.00    -0.339 C  
HETATM    3  C   UNL     1     -13.076  14.639  73.310  1.00  0.00    -0.505 C  
HETATM    4  C   UNL     1     -11.188  15.302  71.818  1.00  0.00    -0.364 C  
HETATM    5  N   UNL     1     -12.545  13.269  71.383  1.00  0.00    -0.317 NA 
HETATM    6  H   UNL     1     -13.438  12.811  71.564  1.00  0.00     0.000 HD 
ENDROOT
BRANCH   5   7
HETATM    7  C   UNL     1     -12.161  13.090  69.978  1.00  0.00    -0.236 C  
BRANCH   7   8
HETATM    8  C   UNL     1     -11.619  11.672  69.720  1.00  0.00    -0.315 C  
HETATM    9  H   UNL     1     -11.994   9.847  70.366  1.00  0.00     0.000 HD 
HETATM   10  O   UNL     1     -12.329  10.722  70.526  1.00  0.00    -0.312 OA 
BRANCH   8  11
HETATM   11  C   UNL     1     -11.763  11.315  68.233  1.00  0.00    -0.274 C  
BRANCH  11  12
HETATM   12  O   UNL     1     -10.640  11.833  67.489  1.00  0.00    -0.203 OA 
BRANCH  12  13
HETATM   13  C   UNL     1     -10.978  12.775  66.544  1.00  0.00    -0.262 A  
HETATM   14  C   UNL     1     -11.853  12.494  65.488  1.00  0.00    -0.491 A  
HETATM   15  C   UNL     1     -12.210  13.485  64.582  1.00  0.00    -0.450 A  
HETATM   16  C   UNL     1     -11.691  14.767  64.717  1.00  0.00    -0.422 A  
HETATM   17  C   UNL     1     -10.784  15.063  65.743  1.00  0.00    -0.351 A  
HETATM   18  C   UNL     1     -10.380  14.047  66.640  1.00  0.00    -0.278 A  
HETATM   19  C   UNL     1      -9.357  14.337  67.720  1.00  0.00    -0.198 C  
HETATM   20  C   UNL     1      -8.599  15.653  67.506  1.00  0.00    -0.172 C  
HETATM   21  C   UNL     1      -9.563  16.795  67.147  1.00  0.00    -0.236 C  
HETATM   22  O   UNL     1      -7.855  15.990  68.679  1.00  0.00    -0.158 OA 
HETATM   23  H   UNL     1      -7.386  16.805  68.547  1.00  0.00     0.000 HD 
HETATM   24  O   UNL     1     -10.549  17.029  68.162  1.00  0.00    -0.339 OA 
HETATM   25  C   UNL     1     -10.251  16.479  65.819  1.00  0.00    -0.350 C  
HETATM   26  H   UNL     1     -11.145  17.735  67.940  1.00  0.00     0.000 HD 
ENDBRANCH  12  13
ENDBRANCH  11  12
ENDBRANCH   8  11
ENDBRANCH   7   8
ENDBRANCH   5   7
TORSDOF 5
ENDMDL
MODEL       77
REMARK 921   NORMALIZED FREE ENERGY PREDICTED BY IDOCK:   -5.34 KCAL/MOL
REMARK 922        TOTAL FREE ENERGY PREDICTED BY IDOCK:   -7.62 KCAL/MOL
REMARK 923 INTER-LIGAND FREE ENERGY PREDICTED BY IDOCK:   -6.95 KCAL/MOL
REMARK 924 INTRA-LIGAND FREE ENERGY PREDICTED BY IDOCK:   -0.68 KCAL/MOL
REMARK 927      BINDING AFFINITY PREDICTED BY RF-SCORE:    0.00 PKD
ROOT
HETATM    1  C   UNL     1     -11.664  10.583  70.529  1.00  0.00    -0.443 C  
HETATM    2  C   UNL     1     -10.901  10.026  69.313  1.00  0.00    -0.230 C  
HETATM    3  C   UNL     1     -10.857   8.491  69.433  1.00  0.00    -0.103 C  
HETATM    4  C   UNL     1      -9.455  10.552  69.311  1.00  0.00    -0.191 C  
HETATM    5  N   UNL     1     -11.575  10.338  68.039  1.00  0.00    -0.698 NA 
HETATM    6  H   UNL     1     -12.466   9.845  67.984  1.00  0.00     0.000 HD 
ENDROOT
BRANCH   5   7
HETATM    7  C   UNL     1     -11.772  11.767  67.769  1.00  0.00    -0.267 C  
BRANCH   7   8
HETATM    8  C   UNL     1     -11.439  12.115  66.306  1.00  0.00    -0.374 C  
HETATM    9  H   UNL     1     -12.301  13.093  64.827  1.00  0.00     0.000 HD 
HETATM   10  O   UNL     1     -12.507  12.878  65.730  1.00  0.00    -0.531 OA 
BRANCH   8  11
HETATM   11  C   UNL     1     -10.125  12.909  66.240  1.00  0.00    -0.276 C  
BRANCH  11  12
HETATM   12  O   UNL     1     -10.401  14.325  66.282  1.00  0.00    -0.280 OA 
BRANCH  12  13
HETATM   13  C   UNL     1      -9.724  15.000  67.271  1.00  0.00    -0.220 A  
HETATM   14  C   UNL     1      -9.136  14.342  68.358  1.00  0.00    -0.194 A  
HETATM   15  C   UNL     1      -8.417  15.052  69.312  1.00  0.00    -0.167 A  
HETATM   16  C   UNL     1      -8.283  16.430  69.193  1.00  0.00    -0.189 A  
HETATM   17  C   UNL     1      -8.894  17.117  68.136  1.00  0.00    -0.237 A  
HETATM   18  C   UNL     1      -9.667  16.405  67.188  1.00  0.00    -0.241 A  
HETATM   19  C   UNL     1     -10.380  17.140  66.072  1.00  0.00    -0.317 C  
HETATM   20  C   UNL     1     -10.463  18.655  66.291  1.00  0.00    -0.424 C  
HETATM   21  C   UNL     1      -9.106  19.226  66.733  1.00  0.00    -0.323 C  
HETATM   22  O   UNL     1     -10.902  19.305  65.096  1.00  0.00    -0.445 OA 
HETATM   23  H   UNL     1     -10.953  20.244  65.232  1.00  0.00     0.000 HD 
HETATM   24  O   UNL     1      -8.066  18.989  65.774  1.00  0.00    -0.459 OA 
HETATM   25  C   UNL     1      -8.715  18.620  68.080  1.00  0.00    -0.336 C  
HETATM   26  H   UNL     1      -7.227  19.341  66.046  1.00  0.00     0.000 HD 
ENDBRANCH  12  13
ENDBRANCH  11  12
ENDBRANCH   8  11
ENDBRANCH   7   8
ENDBRANCH   5   7
TORSDOF 5
ENDMDL
MODEL       78
REMARK 921   NORMALIZED FREE ENERGY PREDICTED BY IDOCK:   -5.34 KCAL/MOL
REMARK 922        TOTAL FREE ENERGY PREDICTED BY IDOCK:   -7.62 KCAL/MOL
REMARK 923 INTER-LIGAND FREE ENERGY PREDICTED BY IDOCK:   -6.86 KCAL/MOL
REMARK 924 INTRA-LIGAND FREE ENERGY PREDICTED BY IDOCK:   -0.76 KCAL/MOL
REMARK 927      BINDING AFFINITY PREDICTED BY RF-SCORE:    0.00 PKD
ROOT
HETATM    1  C   UNL     1      -6.577  16.843  66.877  1.00  0.00    -0.249 C  
HETATM    2  C   UNL     1      -6.816  17.709  68.128  1.00  0.00    -0.207 C  
HETATM    3  C   UNL     1      -5.715  18.784  68.189  1.00  0.00    -0.189 C  
HETATM    4  C   UNL     1      -6.714  16.841  69.395  1.00  0.00    -0.226 C  
HETATM    5  N   UNL     1      -8.108  18.418  68.079  1.00  0.00    -0.267 NA 
HETATM    6  H   UNL     1      -8.098  19.112  67.331  1.00  0.00     0.000 HD 
ENDROOT
BRANCH   5   7
HETATM    7  C   UNL     1      -9.290  17.557  67.953  1.00  0.00    -0.265 C  
BRANCH   7   8
HETATM    8  C   UNL     1     -10.126  17.927  66.714  1.00  0.00    -0.349 C  
HETATM    9  H   UNL     1      -9.976  19.177  65.197  1.00  0.00     0.000 HD 
HETATM   10  O   UNL     1      -9.460  18.949  65.961  1.00  0.00    -0.471 OA 
BRANCH   8  11
HETATM   11  C   UNL     1     -10.348  16.685  65.838  1.00  0.00    -0.340 C  
BRANCH  11  12
HETATM   12  O   UNL     1      -9.693  15.542  66.426  1.00  0.00    -0.247 OA 
BRANCH  12  13
HETATM   13  C   UNL     1     -10.268  14.334  66.100  1.00  0.00    -0.307 A  
HETATM   14  C   UNL     1     -10.297  13.852  64.786  1.00  0.00    -0.419 A  
HETATM   15  C   UNL     1     -10.841  12.605  64.502  1.00  0.00    -0.365 A  
HETATM   16  C   UNL     1     -11.367  11.829  65.527  1.00  0.00    -0.283 A  
HETATM   17  C   UNL     1     -11.383  12.306  66.845  1.00  0.00    -0.392 A  
HETATM   18  C   UNL     1     -10.875  13.594  67.133  1.00  0.00    -0.292 A  
HETATM   19  C   UNL     1     -10.936  14.146  68.542  1.00  0.00    -0.271 C  
HETATM   20  C   UNL     1     -11.874  13.361  69.467  1.00  0.00    -0.332 C  
HETATM   21  C   UNL     1     -11.646  11.847  69.331  1.00  0.00    -0.325 C  
HETATM   22  O   UNL     1     -11.684  13.765  70.824  1.00  0.00    -0.513 OA 
HETATM   23  H   UNL     1     -12.265  13.278  71.397  1.00  0.00     0.000 HD 
HETATM   24  O   UNL     1     -10.304  11.457  69.653  1.00  0.00    -0.432 OA 
HETATM   25  C   UNL     1     -11.985  11.409  67.907  1.00  0.00    -0.120 C  
HETATM   26  H   UNL     1     -10.163  10.521  69.569  1.00  0.00     0.000 HD 
ENDBRANCH  12  13
ENDBRANCH  11  12
ENDBRANCH   8  11
ENDBRANCH   7   8
ENDBRANCH   5   7
TORSDOF 5
ENDMDL
MODEL       79
REMARK 921   NORMALIZED FREE ENERGY PREDICTED BY IDOCK:   -5.30 KCAL/MOL
REMARK 922        TOTAL FREE ENERGY PREDICTED BY IDOCK:   -7.58 KCAL/MOL
REMARK 923 INTER-LIGAND FREE ENERGY PREDICTED BY IDOCK:   -6.90 KCAL/MOL
REMARK 924 INTRA-LIGAND FREE ENERGY PREDICTED BY IDOCK:   -0.68 KCAL/MOL
REMARK 927      BINDING AFFINITY PREDICTED BY RF-SCORE:    0.00 PKD
ROOT
HETATM    1  C   UNL     1      -8.740  16.077  66.353  1.00  0.00    -0.362 C  
HETATM    2  C   UNL     1      -8.560  15.167  67.583  1.00  0.00    -0.172 C  
HETATM    3  C   UNL     1      -8.340  16.062  68.817  1.00  0.00    -0.216 C  
HETATM    4  C   UNL     1      -7.316  14.278  67.403  1.00  0.00    -0.152 C  
HETATM    5  N   UNL     1      -9.757  14.349  67.852  1.00  0.00    -0.219 NA 
HETATM    6  H   UNL     1     -10.533  14.946  68.134  1.00  0.00     0.000 HD 
ENDROOT
BRANCH   5   7
HETATM    7  C   UNL     1     -10.171  13.466  66.756  1.00  0.00    -0.259 C  
BRANCH   7   8
HETATM    8  C   UNL     1     -11.635  13.015  66.918  1.00  0.00    -0.366 C  
HETATM    9  H   UNL     1     -12.766  11.537  66.268  1.00  0.00     0.000 HD 
HETATM   10  O   UNL     1     -11.862  11.815  66.168  1.00  0.00    -0.477 OA 
BRANCH   8  11
HETATM   11  C   UNL     1     -11.952  12.779  68.402  1.00  0.00    -0.231 C  
BRANCH  11  12
HETATM   12  O   UNL     1     -11.176  11.671  68.904  1.00  0.00    -0.208 OA 
BRANCH  12  13
HETATM   13  C   UNL     1     -11.747  11.023  69.975  1.00  0.00    -0.355 A  
HETATM   14  C   UNL     1     -12.649  11.658  70.837  1.00  0.00    -0.409 A  
HETATM   15  C   UNL     1     -13.245  10.958  71.880  1.00  0.00    -0.508 A  
HETATM   16  C   UNL     1     -12.941   9.616  72.075  1.00  0.00    -0.518 A  
HETATM   17  C   UNL     1     -12.012   8.969  71.249  1.00  0.00    -0.374 A  
HETATM   18  C   UNL     1     -11.367   9.689  70.217  1.00  0.00    -0.311 A  
HETATM   19  C   UNL     1     -10.320   9.018  69.352  1.00  0.00    -0.217 C  
HETATM   20  C   UNL     1      -9.816   7.686  69.922  1.00  0.00    -0.184 C  
HETATM   21  C   UNL     1     -10.986   6.808  70.391  1.00  0.00    -0.283 C  
HETATM   22  O   UNL     1      -9.042   6.990  68.943  1.00  0.00    -0.135 OA 
HETATM   23  H   UNL     1      -8.730   6.166  69.296  1.00  0.00     0.000 HD 
HETATM   24  O   UNL     1     -11.907   6.499  69.336  1.00  0.00    -0.636 OA 
HETATM   25  C   UNL     1     -11.722   7.509  71.532  1.00  0.00    -0.309 C  
HETATM   26  H   UNL     1     -12.630   5.956  69.626  1.00  0.00     0.000 HD 
ENDBRANCH  12  13
ENDBRANCH  11  12
ENDBRANCH   8  11
ENDBRANCH   7   8
ENDBRANCH   5   7
TORSDOF 5
ENDMDL
MODEL       80
REMARK 921   NORMALIZED FREE ENERGY PREDICTED BY IDOCK:   -5.30 KCAL/MOL
REMARK 922        TOTAL FREE ENERGY PREDICTED BY IDOCK:   -7.58 KCAL/MOL
REMARK 923 INTER-LIGAND FREE ENERGY PREDICTED BY IDOCK:   -6.36 KCAL/MOL
REMARK 924 INTRA-LIGAND FREE ENERGY PREDICTED BY IDOCK:   -1.21 KCAL/MOL
REMARK 927      BINDING AFFINITY PREDICTED BY RF-SCORE:    0.00 PKD
ROOT
HETATM    1  C   UNL     1     -11.291  11.499  67.375  1.00  0.00    -0.367 C  
HETATM    2  C   UNL     1     -10.833  12.739  68.167  1.00  0.00    -0.228 C  
HETATM    3  C   UNL     1     -11.784  12.925  69.364  1.00  0.00    -0.382 C  
HETATM    4  C   UNL     1     -10.923  13.993  67.279  1.00  0.00    -0.303 C  
HETATM    5  N   UNL     1      -9.475  12.580  68.717  1.00  0.00    -0.411 NA 
HETATM    6  H   UNL     1      -9.468  11.851  69.430  1.00  0.00     0.000 HD 
ENDROOT
BRANCH   5   7
HETATM    7  C   UNL     1      -8.423  12.326  67.725  1.00  0.00    -0.163 C  
BRANCH   7   8
HETATM    8  C   UNL     1      -7.441  11.244  68.211  1.00  0.00    -0.099 C  
HETATM    9  H   UNL     1      -6.411  10.866  69.849  1.00  0.00     0.000 HD 
HETATM   10  O   UNL     1      -7.017  11.534  69.549  1.00  0.00    -0.107 OA 
BRANCH   8  11
HETATM   11  C   UNL     1      -8.110   9.862  68.156  1.00  0.00    -0.104 C  
BRANCH  11  12
HETATM   12  O   UNL     1      -8.911   9.653  69.337  1.00  0.00    -0.153 OA 
BRANCH  12  13
HETATM   13  C   UNL     1      -9.600   8.462  69.345  1.00  0.00    -0.170 A  
HETATM   14  C   UNL     1      -9.181   7.351  68.603  1.00  0.00    -0.143 A  
HETATM   15  C   UNL     1      -9.875   6.149  68.675  1.00  0.00    -0.160 A  
HETATM   16  C   UNL     1     -10.998   6.045  69.487  1.00  0.00    -0.467 A  
HETATM   17  C   UNL     1     -11.459   7.153  70.210  1.00  0.00    -0.287 A  
HETATM   18  C   UNL     1     -10.786   8.393  70.103  1.00  0.00    -0.238 A  
HETATM   19  C   UNL     1     -11.304   9.614  70.834  1.00  0.00    -0.431 C  
HETATM   20  C   UNL     1     -12.735   9.451  71.360  1.00  0.00    -0.345 C  
HETATM   21  C   UNL     1     -12.915   8.098  72.067  1.00  0.00    -0.305 C  
HETATM   22  O   UNL     1     -13.059  10.518  72.253  1.00  0.00    -0.537 OA 
HETATM   23  H   UNL     1     -13.945  10.417  72.579  1.00  0.00     0.000 HD 
HETATM   24  O   UNL     1     -12.029   7.934  73.183  1.00  0.00    -0.662 OA 
HETATM   25  C   UNL     1     -12.698   6.968  71.062  1.00  0.00    -0.300 C  
HETATM   26  H   UNL     1     -12.139   7.098  73.620  1.00  0.00     0.000 HD 
ENDBRANCH  12  13
ENDBRANCH  11  12
ENDBRANCH   8  11
ENDBRANCH   7   8
ENDBRANCH   5   7
TORSDOF 5
ENDMDL
MODEL       81
REMARK 921   NORMALIZED FREE ENERGY PREDICTED BY IDOCK:   -5.29 KCAL/MOL
REMARK 922        TOTAL FREE ENERGY PREDICTED BY IDOCK:   -7.56 KCAL/MOL
REMARK 923 INTER-LIGAND FREE ENERGY PREDICTED BY IDOCK:   -6.30 KCAL/MOL
REMARK 924 INTRA-LIGAND FREE ENERGY PREDICTED BY IDOCK:   -1.26 KCAL/MOL
REMARK 927      BINDING AFFINITY PREDICTED BY RF-SCORE:    0.00 PKD
ROOT
HETATM    1  C   UNL     1      -9.097   9.601  68.821  1.00  0.00    -0.134 C  
HETATM    2  C   UNL     1     -10.312   9.197  67.966  1.00  0.00    -0.222 C  
HETATM    3  C   UNL     1     -10.636   7.719  68.255  1.00  0.00    -0.169 C  
HETATM    4  C   UNL     1      -9.974   9.335  66.471  1.00  0.00    -0.344 C  
HETATM    5  N   UNL     1     -11.518   9.976  68.306  1.00  0.00    -0.583 NA 
HETATM    6  H   UNL     1     -11.828   9.747  69.250  1.00  0.00     0.000 HD 
ENDROOT
BRANCH   5   7
HETATM    7  C   UNL     1     -11.387  11.430  68.157  1.00  0.00    -0.304 C  
BRANCH   7   8
HETATM    8  C   UNL     1     -11.651  12.158  69.488  1.00  0.00    -0.315 C  
HETATM    9  H   UNL     1     -12.319  13.925  70.053  1.00  0.00     0.000 HD 
HETATM   10  O   UNL     1     -12.155  13.476  69.232  1.00  0.00    -0.322 OA 
BRANCH   8  11
HETATM   11  C   UNL     1     -12.657  11.362  70.333  1.00  0.00    -0.185 C  
BRANCH  11  12
HETATM   12  O   UNL     1     -11.961  10.592  71.335  1.00  0.00    -0.330 OA 
BRANCH  12  13
HETATM   13  C   UNL     1     -12.494   9.343  71.555  1.00  0.00    -0.366 A  
HETATM   14  C   UNL     1     -13.864   9.082  71.428  1.00  0.00    -0.302 A  
HETATM   15  C   UNL     1     -14.360   7.797  71.609  1.00  0.00    -0.607 A  
HETATM   16  C   UNL     1     -13.493   6.758  71.925  1.00  0.00    -0.126 A  
HETATM   17  C   UNL     1     -12.123   7.001  72.095  1.00  0.00    -0.281 A  
HETATM   18  C   UNL     1     -11.619   8.315  71.959  1.00  0.00    -0.403 A  
HETATM   19  C   UNL     1     -10.151   8.603  72.195  1.00  0.00    -0.388 C  
HETATM   20  C   UNL     1      -9.410   7.463  72.902  1.00  0.00    -0.164 C  
HETATM   21  C   UNL     1      -9.751   6.104  72.271  1.00  0.00    -0.155 C  
HETATM   22  O   UNL     1      -7.999   7.685  72.854  1.00  0.00    -0.096 OA 
HETATM   23  H   UNL     1      -7.540   6.978  73.293  1.00  0.00     0.000 HD 
HETATM   24  O   UNL     1      -9.409   6.038  70.880  1.00  0.00    -0.158 OA 
HETATM   25  C   UNL     1     -11.242   5.821  72.452  1.00  0.00    -0.343 C  
HETATM   26  H   UNL     1      -9.620   5.197  70.489  1.00  0.00     0.000 HD 
ENDBRANCH  12  13
ENDBRANCH  11  12
ENDBRANCH   8  11
ENDBRANCH   7   8
ENDBRANCH   5   7
TORSDOF 5
ENDMDL
MODEL       82
REMARK 921   NORMALIZED FREE ENERGY PREDICTED BY IDOCK:   -5.26 KCAL/MOL
REMARK 922        TOTAL FREE ENERGY PREDICTED BY IDOCK:   -7.52 KCAL/MOL
REMARK 923 INTER-LIGAND FREE ENERGY PREDICTED BY IDOCK:   -6.83 KCAL/MOL
REMARK 924 INTRA-LIGAND FREE ENERGY PREDICTED BY IDOCK:   -0.69 KCAL/MOL
REMARK 927      BINDING AFFINITY PREDICTED BY RF-SCORE:    0.00 PKD
ROOT
HETATM    1  C   UNL     1     -11.159  15.915  68.690  1.00  0.00    -0.337 C  
HETATM    2  C   UNL     1     -10.736  14.472  68.355  1.00  0.00    -0.243 C  
HETATM    3  C   UNL     1      -9.280  14.500  67.854  1.00  0.00    -0.196 C  
HETATM    4  C   UNL     1     -11.623  13.912  67.228  1.00  0.00    -0.393 C  
HETATM    5  N   UNL     1     -10.768  13.592  69.537  1.00  0.00    -0.436 NA 
HETATM    6  H   UNL     1     -10.055  13.879  70.207  1.00  0.00     0.000 HD 
ENDROOT
BRANCH   5   7
HETATM    7  C   UNL     1     -12.072  13.484  70.202  1.00  0.00    -0.354 C  
BRANCH   7   8
HETATM    8  C   UNL     1     -12.213  12.144  70.949  1.00  0.00    -0.211 C  
HETATM    9  H   UNL     1     -13.494  11.326  72.205  1.00  0.00     0.000 HD 
HETATM   10  O   UNL     1     -13.406  12.152  71.744  1.00  0.00    -0.407 OA 
BRANCH   8  11
HETATM   11  C   UNL     1     -12.256  10.983  69.944  1.00  0.00    -0.336 C  
BRANCH  11  12
HETATM   12  O   UNL     1     -10.972  10.326  69.892  1.00  0.00    -0.260 OA 
BRANCH  12  13
HETATM   13  C   UNL     1     -11.011   8.988  70.210  1.00  0.00    -0.244 A  
HETATM   14  C   UNL     1     -11.388   8.533  71.479  1.00  0.00    -0.348 A  
HETATM   15  C   UNL     1     -11.464   7.172  71.749  1.00  0.00    -0.301 A  
HETATM   16  C   UNL     1     -11.160   6.250  70.755  1.00  0.00    -0.377 A  
HETATM   17  C   UNL     1     -10.744   6.681  69.488  1.00  0.00    -0.305 A  
HETATM   18  C   UNL     1     -10.618   8.065  69.222  1.00  0.00    -0.193 A  
HETATM   19  C   UNL     1     -10.116   8.546  67.876  1.00  0.00    -0.258 C  
HETATM   20  C   UNL     1      -9.462   7.441  67.037  1.00  0.00    -0.158 C  
HETATM   21  C   UNL     1     -10.319   6.166  67.036  1.00  0.00    -0.237 C  
HETATM   22  O   UNL     1      -9.256   7.894  65.697  1.00  0.00    -0.388 OA 
HETATM   23  H   UNL     1      -8.851   7.210  65.177  1.00  0.00     0.000 HD 
HETATM   24  O   UNL     1     -11.635   6.382  66.507  1.00  0.00    -0.575 OA 
HETATM   25  C   UNL     1     -10.416   5.619  68.459  1.00  0.00    -0.273 C  
HETATM   26  H   UNL     1     -12.165   5.593  66.506  1.00  0.00     0.000 HD 
ENDBRANCH  12  13
ENDBRANCH  11  12
ENDBRANCH   8  11
ENDBRANCH   7   8
ENDBRANCH   5   7
TORSDOF 5
ENDMDL
MODEL       83
REMARK 921   NORMALIZED FREE ENERGY PREDICTED BY IDOCK:   -5.26 KCAL/MOL
REMARK 922        TOTAL FREE ENERGY PREDICTED BY IDOCK:   -7.52 KCAL/MOL
REMARK 923 INTER-LIGAND FREE ENERGY PREDICTED BY IDOCK:   -6.91 KCAL/MOL
REMARK 924 INTRA-LIGAND FREE ENERGY PREDICTED BY IDOCK:   -0.61 KCAL/MOL
REMARK 927      BINDING AFFINITY PREDICTED BY RF-SCORE:    0.00 PKD
ROOT
HETATM    1  C   UNL     1      -6.013  18.534  66.553  1.00  0.00    -0.181 C  
HETATM    2  C   UNL     1      -7.094  19.623  66.680  1.00  0.00    -0.217 C  
HETATM    3  C   UNL     1      -7.359  20.207  65.279  1.00  0.00    -0.094 C  
HETATM    4  C   UNL     1      -6.593  20.759  67.590  1.00  0.00    -0.390 C  
HETATM    5  N   UNL     1      -8.376  19.084  67.170  1.00  0.00    -0.274 NA 
HETATM    6  H   UNL     1      -8.780  18.455  66.477  1.00  0.00     0.000 HD 
ENDROOT
BRANCH   5   7
HETATM    7  C   UNL     1      -8.317  18.422  68.479  1.00  0.00    -0.323 C  
BRANCH   7   8
HETATM    8  C   UNL     1      -9.187  17.151  68.506  1.00  0.00    -0.264 C  
HETATM    9  H   UNL     1     -10.982  16.650  69.149  1.00  0.00     0.000 HD 
HETATM   10  O   UNL     1     -10.445  17.434  69.132  1.00  0.00    -0.341 OA 
BRANCH   8  11
HETATM   11  C   UNL     1      -9.411  16.635  67.077  1.00  0.00    -0.230 C  
BRANCH  11  12
HETATM   12  O   UNL     1     -10.752  16.120  66.942  1.00  0.00    -0.314 OA 
BRANCH  12  13
HETATM   13  C   UNL     1     -10.821  14.877  66.356  1.00  0.00    -0.325 A  
HETATM   14  C   UNL     1     -10.680  14.692  64.976  1.00  0.00    -0.448 A  
HETATM   15  C   UNL     1     -10.705  13.416  64.425  1.00  0.00    -0.423 A  
HETATM   16  C   UNL     1     -10.876  12.310  65.249  1.00  0.00    -0.332 A  
HETATM   17  C   UNL     1     -11.057  12.472  66.629  1.00  0.00    -0.327 A  
HETATM   18  C   UNL     1     -11.081  13.771  67.189  1.00  0.00    -0.315 A  
HETATM   19  C   UNL     1     -11.332  13.965  68.670  1.00  0.00    -0.310 C  
HETATM   20  C   UNL     1     -11.882  12.714  69.366  1.00  0.00    -0.296 C  
HETATM   21  C   UNL     1     -11.089  11.461  68.961  1.00  0.00    -0.243 C  
HETATM   22  O   UNL     1     -11.843  12.880  70.785  1.00  0.00    -0.494 OA 
HETATM   23  H   UNL     1     -12.184  12.105  71.216  1.00  0.00     0.000 HD 
HETATM   24  O   UNL     1      -9.696  11.556  69.289  1.00  0.00    -0.407 OA 
HETATM   25  C   UNL     1     -11.252  11.220  67.461  1.00  0.00    -0.357 C  
HETATM   26  H   UNL     1      -9.206  10.781  69.039  1.00  0.00     0.000 HD 
ENDBRANCH  12  13
ENDBRANCH  11  12
ENDBRANCH   8  11
ENDBRANCH   7   8
ENDBRANCH   5   7
TORSDOF 5
ENDMDL
MODEL       84
REMARK 921   NORMALIZED FREE ENERGY PREDICTED BY IDOCK:   -5.23 KCAL/MOL
REMARK 922        TOTAL FREE ENERGY PREDICTED BY IDOCK:   -7.49 KCAL/MOL
REMARK 923 INTER-LIGAND FREE ENERGY PREDICTED BY IDOCK:   -7.48 KCAL/MOL
REMARK 924 INTRA-LIGAND FREE ENERGY PREDICTED BY IDOCK:   -0.01 KCAL/MOL
REMARK 927      BINDING AFFINITY PREDICTED BY RF-SCORE:    0.00 PKD
ROOT
HETATM    1  C   UNL     1     -13.428  13.113  72.184  1.00  0.00    -0.653 C  
HETATM    2  C   UNL     1     -12.949  14.571  72.314  1.00  0.00    -0.361 C  
HETATM    3  C   UNL     1     -12.653  14.852  73.799  1.00  0.00    -0.584 C  
HETATM    4  C   UNL     1     -14.059  15.533  71.853  1.00  0.00    -0.586 C  
HETATM    5  N   UNL     1     -11.699  14.817  71.572  1.00  0.00    -0.447 NA 
HETATM    6  H   UNL     1     -10.932  14.296  71.996  1.00  0.00     0.000 HD 
ENDROOT
BRANCH   5   7
HETATM    7  C   UNL     1     -11.761  14.541  70.132  1.00  0.00    -0.297 C  
BRANCH   7   8
HETATM    8  C   UNL     1     -11.432  15.797  69.303  1.00  0.00    -0.365 C  
HETATM    9  H   UNL     1     -10.885  17.656  69.663  1.00  0.00     0.000 HD 
HETATM   10  O   UNL     1     -11.089  16.881  70.175  1.00  0.00    -0.111 OA 
BRANCH   8  11
HETATM   11  C   UNL     1     -10.271  15.503  68.341  1.00  0.00    -0.215 C  
BRANCH  11  12
HETATM   12  O   UNL     1     -10.443  16.247  67.116  1.00  0.00    -0.294 OA 
BRANCH  12  13
HETATM   13  C   UNL     1      -9.943  17.528  67.161  1.00  0.00    -0.314 A  
HETATM   14  C   UNL     1     -10.774  18.655  67.135  1.00  0.00    -0.433 A  
HETATM   15  C   UNL     1     -10.236  19.933  67.233  1.00  0.00    -0.572 A  
HETATM   16  C   UNL     1      -8.862  20.099  67.351  1.00  0.00    -0.440 A  
HETATM   17  C   UNL     1      -8.007  18.988  67.341  1.00  0.00    -0.272 A  
HETATM   18  C   UNL     1      -8.544  17.688  67.194  1.00  0.00    -0.238 A  
HETATM   19  C   UNL     1      -7.630  16.482  67.124  1.00  0.00    -0.214 C  
HETATM   20  C   UNL     1      -6.160  16.843  66.878  1.00  0.00    -0.188 C  
HETATM   21  C   UNL     1      -5.712  17.994  67.791  1.00  0.00    -0.152 C  
HETATM   22  O   UNL     1      -5.329  15.699  67.087  1.00  0.00    -0.332 OA 
HETATM   23  H   UNL     1      -4.418  15.923  66.934  1.00  0.00     0.000 HD 
HETATM   24  O   UNL     1      -5.847  17.682  69.184  1.00  0.00    -0.189 OA 
HETATM   25  C   UNL     1      -6.520  19.249  67.460  1.00  0.00    -0.218 C  
HETATM   26  H   UNL     1      -5.570  18.394  69.749  1.00  0.00     0.000 HD 
ENDBRANCH  12  13
ENDBRANCH  11  12
ENDBRANCH   8  11
ENDBRANCH   7   8
ENDBRANCH   5   7
TORSDOF 5
ENDMDL
MODEL       85
REMARK 921   NORMALIZED FREE ENERGY PREDICTED BY IDOCK:   -5.23 KCAL/MOL
REMARK 922        TOTAL FREE ENERGY PREDICTED BY IDOCK:   -7.48 KCAL/MOL
REMARK 923 INTER-LIGAND FREE ENERGY PREDICTED BY IDOCK:   -7.32 KCAL/MOL
REMARK 924 INTRA-LIGAND FREE ENERGY PREDICTED BY IDOCK:   -0.16 KCAL/MOL
REMARK 927      BINDING AFFINITY PREDICTED BY RF-SCORE:    0.00 PKD
ROOT
HETATM    1  C   UNL     1     -10.181   8.681  71.882  1.00  0.00    -0.404 C  
HETATM    2  C   UNL     1     -11.552   8.368  71.256  1.00  0.00    -0.283 C  
HETATM    3  C   UNL     1     -12.635   8.593  72.327  1.00  0.00    -0.457 C  
HETATM    4  C   UNL     1     -11.605   6.893  70.817  1.00  0.00    -0.397 C  
HETATM    5  N   UNL     1     -11.870   9.263  70.129  1.00  0.00    -0.462 NA 
HETATM    6  H   UNL     1     -11.996  10.218  70.464  1.00  0.00     0.000 HD 
ENDROOT
BRANCH   5   7
HETATM    7  C   UNL     1     -10.907   9.241  69.021  1.00  0.00    -0.111 C  
BRANCH   7   8
HETATM    8  C   UNL     1     -10.247  10.618  68.821  1.00  0.00    -0.190 C  
HETATM    9  H   UNL     1      -8.432  11.308  68.478  1.00  0.00     0.000 HD 
HETATM   10  O   UNL     1      -8.840  10.458  68.602  1.00  0.00    -0.127 OA 
BRANCH   8  11
HETATM   11  C   UNL     1     -10.889  11.342  67.628  1.00  0.00    -0.238 C  
BRANCH  11  12
HETATM   12  O   UNL     1     -12.093  12.016  68.048  1.00  0.00    -0.514 OA 
BRANCH  12  13
HETATM   13  C   UNL     1     -11.872  13.195  68.723  1.00  0.00    -0.324 A  
HETATM   14  C   UNL     1     -12.078  13.315  70.103  1.00  0.00    -0.403 A  
HETATM   15  C   UNL     1     -11.796  14.507  70.760  1.00  0.00    -0.367 A  
HETATM   16  C   UNL     1     -11.309  15.593  70.044  1.00  0.00    -0.341 A  
HETATM   17  C   UNL     1     -11.130  15.510  68.657  1.00  0.00    -0.297 A  
HETATM   18  C   UNL     1     -11.461  14.315  67.975  1.00  0.00    -0.342 A  
HETATM   19  C   UNL     1     -11.326  14.227  66.469  1.00  0.00    -0.351 C  
HETATM   20  C   UNL     1     -11.158  15.592  65.790  1.00  0.00    -0.217 C  
HETATM   21  C   UNL     1     -10.118  16.452  66.524  1.00  0.00    -0.295 C  
HETATM   22  O   UNL     1     -10.775  15.420  64.423  1.00  0.00    -0.599 OA 
HETATM   23  H   UNL     1     -10.671  16.265  64.002  1.00  0.00     0.000 HD 
HETATM   24  O   UNL     1      -8.823  15.837  66.573  1.00  0.00    -0.254 OA 
HETATM   25  C   UNL     1     -10.608  16.740  67.943  1.00  0.00    -0.350 C  
HETATM   26  H   UNL     1      -8.180  16.369  67.027  1.00  0.00     0.000 HD 
ENDBRANCH  12  13
ENDBRANCH  11  12
ENDBRANCH   8  11
ENDBRANCH   7   8
ENDBRANCH   5   7
TORSDOF 5
ENDMDL
MODEL       86
REMARK 921   NORMALIZED FREE ENERGY PREDICTED BY IDOCK:   -5.22 KCAL/MOL
REMARK 922        TOTAL FREE ENERGY PREDICTED BY IDOCK:   -7.48 KCAL/MOL
REMARK 923 INTER-LIGAND FREE ENERGY PREDICTED BY IDOCK:   -6.08 KCAL/MOL
REMARK 924 INTRA-LIGAND FREE ENERGY PREDICTED BY IDOCK:   -1.39 KCAL/MOL
REMARK 927      BINDING AFFINITY PREDICTED BY RF-SCORE:    0.00 PKD
ROOT
HETATM    1  C   UNL     1     -11.940  13.165  63.352  1.00  0.00    -0.552 C  
HETATM    2  C   UNL     1     -11.561  13.370  64.830  1.00  0.00    -0.339 C  
HETATM    3  C   UNL     1     -12.765  14.000  65.555  1.00  0.00    -0.517 C  
HETATM    4  C   UNL     1     -10.370  14.340  64.939  1.00  0.00    -0.429 C  
HETATM    5  N   UNL     1     -11.266  12.097  65.513  1.00  0.00    -0.324 NA 
HETATM    6  H   UNL     1     -12.111  11.532  65.580  1.00  0.00     0.000 HD 
ENDROOT
BRANCH   5   7
HETATM    7  C   UNL     1     -10.177  11.309  64.924  1.00  0.00    -0.286 C  
BRANCH   7   8
HETATM    8  C   UNL     1      -9.664  10.238  65.905  1.00  0.00    -0.225 C  
HETATM    9  H   UNL     1      -8.725   8.508  65.784  1.00  0.00     0.000 HD 
HETATM   10  O   UNL     1      -9.042   9.169  65.179  1.00  0.00    -0.213 OA 
BRANCH   8  11
HETATM   11  C   UNL     1      -8.664  10.861  66.890  1.00  0.00    -0.144 C  
BRANCH  11  12
HETATM   12  O   UNL     1      -9.318  11.868  67.689  1.00  0.00    -0.175 OA 
BRANCH  12  13
HETATM   13  C   UNL     1      -8.592  13.027  67.838  1.00  0.00    -0.189 A  
HETATM   14  C   UNL     1      -7.233  13.104  67.513  1.00  0.00    -0.156 A  
HETATM   15  C   UNL     1      -6.544  14.306  67.630  1.00  0.00    -0.172 A  
HETATM   16  C   UNL     1      -7.205  15.443  68.078  1.00  0.00    -0.135 A  
HETATM   17  C   UNL     1      -8.556  15.382  68.445  1.00  0.00    -0.162 A  
HETATM   18  C   UNL     1      -9.250  14.151  68.375  1.00  0.00    -0.203 A  
HETATM   19  C   UNL     1     -10.695  14.057  68.821  1.00  0.00    -0.272 C  
HETATM   20  C   UNL     1     -11.162  15.267  69.640  1.00  0.00    -0.278 C  
HETATM   21  C   UNL     1     -10.732  16.584  68.975  1.00  0.00    -0.332 C  
HETATM   22  O   UNL     1     -12.582  15.238  69.798  1.00  0.00    -0.577 OA 
HETATM   23  H   UNL     1     -12.872  15.988  70.304  1.00  0.00     0.000 HD 
HETATM   24  O   UNL     1     -11.259  16.736  67.650  1.00  0.00    -0.159 OA 
HETATM   25  C   UNL     1      -9.206  16.659  68.937  1.00  0.00    -0.244 C  
HETATM   26  H   UNL     1     -10.994  17.550  67.239  1.00  0.00     0.000 HD 
ENDBRANCH  12  13
ENDBRANCH  11  12
ENDBRANCH   8  11
ENDBRANCH   7   8
ENDBRANCH   5   7
TORSDOF 5
ENDMDL
MODEL       87
REMARK 921   NORMALIZED FREE ENERGY PREDICTED BY IDOCK:   -5.22 KCAL/MOL
REMARK 922        TOTAL FREE ENERGY PREDICTED BY IDOCK:   -7.47 KCAL/MOL
REMARK 923 INTER-LIGAND FREE ENERGY PREDICTED BY IDOCK:   -7.04 KCAL/MOL
REMARK 924 INTRA-LIGAND FREE ENERGY PREDICTED BY IDOCK:   -0.44 KCAL/MOL
REMARK 927      BINDING AFFINITY PREDICTED BY RF-SCORE:    0.00 PKD
ROOT
HETATM    1  C   UNL     1     -11.936  14.579  65.981  1.00  0.00    -0.319 C  
HETATM    2  C   UNL     1     -10.816  14.846  67.003  1.00  0.00    -0.315 C  
HETATM    3  C   UNL     1     -10.070  16.126  66.579  1.00  0.00    -0.301 C  
HETATM    4  C   UNL     1      -9.812  13.679  67.000  1.00  0.00    -0.251 C  
HETATM    5  N   UNL     1     -11.342  15.085  68.359  1.00  0.00    -0.295 NA 
HETATM    6  H   UNL     1     -11.871  15.956  68.382  1.00  0.00     0.000 HD 
ENDROOT
BRANCH   5   7
HETATM    7  C   UNL     1     -12.145  13.992  68.920  1.00  0.00    -0.316 C  
BRANCH   7   8
HETATM    8  C   UNL     1     -11.950  13.874  70.443  1.00  0.00    -0.323 C  
HETATM    9  H   UNL     1     -12.397  14.943  72.038  1.00  0.00     0.000 HD 
HETATM   10  O   UNL     1     -12.517  15.016  71.098  1.00  0.00    -0.288 OA 
BRANCH   8  11
HETATM   11  C   UNL     1     -12.609  12.586  70.960  1.00  0.00    -0.256 C  
BRANCH  11  12
HETATM   12  O   UNL     1     -11.802  11.443  70.611  1.00  0.00    -0.338 OA 
BRANCH  12  13
HETATM   13  C   UNL     1     -12.284  10.246  71.089  1.00  0.00    -0.397 A  
HETATM   14  C   UNL     1     -13.382  10.176  71.955  1.00  0.00    -0.492 A  
HETATM   15  C   UNL     1     -13.873   8.946  72.378  1.00  0.00    -0.518 A  
HETATM   16  C   UNL     1     -13.268   7.773  71.944  1.00  0.00    -0.300 A  
HETATM   17  C   UNL     1     -12.145   7.818  71.108  1.00  0.00    -0.306 A  
HETATM   18  C   UNL     1     -11.611   9.067  70.713  1.00  0.00    -0.313 A  
HETATM   19  C   UNL     1     -10.364   9.133  69.856  1.00  0.00    -0.229 C  
HETATM   20  C   UNL     1      -9.600   7.806  69.784  1.00  0.00    -0.167 C  
HETATM   21  C   UNL     1     -10.555   6.631  69.520  1.00  0.00    -0.241 C  
HETATM   22  O   UNL     1      -8.601   7.864  68.763  1.00  0.00    -0.128 OA 
HETATM   23  H   UNL     1      -8.128   7.042  68.719  1.00  0.00     0.000 HD 
HETATM   24  O   UNL     1     -11.282   6.772  68.292  1.00  0.00    -0.512 OA 
HETATM   25  C   UNL     1     -11.531   6.498  70.688  1.00  0.00    -0.433 C  
HETATM   26  H   UNL     1     -11.872   6.046  68.128  1.00  0.00     0.000 HD 
ENDBRANCH  12  13
ENDBRANCH  11  12
ENDBRANCH   8  11
ENDBRANCH   7   8
ENDBRANCH   5   7
TORSDOF 5
ENDMDL
MODEL       88
REMARK 921   NORMALIZED FREE ENERGY PREDICTED BY IDOCK:   -5.20 KCAL/MOL
REMARK 922        TOTAL FREE ENERGY PREDICTED BY IDOCK:   -7.44 KCAL/MOL
REMARK 923 INTER-LIGAND FREE ENERGY PREDICTED BY IDOCK:   -6.97 KCAL/MOL
REMARK 924 INTRA-LIGAND FREE ENERGY PREDICTED BY IDOCK:   -0.47 KCAL/MOL
REMARK 927      BINDING AFFINITY PREDICTED BY RF-SCORE:    0.00 PKD
ROOT
HETATM    1  C   UNL     1      -8.474  19.324  66.637  1.00  0.00    -0.329 C  
HETATM    2  C   UNL     1      -9.967  19.482  66.976  1.00  0.00    -0.378 C  
HETATM    3  C   UNL     1     -10.704  19.952  65.708  1.00  0.00    -0.423 C  
HETATM    4  C   UNL     1     -10.150  20.554  68.066  1.00  0.00    -0.264 C  
HETATM    5  N   UNL     1     -10.586  18.207  67.385  1.00  0.00    -0.405 NA 
HETATM    6  H   UNL     1     -10.607  17.560  66.597  1.00  0.00     0.000 HD 
ENDROOT
BRANCH   5   7
HETATM    7  C   UNL     1      -9.975  17.561  68.552  1.00  0.00    -0.344 C  
BRANCH   7   8
HETATM    8  C   UNL     1     -10.130  16.030  68.494  1.00  0.00    -0.233 C  
HETATM    9  H   UNL     1     -10.228  14.543  69.785  1.00  0.00     0.000 HD 
HETATM   10  O   UNL     1     -10.132  15.488  69.821  1.00  0.00    -0.270 OA 
BRANCH   8  11
HETATM   11  C   UNL     1     -11.433  15.660  67.770  1.00  0.00    -0.209 C  
BRANCH  11  12
HETATM   12  O   UNL     1     -11.956  14.422  68.293  1.00  0.00    -0.329 OA 
BRANCH  12  13
HETATM   13  C   UNL     1     -11.528  13.301  67.620  1.00  0.00    -0.321 A  
HETATM   14  C   UNL     1     -11.200  13.327  66.259  1.00  0.00    -0.321 A  
HETATM   15  C   UNL     1     -10.723  12.186  65.623  1.00  0.00    -0.312 A  
HETATM   16  C   UNL     1     -10.574  11.005  66.340  1.00  0.00    -0.308 A  
HETATM   17  C   UNL     1     -10.931  10.944  67.694  1.00  0.00    -0.350 A  
HETATM   18  C   UNL     1     -11.462  12.088  68.334  1.00  0.00    -0.356 A  
HETATM   19  C   UNL     1     -11.905  12.023  69.781  1.00  0.00    -0.401 C  
HETATM   20  C   UNL     1     -12.045  10.592  70.314  1.00  0.00    -0.318 C  
HETATM   21  C   UNL     1     -10.829   9.736  69.928  1.00  0.00    -0.272 C  
HETATM   22  O   UNL     1     -12.204  10.606  71.734  1.00  0.00    -0.244 OA 
HETATM   23  H   UNL     1     -12.290   9.719  72.064  1.00  0.00     0.000 HD 
HETATM   24  O   UNL     1      -9.596  10.262  70.437  1.00  0.00    -0.328 OA 
HETATM   25  C   UNL     1     -10.753   9.619  68.406  1.00  0.00    -0.251 C  
HETATM   26  H   UNL     1      -8.843   9.733  70.198  1.00  0.00     0.000 HD 
ENDBRANCH  12  13
ENDBRANCH  11  12
ENDBRANCH   8  11
ENDBRANCH   7   8
ENDBRANCH   5   7
TORSDOF 5
ENDMDL
MODEL       89
REMARK 921   NORMALIZED FREE ENERGY PREDICTED BY IDOCK:   -5.19 KCAL/MOL
REMARK 922        TOTAL FREE ENERGY PREDICTED BY IDOCK:   -7.44 KCAL/MOL
REMARK 923 INTER-LIGAND FREE ENERGY PREDICTED BY IDOCK:   -6.21 KCAL/MOL
REMARK 924 INTRA-LIGAND FREE ENERGY PREDICTED BY IDOCK:   -1.22 KCAL/MOL
REMARK 927      BINDING AFFINITY PREDICTED BY RF-SCORE:    0.00 PKD
ROOT
HETATM    1  C   UNL     1      -9.821  17.635  66.455  1.00  0.00    -0.323 C  
HETATM    2  C   UNL     1      -9.453  18.957  67.154  1.00  0.00    -0.304 C  
HETATM    3  C   UNL     1     -10.693  19.462  67.917  1.00  0.00    -0.427 C  
HETATM    4  C   UNL     1      -9.067  20.017  66.106  1.00  0.00    -0.357 C  
HETATM    5  N   UNL     1      -8.378  18.784  68.148  1.00  0.00    -0.296 NA 
HETATM    6  H   UNL     1      -8.707  18.211  68.924  1.00  0.00     0.000 HD 
ENDROOT
BRANCH   5   7
HETATM    7  C   UNL     1      -7.119  18.245  67.620  1.00  0.00    -0.201 C  
BRANCH   7   8
HETATM    8  C   UNL     1      -6.191  17.769  68.753  1.00  0.00    -0.203 C  
HETATM    9  H   UNL     1      -5.715  18.367  70.570  1.00  0.00     0.000 HD 
HETATM   10  O   UNL     1      -6.287  18.661  69.871  1.00  0.00    -0.216 OA 
BRANCH   8  11
HETATM   11  C   UNL     1      -6.571  16.343  69.181  1.00  0.00    -0.195 C  
BRANCH  11  12
HETATM   12  O   UNL     1      -7.998  16.248  69.373  1.00  0.00    -0.216 OA 
BRANCH  12  13
HETATM   13  C   UNL     1      -8.577  15.162  68.756  1.00  0.00    -0.182 A  
HETATM   14  C   UNL     1      -7.887  14.374  67.828  1.00  0.00    -0.169 A  
HETATM   15  C   UNL     1      -8.487  13.255  67.263  1.00  0.00    -0.203 A  
HETATM   16  C   UNL     1      -9.788  12.915  67.616  1.00  0.00    -0.211 A  
HETATM   17  C   UNL     1     -10.513  13.710  68.514  1.00  0.00    -0.249 A  
HETATM   18  C   UNL     1      -9.924  14.877  69.055  1.00  0.00    -0.235 A  
HETATM   19  C   UNL     1     -10.714  15.777  69.982  1.00  0.00    -0.347 C  
HETATM   20  C   UNL     1     -12.222  15.496  69.970  1.00  0.00    -0.355 C  
HETATM   21  C   UNL     1     -12.506  13.989  70.067  1.00  0.00    -0.281 C  
HETATM   22  O   UNL     1     -12.862  16.186  71.045  1.00  0.00    -0.550 OA 
HETATM   23  H   UNL     1     -13.796  16.013  71.037  1.00  0.00     0.000 HD 
HETATM   24  O   UNL     1     -11.972  13.400  71.261  1.00  0.00    -0.358 OA 
HETATM   25  C   UNL     1     -11.930  13.284  68.839  1.00  0.00    -0.336 C  
HETATM   26  H   UNL     1     -12.147  12.468  71.321  1.00  0.00     0.000 HD 
ENDBRANCH  12  13
ENDBRANCH  11  12
ENDBRANCH   8  11
ENDBRANCH   7   8
ENDBRANCH   5   7
TORSDOF 5
ENDMDL
MODEL       90
REMARK 921   NORMALIZED FREE ENERGY PREDICTED BY IDOCK:   -5.16 KCAL/MOL
REMARK 922        TOTAL FREE ENERGY PREDICTED BY IDOCK:   -7.39 KCAL/MOL
REMARK 923 INTER-LIGAND FREE ENERGY PREDICTED BY IDOCK:   -6.74 KCAL/MOL
REMARK 924 INTRA-LIGAND FREE ENERGY PREDICTED BY IDOCK:   -0.65 KCAL/MOL
REMARK 927      BINDING AFFINITY PREDICTED BY RF-SCORE:    0.00 PKD
ROOT
HETATM    1  C   UNL     1     -11.125   8.579  70.371  1.00  0.00    -0.246 C  
HETATM    2  C   UNL     1     -10.524   7.496  69.457  1.00  0.00    -0.226 C  
HETATM    3  C   UNL     1     -11.300   6.185  69.686  1.00  0.00    -0.442 C  
HETATM    4  C   UNL     1      -9.049   7.255  69.824  1.00  0.00    -0.141 C  
HETATM    5  N   UNL     1     -10.662   7.832  68.027  1.00  0.00    -0.424 NA 
HETATM    6  H   UNL     1     -11.646   7.824  67.759  1.00  0.00     0.000 HD 
ENDROOT
BRANCH   5   7
HETATM    7  C   UNL     1     -10.037   9.095  67.619  1.00  0.00    -0.220 C  
BRANCH   7   8
HETATM    8  C   UNL     1      -8.937   8.864  66.566  1.00  0.00    -0.155 C  
HETATM    9  H   UNL     1      -7.933   7.327  65.847  1.00  0.00     0.000 HD 
HETATM   10  O   UNL     1      -8.611   7.470  66.497  1.00  0.00    -0.120 OA 
BRANCH   8  11
HETATM   11  C   UNL     1      -9.409   9.365  65.192  1.00  0.00    -0.221 C  
BRANCH  11  12
HETATM   12  O   UNL     1      -9.150  10.778  65.065  1.00  0.00    -0.194 OA 
BRANCH  12  13
HETATM   13  C   UNL     1     -10.275  11.539  64.843  1.00  0.00    -0.275 A  
HETATM   14  C   UNL     1     -11.063  11.389  63.696  1.00  0.00    -0.411 A  
HETATM   15  C   UNL     1     -12.221  12.140  63.529  1.00  0.00    -0.670 A  
HETATM   16  C   UNL     1     -12.601  13.053  64.505  1.00  0.00    -0.387 A  
HETATM   17  C   UNL     1     -11.808  13.248  65.644  1.00  0.00    -0.419 A  
HETATM   18  C   UNL     1     -10.604  12.521  65.797  1.00  0.00    -0.299 A  
HETATM   19  C   UNL     1      -9.709  12.762  66.994  1.00  0.00    -0.224 C  
HETATM   20  C   UNL     1     -10.048  14.044  67.765  1.00  0.00    -0.240 C  
HETATM   21  C   UNL     1     -11.561  14.162  68.003  1.00  0.00    -0.334 C  
HETATM   22  O   UNL     1      -9.352  14.070  69.013  1.00  0.00    -0.392 OA 
HETATM   23  H   UNL     1      -9.562  14.864  69.490  1.00  0.00     0.000 HD 
HETATM   24  O   UNL     1     -12.094  13.061  68.751  1.00  0.00    -0.293 OA 
HETATM   25  C   UNL     1     -12.280  14.270  66.658  1.00  0.00    -0.411 C  
HETATM   26  H   UNL     1     -13.029  13.134  68.899  1.00  0.00     0.000 HD 
ENDBRANCH  12  13
ENDBRANCH  11  12
ENDBRANCH   8  11
ENDBRANCH   7   8
ENDBRANCH   5   7
TORSDOF 5
ENDMDL
MODEL       91
REMARK 921   NORMALIZED FREE ENERGY PREDICTED BY IDOCK:   -5.14 KCAL/MOL
REMARK 922        TOTAL FREE ENERGY PREDICTED BY IDOCK:   -7.37 KCAL/MOL
REMARK 923 INTER-LIGAND FREE ENERGY PREDICTED BY IDOCK:   -6.80 KCAL/MOL
REMARK 924 INTRA-LIGAND FREE ENERGY PREDICTED BY IDOCK:   -0.57 KCAL/MOL
REMARK 927      BINDING AFFINITY PREDICTED BY RF-SCORE:    0.00 PKD
ROOT
HETATM    1  C   UNL     1     -11.473  16.209  71.072  1.00  0.00    -0.424 C  
HETATM    2  C   UNL     1     -11.005  15.245  69.966  1.00  0.00    -0.288 C  
HETATM    3  C   UNL     1      -9.478  15.380  69.821  1.00  0.00    -0.156 C  
HETATM    4  C   UNL     1     -11.653  15.630  68.624  1.00  0.00    -0.391 C  
HETATM    5  N   UNL     1     -11.283  13.835  70.298  1.00  0.00    -0.465 NA 
HETATM    6  H   UNL     1     -10.716  13.545  71.095  1.00  0.00     0.000 HD 
ENDROOT
BRANCH   5   7
HETATM    7  C   UNL     1     -12.695  13.516  70.539  1.00  0.00    -0.157 C  
BRANCH   7   8
HETATM    8  C   UNL     1     -12.872  12.684  71.823  1.00  0.00    -0.238 C  
HETATM    9  H   UNL     1     -14.061  12.700  73.395  1.00  0.00     0.000 HD 
HETATM   10  O   UNL     1     -13.952  13.213  72.603  1.00  0.00    -0.708 OA 
BRANCH   8  11
HETATM   11  C   UNL     1     -13.147  11.216  71.466  1.00  0.00    -0.385 C  
BRANCH  11  12
HETATM   12  O   UNL     1     -11.983  10.411  71.745  1.00  0.00    -0.214 OA 
BRANCH  12  13
HETATM   13  C   UNL     1     -11.521   9.695  70.665  1.00  0.00    -0.306 A  
HETATM   14  C   UNL     1     -11.243  10.298  69.432  1.00  0.00    -0.292 A  
HETATM   15  C   UNL     1     -10.731   9.551  68.378  1.00  0.00    -0.230 A  
HETATM   16  C   UNL     1     -10.495   8.192  68.543  1.00  0.00    -0.199 A  
HETATM   17  C   UNL     1     -10.801   7.558  69.755  1.00  0.00    -0.234 A  
HETATM   18  C   UNL     1     -11.367   8.303  70.816  1.00  0.00    -0.285 A  
HETATM   19  C   UNL     1     -11.755   7.622  72.112  1.00  0.00    -0.355 C  
HETATM   20  C   UNL     1     -11.802   6.092  72.009  1.00  0.00    -0.280 C  
HETATM   21  C   UNL     1     -10.557   5.547  71.291  1.00  0.00    -0.236 C  
HETATM   22  O   UNL     1     -11.910   5.512  73.310  1.00  0.00    -0.497 OA 
HETATM   23  H   UNL     1     -11.939   4.565  73.247  1.00  0.00     0.000 HD 
HETATM   24  O   UNL     1      -9.336   5.894  71.958  1.00  0.00    -0.150 OA 
HETATM   25  C   UNL     1     -10.529   6.071  69.855  1.00  0.00    -0.313 C  
HETATM   26  H   UNL     1      -8.566   5.557  71.515  1.00  0.00     0.000 HD 
ENDBRANCH  12  13
ENDBRANCH  11  12
ENDBRANCH   8  11
ENDBRANCH   7   8
ENDBRANCH   5   7
TORSDOF 5
ENDMDL
MODEL       92
REMARK 921   NORMALIZED FREE ENERGY PREDICTED BY IDOCK:   -5.14 KCAL/MOL
REMARK 922        TOTAL FREE ENERGY PREDICTED BY IDOCK:   -7.36 KCAL/MOL
REMARK 923 INTER-LIGAND FREE ENERGY PREDICTED BY IDOCK:   -6.54 KCAL/MOL
REMARK 924 INTRA-LIGAND FREE ENERGY PREDICTED BY IDOCK:   -0.82 KCAL/MOL
REMARK 927      BINDING AFFINITY PREDICTED BY RF-SCORE:    0.00 PKD
ROOT
HETATM    1  C   UNL     1     -12.526  13.846  65.961  1.00  0.00    -0.501 C  
HETATM    2  C   UNL     1     -11.550  14.017  64.782  1.00  0.00    -0.381 C  
HETATM    3  C   UNL     1     -11.685  15.456  64.249  1.00  0.00    -0.212 C  
HETATM    4  C   UNL     1     -11.920  13.045  63.647  1.00  0.00    -0.608 C  
HETATM    5  N   UNL     1     -10.144  13.839  65.189  1.00  0.00    -0.538 NA 
HETATM    6  H   UNL     1      -9.863  14.592  65.817  1.00  0.00     0.000 HD 
ENDROOT
BRANCH   5   7
HETATM    7  C   UNL     1      -9.826  12.538  65.788  1.00  0.00    -0.234 C  
BRANCH   7   8
HETATM    8  C   UNL     1      -9.370  12.688  67.251  1.00  0.00    -0.195 C  
HETATM    9  H   UNL     1      -8.606  11.524  68.647  1.00  0.00     0.000 HD 
HETATM   10  O   UNL     1      -8.888  11.431  67.745  1.00  0.00    -0.136 OA 
BRANCH   8  11
HETATM   11  C   UNL     1      -8.267  13.753  67.352  1.00  0.00    -0.184 C  
BRANCH  11  12
HETATM   12  O   UNL     1      -8.856  15.065  67.465  1.00  0.00    -0.172 OA 
BRANCH  12  13
HETATM   13  C   UNL     1      -8.030  16.006  68.037  1.00  0.00    -0.137 A  
HETATM   14  C   UNL     1      -6.882  15.652  68.757  1.00  0.00    -0.118 A  
HETATM   15  C   UNL     1      -6.044  16.631  69.278  1.00  0.00    -0.182 A  
HETATM   16  C   UNL     1      -6.347  17.974  69.090  1.00  0.00    -0.246 A  
HETATM   17  C   UNL     1      -7.510  18.353  68.406  1.00  0.00    -0.300 A  
HETATM   18  C   UNL     1      -8.392  17.361  67.915  1.00  0.00    -0.230 A  
HETATM   19  C   UNL     1      -9.681  17.754  67.223  1.00  0.00    -0.285 C  
HETATM   20  C   UNL     1     -10.064  19.225  67.432  1.00  0.00    -0.389 C  
HETATM   21  C   UNL     1      -8.855  20.148  67.212  1.00  0.00    -0.353 C  
HETATM   22  O   UNL     1     -11.127  19.589  66.549  1.00  0.00    -0.314 OA 
HETATM   23  H   UNL     1     -11.364  20.500  66.678  1.00  0.00     0.000 HD 
HETATM   24  O   UNL     1      -8.303  20.034  65.893  1.00  0.00    -0.486 OA 
HETATM   25  C   UNL     1      -7.781  19.835  68.253  1.00  0.00    -0.334 C  
HETATM   26  H   UNL     1      -7.556  20.605  65.757  1.00  0.00     0.000 HD 
ENDBRANCH  12  13
ENDBRANCH  11  12
ENDBRANCH   8  11
ENDBRANCH   7   8
ENDBRANCH   5   7
TORSDOF 5
ENDMDL
MODEL       93
REMARK 921   NORMALIZED FREE ENERGY PREDICTED BY IDOCK:   -5.13 KCAL/MOL
REMARK 922        TOTAL FREE ENERGY PREDICTED BY IDOCK:   -7.36 KCAL/MOL
REMARK 923 INTER-LIGAND FREE ENERGY PREDICTED BY IDOCK:   -7.04 KCAL/MOL
REMARK 924 INTRA-LIGAND FREE ENERGY PREDICTED BY IDOCK:   -0.32 KCAL/MOL
REMARK 927      BINDING AFFINITY PREDICTED BY RF-SCORE:    0.00 PKD
ROOT
HETATM    1  C   UNL     1      -8.545   6.158  67.923  1.00  0.00    -0.114 C  
HETATM    2  C   UNL     1      -9.954   6.385  68.500  1.00  0.00    -0.142 C  
HETATM    3  C   UNL     1     -10.278   5.221  69.456  1.00  0.00    -0.338 C  
HETATM    4  C   UNL     1     -10.994   6.381  67.365  1.00  0.00    -0.463 C  
HETATM    5  N   UNL     1     -10.042   7.627  69.289  1.00  0.00    -0.185 NA 
HETATM    6  H   UNL     1      -9.471   7.548  70.131  1.00  0.00     0.000 HD 
ENDROOT
BRANCH   5   7
HETATM    7  C   UNL     1      -9.703   8.856  68.562  1.00  0.00    -0.161 C  
BRANCH   7   8
HETATM    8  C   UNL     1     -10.872   9.858  68.573  1.00  0.00    -0.217 C  
HETATM    9  H   UNL     1     -11.437  11.398  69.666  1.00  0.00     0.000 HD 
HETATM   10  O   UNL     1     -10.716  10.780  69.660  1.00  0.00    -0.240 OA 
BRANCH   8  11
HETATM   11  C   UNL     1     -10.928  10.617  67.239  1.00  0.00    -0.284 C  
BRANCH  11  12
HETATM   12  O   UNL     1     -11.968  11.617  67.282  1.00  0.00    -0.627 OA 
BRANCH  12  13
HETATM   13  C   UNL     1     -11.812  12.630  66.364  1.00  0.00    -0.402 A  
HETATM   14  C   UNL     1     -12.283  12.526  65.050  1.00  0.00    -0.519 A  
HETATM   15  C   UNL     1     -12.152  13.590  64.165  1.00  0.00    -0.488 A  
HETATM   16  C   UNL     1     -11.544  14.767  64.582  1.00  0.00    -0.401 A  
HETATM   17  C   UNL     1     -11.030  14.882  65.881  1.00  0.00    -0.338 A  
HETATM   18  C   UNL     1     -11.118  13.786  66.771  1.00  0.00    -0.316 A  
HETATM   19  C   UNL     1     -10.518  13.874  68.159  1.00  0.00    -0.246 C  
HETATM   20  C   UNL     1      -9.559  15.058  68.338  1.00  0.00    -0.212 C  
HETATM   21  C   UNL     1     -10.162  16.350  67.766  1.00  0.00    -0.274 C  
HETATM   22  O   UNL     1      -9.242  15.235  69.720  1.00  0.00    -0.420 OA 
HETATM   23  H   UNL     1      -8.649  15.968  69.830  1.00  0.00     0.000 HD 
HETATM   24  O   UNL     1     -11.403  16.707  68.391  1.00  0.00    -0.321 OA 
HETATM   25  C   UNL     1     -10.369  16.191  66.260  1.00  0.00    -0.337 C  
HETATM   26  H   UNL     1     -11.776  17.506  68.038  1.00  0.00     0.000 HD 
ENDBRANCH  12  13
ENDBRANCH  11  12
ENDBRANCH   8  11
ENDBRANCH   7   8
ENDBRANCH   5   7
TORSDOF 5
ENDMDL
MODEL       94
REMARK 921   NORMALIZED FREE ENERGY PREDICTED BY IDOCK:   -5.12 KCAL/MOL
REMARK 922        TOTAL FREE ENERGY PREDICTED BY IDOCK:   -7.35 KCAL/MOL
REMARK 923 INTER-LIGAND FREE ENERGY PREDICTED BY IDOCK:   -6.33 KCAL/MOL
REMARK 924 INTRA-LIGAND FREE ENERGY PREDICTED BY IDOCK:   -1.01 KCAL/MOL
REMARK 927      BINDING AFFINITY PREDICTED BY RF-SCORE:    0.00 PKD
ROOT
HETATM    1  C   UNL     1     -10.679   9.677  68.154  1.00  0.00    -0.266 C  
HETATM    2  C   UNL     1      -9.916   8.349  67.998  1.00  0.00    -0.182 C  
HETATM    3  C   UNL     1     -10.685   7.464  66.999  1.00  0.00    -0.389 C  
HETATM    4  C   UNL     1      -9.859   7.613  69.349  1.00  0.00    -0.171 C  
HETATM    5  N   UNL     1      -8.562   8.543  67.448  1.00  0.00    -0.126 NA 
HETATM    6  H   UNL     1      -8.619   8.876  66.486  1.00  0.00     0.000 HD 
ENDROOT
BRANCH   5   7
HETATM    7  C   UNL     1      -7.686   9.419  68.234  1.00  0.00    -0.083 C  
BRANCH   7   8
HETATM    8  C   UNL     1      -7.149  10.586  67.384  1.00  0.00    -0.090 C  
HETATM    9  H   UNL     1      -7.203  11.132  65.491  1.00  0.00     0.000 HD 
HETATM   10  O   UNL     1      -7.535  10.412  66.015  1.00  0.00    -0.122 OA 
BRANCH   8  11
HETATM   11  C   UNL     1      -7.690  11.921  67.920  1.00  0.00    -0.131 C  
BRANCH  11  12
HETATM   12  O   UNL     1      -8.298  12.673  66.850  1.00  0.00    -0.161 OA 
BRANCH  12  13
HETATM   13  C   UNL     1      -9.509  13.239  67.178  1.00  0.00    -0.240 A  
HETATM   14  C   UNL     1      -9.721  13.896  68.396  1.00  0.00    -0.226 A  
HETATM   15  C   UNL     1     -10.942  14.500  68.672  1.00  0.00    -0.263 A  
HETATM   16  C   UNL     1     -11.967  14.449  67.735  1.00  0.00    -0.368 A  
HETATM   17  C   UNL     1     -11.792  13.765  66.524  1.00  0.00    -0.438 A  
HETATM   18  C   UNL     1     -10.567  13.108  66.259  1.00  0.00    -0.292 A  
HETATM   19  C   UNL     1     -10.382  12.317  64.980  1.00  0.00    -0.321 C  
HETATM   20  C   UNL     1     -11.696  12.028  64.243  1.00  0.00    -0.344 C  
HETATM   21  C   UNL     1     -12.568  13.289  64.152  1.00  0.00    -0.158 C  
HETATM   22  O   UNL     1     -11.428  11.521  62.934  1.00  0.00    -0.788 OA 
HETATM   23  H   UNL     1     -12.242  11.342  62.478  1.00  0.00     0.000 HD 
HETATM   24  O   UNL     1     -11.918  14.364  63.459  1.00  0.00    -0.812 OA 
HETATM   25  C   UNL     1     -12.958  13.740  65.559  1.00  0.00    -0.363 C  
HETATM   26  H   UNL     1     -12.458  15.145  63.402  1.00  0.00     0.000 HD 
ENDBRANCH  12  13
ENDBRANCH  11  12
ENDBRANCH   8  11
ENDBRANCH   7   8
ENDBRANCH   5   7
TORSDOF 5
ENDMDL
MODEL       95
REMARK 921   NORMALIZED FREE ENERGY PREDICTED BY IDOCK:   -5.09 KCAL/MOL
REMARK 922        TOTAL FREE ENERGY PREDICTED BY IDOCK:   -7.31 KCAL/MOL
REMARK 923 INTER-LIGAND FREE ENERGY PREDICTED BY IDOCK:   -6.39 KCAL/MOL
REMARK 924 INTRA-LIGAND FREE ENERGY PREDICTED BY IDOCK:   -0.92 KCAL/MOL
REMARK 927      BINDING AFFINITY PREDICTED BY RF-SCORE:    0.00 PKD
ROOT
HETATM    1  C   UNL     1     -11.684  12.299  66.131  1.00  0.00    -0.440 C  
HETATM    2  C   UNL     1     -11.617  13.836  66.079  1.00  0.00    -0.346 C  
HETATM    3  C   UNL     1     -12.434  14.314  64.864  1.00  0.00    -0.403 C  
HETATM    4  C   UNL     1     -10.160  14.294  65.893  1.00  0.00    -0.344 C  
HETATM    5  N   UNL     1     -12.216  14.462  67.273  1.00  0.00    -0.608 NA 
HETATM    6  H   UNL     1     -13.221  14.287  67.293  1.00  0.00     0.000 HD 
ENDROOT
BRANCH   5   7
HETATM    7  C   UNL     1     -11.610  14.077  68.552  1.00  0.00    -0.322 C  
BRANCH   7   8
HETATM    8  C   UNL     1     -12.091  14.986  69.699  1.00  0.00    -0.300 C  
HETATM    9  H   UNL     1     -12.393  14.816  71.640  1.00  0.00     0.000 HD 
HETATM   10  O   UNL     1     -12.097  14.255  70.932  1.00  0.00    -0.320 OA 
BRANCH   8  11
HETATM   11  C   UNL     1     -11.175  16.213  69.817  1.00  0.00    -0.343 C  
BRANCH  11  12
HETATM   12  O   UNL     1     -10.545  16.484  68.548  1.00  0.00    -0.280 OA 
BRANCH  12  13
HETATM   13  C   UNL     1      -9.531  17.413  68.609  1.00  0.00    -0.280 A  
HETATM   14  C   UNL     1      -9.782  18.790  68.655  1.00  0.00    -0.437 A  
HETATM   15  C   UNL     1      -8.734  19.696  68.768  1.00  0.00    -0.283 A  
HETATM   16  C   UNL     1      -7.425  19.237  68.830  1.00  0.00    -0.397 A  
HETATM   17  C   UNL     1      -7.146  17.866  68.748  1.00  0.00    -0.268 A  
HETATM   18  C   UNL     1      -8.204  16.942  68.585  1.00  0.00    -0.254 A  
HETATM   19  C   UNL     1      -7.916  15.462  68.438  1.00  0.00    -0.131 C  
HETATM   20  C   UNL     1      -6.444  15.152  68.137  1.00  0.00    -0.128 C  
HETATM   21  C   UNL     1      -5.511  15.946  69.065  1.00  0.00    -0.105 C  
HETATM   22  O   UNL     1      -6.196  13.752  68.274  1.00  0.00    -0.087 OA 
HETATM   23  H   UNL     1      -5.284  13.560  68.088  1.00  0.00     0.000 HD 
HETATM   24  O   UNL     1      -5.733  15.660  70.453  1.00  0.00    -0.156 OA 
HETATM   25  C   UNL     1      -5.693  17.442  68.809  1.00  0.00    -0.160 C  
HETATM   26  H   UNL     1      -5.156  16.150  71.026  1.00  0.00     0.000 HD 
ENDBRANCH  12  13
ENDBRANCH  11  12
ENDBRANCH   8  11
ENDBRANCH   7   8
ENDBRANCH   5   7
TORSDOF 5
ENDMDL
MODEL       96
REMARK 921   NORMALIZED FREE ENERGY PREDICTED BY IDOCK:   -5.09 KCAL/MOL
REMARK 922        TOTAL FREE ENERGY PREDICTED BY IDOCK:   -7.30 KCAL/MOL
REMARK 923 INTER-LIGAND FREE ENERGY PREDICTED BY IDOCK:   -6.41 KCAL/MOL
REMARK 924 INTRA-LIGAND FREE ENERGY PREDICTED BY IDOCK:   -0.90 KCAL/MOL
REMARK 927      BINDING AFFINITY PREDICTED BY RF-SCORE:    0.00 PKD
ROOT
HETATM    1  C   UNL     1     -10.451  13.168  64.341  1.00  0.00    -0.427 C  
HETATM    2  C   UNL     1     -11.956  13.047  64.642  1.00  0.00    -0.392 C  
HETATM    3  C   UNL     1     -12.592  12.143  63.569  1.00  0.00    -0.621 C  
HETATM    4  C   UNL     1     -12.622  14.432  64.565  1.00  0.00    -0.234 C  
HETATM    5  N   UNL     1     -12.215  12.411  65.948  1.00  0.00    -0.632 NA 
HETATM    6  H   UNL     1     -11.916  11.436  65.928  1.00  0.00     0.000 HD 
ENDROOT
BRANCH   5   7
HETATM    7  C   UNL     1     -11.627  13.096  67.105  1.00  0.00    -0.361 C  
BRANCH   7   8
HETATM    8  C   UNL     1     -11.156  12.092  68.173  1.00  0.00    -0.248 C  
HETATM    9  H   UNL     1     -11.980  10.712  69.314  1.00  0.00     0.000 HD 
HETATM   10  O   UNL     1     -12.271  11.331  68.655  1.00  0.00    -0.562 OA 
BRANCH   8  11
HETATM   11  C   UNL     1     -10.092  11.155  67.583  1.00  0.00    -0.179 C  
BRANCH  11  12
HETATM   12  O   UNL     1     -10.714  10.182  66.718  1.00  0.00    -0.200 OA 
BRANCH  12  13
HETATM   13  C   UNL     1      -9.837   9.279  66.164  1.00  0.00    -0.293 A  
HETATM   14  C   UNL     1      -9.080   9.575  65.024  1.00  0.00    -0.281 A  
HETATM   15  C   UNL     1      -8.166   8.656  64.522  1.00  0.00    -0.166 A  
HETATM   16  C   UNL     1      -8.003   7.428  65.150  1.00  0.00    -0.128 A  
HETATM   17  C   UNL     1      -8.777   7.092  66.270  1.00  0.00    -0.156 A  
HETATM   18  C   UNL     1      -9.742   8.004  66.757  1.00  0.00    -0.305 A  
HETATM   19  C   UNL     1     -10.624   7.635  67.931  1.00  0.00    -0.233 C  
HETATM   20  C   UNL     1     -10.605   6.138  68.264  1.00  0.00    -0.262 C  
HETATM   21  C   UNL     1      -9.168   5.594  68.285  1.00  0.00    -0.110 C  
HETATM   22  O   UNL     1     -11.237   5.902  69.523  1.00  0.00    -0.389 OA 
HETATM   23  H   UNL     1     -11.225   4.975  69.729  1.00  0.00     0.000 HD 
HETATM   24  O   UNL     1      -8.338   6.257  69.250  1.00  0.00    -0.115 OA 
HETATM   25  C   UNL     1      -8.553   5.730  66.893  1.00  0.00    -0.111 C  
HETATM   26  H   UNL     1      -7.450   5.921  69.263  1.00  0.00     0.000 HD 
ENDBRANCH  12  13
ENDBRANCH  11  12
ENDBRANCH   8  11
ENDBRANCH   7   8
ENDBRANCH   5   7
TORSDOF 5
ENDMDL
MODEL       97
REMARK 921   NORMALIZED FREE ENERGY PREDICTED BY IDOCK:   -5.09 KCAL/MOL
REMARK 922        TOTAL FREE ENERGY PREDICTED BY IDOCK:   -7.30 KCAL/MOL
REMARK 923 INTER-LIGAND FREE ENERGY PREDICTED BY IDOCK:   -6.95 KCAL/MOL
REMARK 924 INTRA-LIGAND FREE ENERGY PREDICTED BY IDOCK:   -0.35 KCAL/MOL
REMARK 927      BINDING AFFINITY PREDICTED BY RF-SCORE:    0.00 PKD
ROOT
HETATM    1  C   UNL     1      -7.979   6.517  68.945  1.00  0.00    -0.111 C  
HETATM    2  C   UNL     1      -9.298   6.115  69.631  1.00  0.00    -0.146 C  
HETATM    3  C   UNL     1      -8.958   5.444  70.975  1.00  0.00    -0.156 C  
HETATM    4  C   UNL     1     -10.054   5.095  68.760  1.00  0.00    -0.231 C  
HETATM    5  N   UNL     1     -10.149   7.280  69.935  1.00  0.00    -0.191 NA 
HETATM    6  H   UNL     1      -9.703   7.864  70.642  1.00  0.00     0.000 HD 
ENDROOT
BRANCH   5   7
HETATM    7  C   UNL     1     -10.531   8.095  68.776  1.00  0.00    -0.174 C  
BRANCH   7   8
HETATM    8  C   UNL     1     -10.542   9.596  69.123  1.00  0.00    -0.220 C  
HETATM    9  H   UNL     1      -9.307  10.891  69.948  1.00  0.00     0.000 HD 
HETATM   10  O   UNL     1      -9.300   9.965  69.735  1.00  0.00    -0.207 OA 
BRANCH   8  11
HETATM   11  C   UNL     1     -10.774  10.428  67.853  1.00  0.00    -0.261 C  
BRANCH  11  12
HETATM   12  O   UNL     1     -12.001  11.178  67.970  1.00  0.00    -0.625 OA 
BRANCH  12  13
HETATM   13  C   UNL     1     -11.819  12.528  68.166  1.00  0.00    -0.317 A  
HETATM   14  C   UNL     1     -11.678  13.085  69.442  1.00  0.00    -0.386 A  
HETATM   15  C   UNL     1     -11.445  14.446  69.599  1.00  0.00    -0.331 A  
HETATM   16  C   UNL     1     -11.355  15.267  68.481  1.00  0.00    -0.337 A  
HETATM   17  C   UNL     1     -11.530  14.739  67.194  1.00  0.00    -0.375 A  
HETATM   18  C   UNL     1     -11.815  13.363  67.031  1.00  0.00    -0.443 A  
HETATM   19  C   UNL     1     -12.063  12.788  65.652  1.00  0.00    -0.514 C  
HETATM   20  C   UNL     1     -12.315  13.856  64.580  1.00  0.00    -0.388 C  
HETATM   21  C   UNL     1     -11.284  14.992  64.677  1.00  0.00    -0.332 C  
HETATM   22  O   UNL     1     -12.275  13.268  63.278  1.00  0.00    -0.796 OA 
HETATM   23  H   UNL     1     -12.431  13.930  62.614  1.00  0.00     0.000 HD 
HETATM   24  O   UNL     1      -9.935  14.533  64.514  1.00  0.00    -0.583 OA 
HETATM   25  C   UNL     1     -11.432  15.697  66.025  1.00  0.00     0.174 C  
HETATM   26  H   UNL     1      -9.298  15.235  64.574  1.00  0.00     0.000 HD 
ENDBRANCH  12  13
ENDBRANCH  11  12
ENDBRANCH   8  11
ENDBRANCH   7   8
ENDBRANCH   5   7
TORSDOF 5
ENDMDL
MODEL       98
REMARK 921   NORMALIZED FREE ENERGY PREDICTED BY IDOCK:   -5.08 KCAL/MOL
REMARK 922        TOTAL FREE ENERGY PREDICTED BY IDOCK:   -7.29 KCAL/MOL
REMARK 923 INTER-LIGAND FREE ENERGY PREDICTED BY IDOCK:   -6.61 KCAL/MOL
REMARK 924 INTRA-LIGAND FREE ENERGY PREDICTED BY IDOCK:   -0.67 KCAL/MOL
REMARK 927      BINDING AFFINITY PREDICTED BY RF-SCORE:    0.00 PKD
ROOT
HETATM    1  C   UNL     1     -11.878  15.715  68.828  1.00  0.00    -0.336 C  
HETATM    2  C   UNL     1     -10.876  15.023  69.771  1.00  0.00    -0.261 C  
HETATM    3  C   UNL     1     -11.287  15.331  71.223  1.00  0.00    -0.416 C  
HETATM    4  C   UNL     1      -9.462  15.586  69.540  1.00  0.00    -0.269 C  
HETATM    5  N   UNL     1     -10.889  13.556  69.622  1.00  0.00    -0.441 NA 
HETATM    6  H   UNL     1     -11.782  13.180  69.938  1.00  0.00     0.000 HD 
ENDROOT
BRANCH   5   7
HETATM    7  C   UNL     1     -10.581  13.062  68.275  1.00  0.00    -0.247 C  
BRANCH   7   8
HETATM    8  C   UNL     1     -11.644  12.059  67.788  1.00  0.00    -0.330 C  
HETATM    9  H   UNL     1     -12.626  11.702  66.116  1.00  0.00     0.000 HD 
HETATM   10  O   UNL     1     -11.971  12.321  66.417  1.00  0.00    -0.589 OA 
BRANCH   8  11
HETATM   11  C   UNL     1     -11.122  10.622  67.941  1.00  0.00    -0.308 C  
BRANCH  11  12
HETATM   12  O   UNL     1     -10.767  10.369  69.317  1.00  0.00    -0.205 OA 
BRANCH  12  13
HETATM   13  C   UNL     1     -10.072   9.198  69.512  1.00  0.00    -0.197 A  
HETATM   14  C   UNL     1      -8.830   8.957  68.911  1.00  0.00    -0.137 A  
HETATM   15  C   UNL     1      -8.133   7.783  69.172  1.00  0.00    -0.125 A  
HETATM   16  C   UNL     1      -8.673   6.834  70.031  1.00  0.00    -0.141 A  
HETATM   17  C   UNL     1      -9.931   7.035  70.615  1.00  0.00    -0.194 A  
HETATM   18  C   UNL     1     -10.666   8.206  70.316  1.00  0.00    -0.235 A  
HETATM   19  C   UNL     1     -12.051   8.412  70.894  1.00  0.00    -0.152 C  
HETATM   20  C   UNL     1     -12.660   7.137  71.491  1.00  0.00    -0.390 C  
HETATM   21  C   UNL     1     -11.646   6.402  72.381  1.00  0.00    -0.269 C  
HETATM   22  O   UNL     1     -13.833   7.455  72.244  1.00  0.00    -0.522 OA 
HETATM   23  H   UNL     1     -14.210   6.666  72.613  1.00  0.00     0.000 HD 
HETATM   24  O   UNL     1     -11.182   7.206  73.474  1.00  0.00    -0.561 OA 
HETATM   25  C   UNL     1     -10.459   5.950  71.530  1.00  0.00    -0.287 C  
HETATM   26  H   UNL     1     -10.555   6.752  74.025  1.00  0.00     0.000 HD 
ENDBRANCH  12  13
ENDBRANCH  11  12
ENDBRANCH   8  11
ENDBRANCH   7   8
ENDBRANCH   5   7
TORSDOF 5
ENDMDL
MODEL       99
REMARK 921   NORMALIZED FREE ENERGY PREDICTED BY IDOCK:   -5.07 KCAL/MOL
REMARK 922        TOTAL FREE ENERGY PREDICTED BY IDOCK:   -7.28 KCAL/MOL
REMARK 923 INTER-LIGAND FREE ENERGY PREDICTED BY IDOCK:   -6.33 KCAL/MOL
REMARK 924 INTRA-LIGAND FREE ENERGY PREDICTED BY IDOCK:   -0.96 KCAL/MOL
REMARK 927      BINDING AFFINITY PREDICTED BY RF-SCORE:    0.00 PKD
ROOT
HETATM    1  C   UNL     1      -7.151   8.642  69.276  1.00  0.00    -0.062 C  
HETATM    2  C   UNL     1      -8.082   7.894  70.248  1.00  0.00    -0.115 C  
HETATM    3  C   UNL     1      -8.563   8.892  71.319  1.00  0.00    -0.259 C  
HETATM    4  C   UNL     1      -7.311   6.764  70.953  1.00  0.00    -0.082 C  
HETATM    5  N   UNL     1      -9.286   7.370  69.577  1.00  0.00    -0.156 NA 
HETATM    6  H   UNL     1      -9.874   8.141  69.260  1.00  0.00     0.000 HD 
ENDROOT
BRANCH   5   7
HETATM    7  C   UNL     1      -9.031   6.441  68.471  1.00  0.00    -0.125 C  
BRANCH   7   8
HETATM    8  C   UNL     1      -9.880   6.791  67.234  1.00  0.00    -0.145 C  
HETATM    9  H   UNL     1     -11.240   5.896  66.122  1.00  0.00     0.000 HD 
HETATM   10  O   UNL     1     -10.716   5.680  66.885  1.00  0.00    -0.283 OA 
BRANCH   8  11
HETATM   11  C   UNL     1     -10.741   8.031  67.520  1.00  0.00    -0.168 C  
BRANCH  11  12
HETATM   12  O   UNL     1      -9.934   9.224  67.434  1.00  0.00    -0.173 OA 
BRANCH  12  13
HETATM   13  C   UNL     1     -10.631  10.391  67.647  1.00  0.00    -0.257 A  
HETATM   14  C   UNL     1     -11.093  10.765  68.914  1.00  0.00    -0.307 A  
HETATM   15  C   UNL     1     -11.750  11.976  69.099  1.00  0.00    -0.389 A  
HETATM   16  C   UNL     1     -11.957  12.824  68.018  1.00  0.00    -0.315 A  
HETATM   17  C   UNL     1     -11.537  12.455  66.733  1.00  0.00    -0.444 A  
HETATM   18  C   UNL     1     -10.911  11.203  66.530  1.00  0.00    -0.302 A  
HETATM   19  C   UNL     1     -10.502  10.765  65.139  1.00  0.00    -0.299 C  
HETATM   20  C   UNL     1     -11.131  11.608  64.023  1.00  0.00    -0.384 C  
HETATM   21  C   UNL     1     -11.020  13.109  64.332  1.00  0.00    -0.390 C  
HETATM   22  O   UNL     1     -10.505  11.318  62.771  1.00  0.00    -0.667 OA 
HETATM   23  H   UNL     1     -10.895  11.839  62.080  1.00  0.00     0.000 HD 
HETATM   24  O   UNL     1      -9.662  13.545  64.482  1.00  0.00    -0.602 OA 
HETATM   25  C   UNL     1     -11.809  13.425  65.602  1.00  0.00    -0.403 C  
HETATM   26  H   UNL     1      -9.593  14.473  64.674  1.00  0.00     0.000 HD 
ENDBRANCH  12  13
ENDBRANCH  11  12
ENDBRANCH   8  11
ENDBRANCH   7   8
ENDBRANCH   5   7
TORSDOF 5
ENDMDL
MODEL      100
REMARK 921   NORMALIZED FREE ENERGY PREDICTED BY IDOCK:   -5.07 KCAL/MOL
REMARK 922        TOTAL FREE ENERGY PREDICTED BY IDOCK:   -7.28 KCAL/MOL
REMARK 923 INTER-LIGAND FREE ENERGY PREDICTED BY IDOCK:   -6.69 KCAL/MOL
REMARK 924 INTRA-LIGAND FREE ENERGY PREDICTED BY IDOCK:   -0.59 KCAL/MOL
REMARK 927      BINDING AFFINITY PREDICTED BY RF-SCORE:    0.00 PKD
ROOT
HETATM    1  C   UNL     1      -8.751   5.595  67.335  1.00  0.00    -0.107 C  
HETATM    2  C   UNL     1      -9.737   6.771  67.456  1.00  0.00    -0.128 C  
HETATM    3  C   UNL     1     -11.119   6.296  66.968  1.00  0.00    -0.379 C  
HETATM    4  C   UNL     1      -9.281   7.934  66.557  1.00  0.00    -0.238 C  
HETATM    5  N   UNL     1      -9.905   7.219  68.851  1.00  0.00    -0.156 NA 
HETATM    6  H   UNL     1     -10.363   6.492  69.399  1.00  0.00     0.000 HD 
ENDROOT
BRANCH   5   7
HETATM    7  C   UNL     1      -8.674   7.656  69.520  1.00  0.00    -0.136 C  
BRANCH   7   8
HETATM    8  C   UNL     1      -8.917   8.905  70.387  1.00  0.00    -0.182 C  
HETATM    9  H   UNL     1      -7.920   9.933  71.742  1.00  0.00     0.000 HD 
HETATM   10  O   UNL     1      -7.770   9.162  71.207  1.00  0.00    -0.266 OA 
BRANCH   8  11
HETATM   11  C   UNL     1      -9.210  10.119  69.492  1.00  0.00    -0.204 C  
BRANCH  11  12
HETATM   12  O   UNL     1     -10.581  10.084  69.045  1.00  0.00    -0.195 OA 
BRANCH  12  13
HETATM   13  C   UNL     1     -11.488  10.539  69.974  1.00  0.00    -0.316 A  
HETATM   14  C   UNL     1     -12.121   9.683  70.882  1.00  0.00    -0.383 A  
HETATM   15  C   UNL     1     -12.994  10.186  71.840  1.00  0.00    -0.549 A  
HETATM   16  C   UNL     1     -13.248  11.551  71.896  1.00  0.00    -0.479 A  
HETATM   17  C   UNL     1     -12.657  12.424  70.973  1.00  0.00    -0.349 A  
HETATM   18  C   UNL     1     -11.805  11.912  69.966  1.00  0.00    -0.407 A  
HETATM   19  C   UNL     1     -11.203  12.835  68.927  1.00  0.00    -0.332 C  
HETATM   20  C   UNL     1     -11.868  14.216  68.876  1.00  0.00    -0.347 C  
HETATM   21  C   UNL     1     -12.050  14.795  70.288  1.00  0.00    -0.322 C  
HETATM   22  O   UNL     1     -11.092  15.110  68.076  1.00  0.00    -0.284 OA 
HETATM   23  H   UNL     1     -11.504  15.965  68.045  1.00  0.00     0.000 HD 
HETATM   24  O   UNL     1     -10.809  14.944  70.991  1.00  0.00    -0.545 OA 
HETATM   25  C   UNL     1     -12.993  13.896  71.088  1.00  0.00    -0.388 C  
HETATM   26  H   UNL     1     -10.921  15.303  71.863  1.00  0.00     0.000 HD 
ENDBRANCH  12  13
ENDBRANCH  11  12
ENDBRANCH   8  11
ENDBRANCH   7   8
ENDBRANCH   5   7
TORSDOF 5
ENDMDL
MODEL      101
REMARK 921   NORMALIZED FREE ENERGY PREDICTED BY IDOCK:   -5.06 KCAL/MOL
REMARK 922        TOTAL FREE ENERGY PREDICTED BY IDOCK:   -7.27 KCAL/MOL
REMARK 923 INTER-LIGAND FREE ENERGY PREDICTED BY IDOCK:   -6.62 KCAL/MOL
REMARK 924 INTRA-LIGAND FREE ENERGY PREDICTED BY IDOCK:   -0.65 KCAL/MOL
REMARK 927      BINDING AFFINITY PREDICTED BY RF-SCORE:    0.00 PKD
ROOT
HETATM    1  C   UNL     1      -6.466   8.370  64.519  1.00  0.00    -0.066 C  
HETATM    2  C   UNL     1      -7.950   8.210  64.138  1.00  0.00    -0.142 C  
HETATM    3  C   UNL     1      -8.022   7.606  62.722  1.00  0.00    -0.121 C  
HETATM    4  C   UNL     1      -8.639   9.586  64.112  1.00  0.00    -0.217 C  
HETATM    5  N   UNL     1      -8.661   7.282  65.037  1.00  0.00    -0.354 NA 
HETATM    6  H   UNL     1      -8.301   6.336  64.920  1.00  0.00     0.000 HD 
ENDROOT
BRANCH   5   7
HETATM    7  C   UNL     1      -8.648   7.655  66.457  1.00  0.00    -0.138 C  
BRANCH   7   8
HETATM    8  C   UNL     1     -10.077   7.804  67.012  1.00  0.00    -0.273 C  
HETATM    9  H   UNL     1     -11.231   6.847  68.291  1.00  0.00     0.000 HD 
HETATM   10  O   UNL     1     -10.350   6.754  67.949  1.00  0.00    -0.165 OA 
BRANCH   8  11
HETATM   11  C   UNL     1     -10.238   9.173  67.690  1.00  0.00    -0.236 C  
BRANCH  11  12
HETATM   12  O   UNL     1     -11.218   9.963  66.985  1.00  0.00    -0.027 OA 
BRANCH  12  13
HETATM   13  C   UNL     1     -11.435  11.208  67.529  1.00  0.00    -0.216 A  
HETATM   14  C   UNL     1     -11.539  11.412  68.910  1.00  0.00    -0.388 A  
HETATM   15  C   UNL     1     -11.708  12.691  69.426  1.00  0.00    -0.387 A  
HETATM   16  C   UNL     1     -11.780  13.781  68.566  1.00  0.00    -0.391 A  
HETATM   17  C   UNL     1     -11.716  13.598  67.178  1.00  0.00    -0.418 A  
HETATM   18  C   UNL     1     -11.592  12.294  66.645  1.00  0.00    -0.438 A  
HETATM   19  C   UNL     1     -11.578  12.075  65.147  1.00  0.00    -0.330 C  
HETATM   20  C   UNL     1     -12.049  13.295  64.345  1.00  0.00    -0.415 C  
HETATM   21  C   UNL     1     -11.388  14.583  64.858  1.00  0.00    -0.394 C  
HETATM   22  O   UNL     1     -11.762  13.116  62.957  1.00  0.00    -0.795 OA 
HETATM   23  H   UNL     1     -12.054  13.871  62.461  1.00  0.00     0.000 HD 
HETATM   24  O   UNL     1      -9.956  14.544  64.774  1.00  0.00    -0.489 OA 
HETATM   25  C   UNL     1     -11.814  14.832  66.305  1.00  0.00    -0.215 C  
HETATM   26  H   UNL     1      -9.547  15.340  65.091  1.00  0.00     0.000 HD 
ENDBRANCH  12  13
ENDBRANCH  11  12
ENDBRANCH   8  11
ENDBRANCH   7   8
ENDBRANCH   5   7
TORSDOF 5
ENDMDL
MODEL      102
REMARK 921   NORMALIZED FREE ENERGY PREDICTED BY IDOCK:   -5.05 KCAL/MOL
REMARK 922        TOTAL FREE ENERGY PREDICTED BY IDOCK:   -7.26 KCAL/MOL
REMARK 923 INTER-LIGAND FREE ENERGY PREDICTED BY IDOCK:   -6.83 KCAL/MOL
REMARK 924 INTRA-LIGAND FREE ENERGY PREDICTED BY IDOCK:   -0.42 KCAL/MOL
REMARK 927      BINDING AFFINITY PREDICTED BY RF-SCORE:    0.00 PKD
ROOT
HETATM    1  C   UNL     1      -8.112   8.378  65.364  1.00  0.00    -0.133 C  
HETATM    2  C   UNL     1      -7.334   9.636  64.935  1.00  0.00    -0.118 C  
HETATM    3  C   UNL     1      -6.952   9.485  63.451  1.00  0.00    -0.101 C  
HETATM    4  C   UNL     1      -6.038   9.759  65.757  1.00  0.00    -0.065 C  
HETATM    5  N   UNL     1      -8.146  10.861  65.048  1.00  0.00    -0.368 NA 
HETATM    6  H   UNL     1      -8.911  10.838  64.375  1.00  0.00     0.000 HD 
ENDROOT
BRANCH   5   7
HETATM    7  C   UNL     1      -8.664  11.147  66.391  1.00  0.00    -0.177 C  
BRANCH   7   8
HETATM    8  C   UNL     1     -10.123  11.637  66.339  1.00  0.00    -0.214 C  
HETATM    9  H   UNL     1     -11.616  11.577  65.053  1.00  0.00     0.000 HD 
HETATM   10  O   UNL     1     -10.716  11.275  65.085  1.00  0.00    -0.288 OA 
BRANCH   8  11
HETATM   11  C   UNL     1     -10.925  11.028  67.499  1.00  0.00    -0.281 C  
BRANCH  11  12
HETATM   12  O   UNL     1     -10.645  11.739  68.722  1.00  0.00    -0.208 OA 
BRANCH  12  13
HETATM   13  C   UNL     1     -11.486  11.420  69.764  1.00  0.00    -0.300 A  
HETATM   14  C   UNL     1     -11.677  10.102  70.193  1.00  0.00    -0.330 A  
HETATM   15  C   UNL     1     -12.496   9.822  71.281  1.00  0.00    -0.461 A  
HETATM   16  C   UNL     1     -13.137  10.859  71.948  1.00  0.00    -0.537 A  
HETATM   17  C   UNL     1     -12.991  12.183  71.515  1.00  0.00    -0.398 A  
HETATM   18  C   UNL     1     -12.198  12.468  70.379  1.00  0.00    -0.368 A  
HETATM   19  C   UNL     1     -12.076  13.888  69.864  1.00  0.00    -0.406 C  
HETATM   20  C   UNL     1     -13.125  14.843  70.447  1.00  0.00    -0.164 C  
HETATM   21  C   UNL     1     -13.244  14.671  71.969  1.00  0.00    -0.351 C  
HETATM   22  O   UNL     1     -12.792  16.196  70.130  1.00  0.00    -0.561 OA 
HETATM   23  H   UNL     1     -13.442  16.787  70.492  1.00  0.00     0.000 HD 
HETATM   24  O   UNL     1     -12.009  14.923  72.654  1.00  0.00    -0.317 OA 
HETATM   25  C   UNL     1     -13.732  13.257  72.284  1.00  0.00    -0.686 C  
HETATM   26  H   UNL     1     -12.083  14.817  73.596  1.00  0.00     0.000 HD 
ENDBRANCH  12  13
ENDBRANCH  11  12
ENDBRANCH   8  11
ENDBRANCH   7   8
ENDBRANCH   5   7
TORSDOF 5
ENDMDL
MODEL      103
REMARK 921   NORMALIZED FREE ENERGY PREDICTED BY IDOCK:   -5.03 KCAL/MOL
REMARK 922        TOTAL FREE ENERGY PREDICTED BY IDOCK:   -7.22 KCAL/MOL
REMARK 923 INTER-LIGAND FREE ENERGY PREDICTED BY IDOCK:   -6.87 KCAL/MOL
REMARK 924 INTRA-LIGAND FREE ENERGY PREDICTED BY IDOCK:   -0.36 KCAL/MOL
REMARK 927      BINDING AFFINITY PREDICTED BY RF-SCORE:    0.00 PKD
ROOT
HETATM    1  C   UNL     1     -11.374   5.621  72.068  1.00  0.00    -0.241 C  
HETATM    2  C   UNL     1     -10.041   5.492  71.309  1.00  0.00    -0.207 C  
HETATM    3  C   UNL     1      -9.439   4.109  71.623  1.00  0.00    -0.216 C  
HETATM    4  C   UNL     1      -9.053   6.569  71.792  1.00  0.00    -0.142 C  
HETATM    5  N   UNL     1     -10.220   5.561  69.848  1.00  0.00    -0.243 NA 
HETATM    6  H   UNL     1     -10.739   4.746  69.520  1.00  0.00     0.000 HD 
ENDROOT
BRANCH   5   7
HETATM    7  C   UNL     1     -10.847   6.791  69.352  1.00  0.00    -0.271 C  
BRANCH   7   8
HETATM    8  C   UNL     1      -9.828   7.689  68.625  1.00  0.00    -0.171 C  
HETATM    9  H   UNL     1      -8.162   7.437  67.601  1.00  0.00     0.000 HD 
HETATM   10  O   UNL     1      -8.791   6.883  68.050  1.00  0.00    -0.125 OA 
BRANCH   8  11
HETATM   11  C   UNL     1     -10.531   8.505  67.530  1.00  0.00    -0.258 C  
BRANCH  11  12
HETATM   12  O   UNL     1      -9.802   9.724  67.276  1.00  0.00    -0.165 OA 
BRANCH  12  13
HETATM   13  C   UNL     1      -9.757  10.086  65.949  1.00  0.00    -0.247 A  
HETATM   14  C   UNL     1      -9.043   9.350  64.997  1.00  0.00    -0.271 A  
HETATM   15  C   UNL     1      -9.061   9.718  63.657  1.00  0.00    -0.269 A  
HETATM   16  C   UNL     1      -9.791  10.830  63.255  1.00  0.00    -0.394 A  
HETATM   17  C   UNL     1     -10.483  11.606  64.194  1.00  0.00    -0.402 A  
HETATM   18  C   UNL     1     -10.429  11.264  65.566  1.00  0.00    -0.323 A  
HETATM   19  C   UNL     1     -11.126  12.124  66.600  1.00  0.00    -0.353 C  
HETATM   20  C   UNL     1     -11.548  13.499  66.068  1.00  0.00    -0.338 C  
HETATM   21  C   UNL     1     -12.236  13.376  64.700  1.00  0.00    -0.407 C  
HETATM   22  O   UNL     1     -12.420  14.142  67.000  1.00  0.00    -0.571 OA 
HETATM   23  H   UNL     1     -12.682  14.994  66.670  1.00  0.00     0.000 HD 
HETATM   24  O   UNL     1     -13.411  12.554  64.741  1.00  0.00    -0.773 OA 
HETATM   25  C   UNL     1     -11.245  12.811  63.683  1.00  0.00    -0.482 C  
HETATM   26  H   UNL     1     -13.837  12.478  63.895  1.00  0.00     0.000 HD 
ENDBRANCH  12  13
ENDBRANCH  11  12
ENDBRANCH   8  11
ENDBRANCH   7   8
ENDBRANCH   5   7
TORSDOF 5
ENDMDL
MODEL      104
REMARK 921   NORMALIZED FREE ENERGY PREDICTED BY IDOCK:   -5.02 KCAL/MOL
REMARK 922        TOTAL FREE ENERGY PREDICTED BY IDOCK:   -7.21 KCAL/MOL
REMARK 923 INTER-LIGAND FREE ENERGY PREDICTED BY IDOCK:   -7.46 KCAL/MOL
REMARK 924 INTRA-LIGAND FREE ENERGY PREDICTED BY IDOCK:    0.24 KCAL/MOL
REMARK 927      BINDING AFFINITY PREDICTED BY RF-SCORE:    0.00 PKD
ROOT
HETATM    1  C   UNL     1     -11.990  15.066  72.417  1.00  0.00    -0.442 C  
HETATM    2  C   UNL     1     -13.154  14.457  71.614  1.00  0.00    -0.350 C  
HETATM    3  C   UNL     1     -14.322  15.462  71.620  1.00  0.00    -0.615 C  
HETATM    4  C   UNL     1     -13.632  13.157  72.284  1.00  0.00    -0.677 C  
HETATM    5  N   UNL     1     -12.798  14.221  70.203  1.00  0.00    -0.451 NA 
HETATM    6  H   UNL     1     -12.645  15.110  69.727  1.00  0.00     0.000 HD 
ENDROOT
BRANCH   5   7
HETATM    7  C   UNL     1     -11.652  13.330  69.988  1.00  0.00    -0.142 C  
BRANCH   7   8
HETATM    8  C   UNL     1     -10.712  13.875  68.896  1.00  0.00    -0.236 C  
HETATM    9  H   UNL     1      -9.457  15.382  68.698  1.00  0.00     0.000 HD 
HETATM   10  O   UNL     1     -10.037  15.047  69.372  1.00  0.00    -0.226 OA 
BRANCH   8  11
HETATM   11  C   UNL     1      -9.689  12.801  68.497  1.00  0.00    -0.126 C  
BRANCH  11  12
HETATM   12  O   UNL     1     -10.348  11.527  68.333  1.00  0.00    -0.188 OA 
BRANCH  12  13
HETATM   13  C   UNL     1      -9.883  10.786  67.271  1.00  0.00    -0.179 A  
HETATM   14  C   UNL     1      -9.177   9.590  67.447  1.00  0.00    -0.152 A  
HETATM   15  C   UNL     1      -8.767   8.842  66.349  1.00  0.00    -0.158 A  
HETATM   16  C   UNL     1      -9.053   9.284  65.064  1.00  0.00    -0.245 A  
HETATM   17  C   UNL     1      -9.725  10.497  64.861  1.00  0.00    -0.360 A  
HETATM   18  C   UNL     1     -10.103  11.287  65.973  1.00  0.00    -0.283 A  
HETATM   19  C   UNL     1     -10.780  12.626  65.769  1.00  0.00    -0.295 C  
HETATM   20  C   UNL     1     -10.679  13.151  64.332  1.00  0.00    -0.407 C  
HETATM   21  C   UNL     1     -11.015  12.049  63.315  1.00  0.00    -0.325 C  
HETATM   22  O   UNL     1     -11.551  14.268  64.150  1.00  0.00    -0.600 OA 
HETATM   23  H   UNL     1     -11.488  14.593  63.260  1.00  0.00     0.000 HD 
HETATM   24  O   UNL     1     -12.338  11.522  63.486  1.00  0.00    -0.585 OA 
HETATM   25  C   UNL     1      -9.990  10.921  63.431  1.00  0.00    -0.414 C  
HETATM   26  H   UNL     1     -12.547  10.841  62.857  1.00  0.00     0.000 HD 
ENDBRANCH  12  13
ENDBRANCH  11  12
ENDBRANCH   8  11
ENDBRANCH   7   8
ENDBRANCH   5   7
TORSDOF 5
ENDMDL
MODEL      105
REMARK 921   NORMALIZED FREE ENERGY PREDICTED BY IDOCK:   -5.01 KCAL/MOL
REMARK 922        TOTAL FREE ENERGY PREDICTED BY IDOCK:   -7.20 KCAL/MOL
REMARK 923 INTER-LIGAND FREE ENERGY PREDICTED BY IDOCK:   -6.65 KCAL/MOL
REMARK 924 INTRA-LIGAND FREE ENERGY PREDICTED BY IDOCK:   -0.55 KCAL/MOL
REMARK 927      BINDING AFFINITY PREDICTED BY RF-SCORE:    0.00 PKD
ROOT
HETATM    1  C   UNL     1     -12.042  14.372  68.425  1.00  0.00    -0.278 C  
HETATM    2  C   UNL     1     -10.751  14.812  67.711  1.00  0.00    -0.268 C  
HETATM    3  C   UNL     1      -9.552  14.417  68.593  1.00  0.00    -0.208 C  
HETATM    4  C   UNL     1     -10.741  16.342  67.539  1.00  0.00    -0.300 C  
HETATM    5  N   UNL     1     -10.571  14.136  66.413  1.00  0.00    -0.277 NA 
HETATM    6  H   UNL     1     -10.413  13.139  66.556  1.00  0.00     0.000 HD 
ENDROOT
BRANCH   5   7
HETATM    7  C   UNL     1     -11.656  14.341  65.446  1.00  0.00    -0.346 C  
BRANCH   7   8
HETATM    8  C   UNL     1     -12.187  13.000  64.904  1.00  0.00    -0.441 C  
HETATM    9  H   UNL     1     -12.871  12.312  63.188  1.00  0.00     0.000 HD 
HETATM   10  O   UNL     1     -12.543  13.139  63.522  1.00  0.00    -0.722 OA 
BRANCH   8  11
HETATM   11  C   UNL     1     -11.121  11.906  65.068  1.00  0.00    -0.305 C  
BRANCH  11  12
HETATM   12  O   UNL     1     -10.862  11.674  66.468  1.00  0.00    -0.261 OA 
BRANCH  12  13
HETATM   13  C   UNL     1     -10.491  10.383  66.765  1.00  0.00    -0.225 A  
HETATM   14  C   UNL     1      -9.887   9.544  65.822  1.00  0.00    -0.363 A  
HETATM   15  C   UNL     1      -9.480   8.262  66.172  1.00  0.00    -0.241 A  
HETATM   16  C   UNL     1      -9.677   7.803  67.469  1.00  0.00    -0.201 A  
HETATM   17  C   UNL     1     -10.314   8.610  68.421  1.00  0.00    -0.239 A  
HETATM   18  C   UNL     1     -10.774   9.898  68.057  1.00  0.00    -0.296 A  
HETATM   19  C   UNL     1     -11.513  10.760  69.058  1.00  0.00    -0.368 C  
HETATM   20  C   UNL     1     -11.992   9.989  70.295  1.00  0.00    -0.187 C  
HETATM   21  C   UNL     1     -10.878   9.090  70.852  1.00  0.00    -0.258 C  
HETATM   22  O   UNL     1     -12.439  10.899  71.303  1.00  0.00    -0.370 OA 
HETATM   23  H   UNL     1     -12.735  10.421  72.068  1.00  0.00     0.000 HD 
HETATM   24  O   UNL     1      -9.709   9.828  71.235  1.00  0.00    -0.264 OA 
HETATM   25  C   UNL     1     -10.507   8.036  69.809  1.00  0.00    -0.227 C  
HETATM   26  H   UNL     1      -9.020   9.272  71.580  1.00  0.00     0.000 HD 
ENDBRANCH  12  13
ENDBRANCH  11  12
ENDBRANCH   8  11
ENDBRANCH   7   8
ENDBRANCH   5   7
TORSDOF 5
ENDMDL
MODEL      106
REMARK 921   NORMALIZED FREE ENERGY PREDICTED BY IDOCK:   -5.00 KCAL/MOL
REMARK 922        TOTAL FREE ENERGY PREDICTED BY IDOCK:   -7.19 KCAL/MOL
REMARK 923 INTER-LIGAND FREE ENERGY PREDICTED BY IDOCK:   -6.01 KCAL/MOL
REMARK 924 INTRA-LIGAND FREE ENERGY PREDICTED BY IDOCK:   -1.18 KCAL/MOL
REMARK 927      BINDING AFFINITY PREDICTED BY RF-SCORE:    0.00 PKD
ROOT
HETATM    1  C   UNL     1      -9.955   8.782  66.349  1.00  0.00    -0.346 C  
HETATM    2  C   UNL     1      -9.270  10.004  65.708  1.00  0.00    -0.176 C  
HETATM    3  C   UNL     1     -10.331  11.103  65.510  1.00  0.00    -0.326 C  
HETATM    4  C   UNL     1      -8.703   9.625  64.328  1.00  0.00    -0.229 C  
HETATM    5  N   UNL     1      -8.218  10.572  66.571  1.00  0.00    -0.128 NA 
HETATM    6  H   UNL     1      -8.633  10.970  67.413  1.00  0.00     0.000 HD 
ENDROOT
BRANCH   5   7
HETATM    7  C   UNL     1      -7.137   9.647  66.930  1.00  0.00    -0.086 C  
BRANCH   7   8
HETATM    8  C   UNL     1      -6.779   9.753  68.424  1.00  0.00    -0.060 C  
HETATM    9  H   UNL     1      -5.282  10.455  69.499  1.00  0.00     0.000 HD 
HETATM   10  O   UNL     1      -5.503  10.389  68.577  1.00  0.00    -0.038 OA 
BRANCH   8  11
HETATM   11  C   UNL     1      -7.860  10.550  69.170  1.00  0.00    -0.138 C  
BRANCH  11  12
HETATM   12  O   UNL     1      -8.949   9.679  69.541  1.00  0.00    -0.165 OA 
BRANCH  12  13
HETATM   13  C   UNL     1     -10.143  10.329  69.750  1.00  0.00    -0.203 A  
HETATM   14  C   UNL     1     -10.450  11.545  69.128  1.00  0.00    -0.135 A  
HETATM   15  C   UNL     1     -11.687  12.148  69.323  1.00  0.00    -0.386 A  
HETATM   16  C   UNL     1     -12.629  11.545  70.148  1.00  0.00    -0.145 A  
HETATM   17  C   UNL     1     -12.331  10.347  70.812  1.00  0.00    -0.463 A  
HETATM   18  C   UNL     1     -11.056   9.754  70.655  1.00  0.00    -0.398 A  
HETATM   19  C   UNL     1     -10.699   8.490  71.409  1.00  0.00    -0.317 C  
HETATM   20  C   UNL     1     -11.668   8.165  72.553  1.00  0.00    -0.394 C  
HETATM   21  C   UNL     1     -13.129   8.305  72.097  1.00  0.00    -0.287 C  
HETATM   22  O   UNL     1     -11.431   6.844  73.042  1.00  0.00    -0.501 OA 
HETATM   23  H   UNL     1     -12.032   6.643  73.750  1.00  0.00     0.000 HD 
HETATM   24  O   UNL     1     -13.454   7.436  71.002  1.00  0.00    -0.605 OA 
HETATM   25  C   UNL     1     -13.402   9.756  71.705  1.00  0.00    -0.487 C  
HETATM   26  H   UNL     1     -14.357   7.522  70.720  1.00  0.00     0.000 HD 
ENDBRANCH  12  13
ENDBRANCH  11  12
ENDBRANCH   8  11
ENDBRANCH   7   8
ENDBRANCH   5   7
TORSDOF 5
ENDMDL
MODEL      107
REMARK 921   NORMALIZED FREE ENERGY PREDICTED BY IDOCK:   -5.00 KCAL/MOL
REMARK 922        TOTAL FREE ENERGY PREDICTED BY IDOCK:   -7.19 KCAL/MOL
REMARK 923 INTER-LIGAND FREE ENERGY PREDICTED BY IDOCK:   -6.28 KCAL/MOL
REMARK 924 INTRA-LIGAND FREE ENERGY PREDICTED BY IDOCK:   -0.91 KCAL/MOL
REMARK 927      BINDING AFFINITY PREDICTED BY RF-SCORE:    0.00 PKD
ROOT
HETATM    1  C   UNL     1      -7.071  19.219  65.652  1.00  0.00    -0.278 C  
HETATM    2  C   UNL     1      -7.820  19.719  66.901  1.00  0.00    -0.284 C  
HETATM    3  C   UNL     1      -9.304  19.905  66.532  1.00  0.00    -0.501 C  
HETATM    4  C   UNL     1      -7.258  21.082  67.343  1.00  0.00    -0.354 C  
HETATM    5  N   UNL     1      -7.772  18.746  68.008  1.00  0.00    -0.257 NA 
HETATM    6  H   UNL     1      -8.294  17.906  67.760  1.00  0.00     0.000 HD 
ENDROOT
BRANCH   5   7
HETATM    7  C   UNL     1      -6.425  18.385  68.465  1.00  0.00    -0.224 C  
BRANCH   7   8
HETATM    8  C   UNL     1      -6.247  16.857  68.542  1.00  0.00    -0.146 C  
HETATM    9  H   UNL     1      -6.561  15.437  69.872  1.00  0.00     0.000 HD 
HETATM   10  O   UNL     1      -6.671  16.379  69.825  1.00  0.00    -0.194 OA 
BRANCH   8  11
HETATM   11  C   UNL     1      -7.058  16.176  67.429  1.00  0.00    -0.177 C  
BRANCH  11  12
HETATM   12  O   UNL     1      -8.183  15.472  67.997  1.00  0.00    -0.140 OA 
BRANCH  12  13
HETATM   13  C   UNL     1      -9.248  15.327  67.138  1.00  0.00    -0.209 A  
HETATM   14  C   UNL     1      -9.487  16.221  66.087  1.00  0.00    -0.373 A  
HETATM   15  C   UNL     1     -10.544  16.015  65.209  1.00  0.00    -0.424 A  
HETATM   16  C   UNL     1     -11.377  14.915  65.374  1.00  0.00    -0.346 A  
HETATM   17  C   UNL     1     -11.181  14.027  66.441  1.00  0.00    -0.321 A  
HETATM   18  C   UNL     1     -10.137  14.259  67.366  1.00  0.00    -0.247 A  
HETATM   19  C   UNL     1      -9.947  13.341  68.556  1.00  0.00    -0.189 C  
HETATM   20  C   UNL     1     -11.149  12.426  68.821  1.00  0.00    -0.262 C  
HETATM   21  C   UNL     1     -11.646  11.774  67.521  1.00  0.00    -0.291 C  
HETATM   22  O   UNL     1     -10.804  11.419  69.774  1.00  0.00    -0.447 OA 
HETATM   23  H   UNL     1     -11.548  10.852  69.938  1.00  0.00     0.000 HD 
HETATM   24  O   UNL     1     -10.639  10.980  66.878  1.00  0.00    -0.235 OA 
HETATM   25  C   UNL     1     -12.138  12.860  66.565  1.00  0.00    -0.375 C  
HETATM   26  H   UNL     1     -10.946  10.577  66.075  1.00  0.00     0.000 HD 
ENDBRANCH  12  13
ENDBRANCH  11  12
ENDBRANCH   8  11
ENDBRANCH   7   8
ENDBRANCH   5   7
TORSDOF 5
ENDMDL
MODEL      108
REMARK 921   NORMALIZED FREE ENERGY PREDICTED BY IDOCK:   -4.99 KCAL/MOL
REMARK 922        TOTAL FREE ENERGY PREDICTED BY IDOCK:   -7.18 KCAL/MOL
REMARK 923 INTER-LIGAND FREE ENERGY PREDICTED BY IDOCK:   -6.71 KCAL/MOL
REMARK 924 INTRA-LIGAND FREE ENERGY PREDICTED BY IDOCK:   -0.46 KCAL/MOL
REMARK 927      BINDING AFFINITY PREDICTED BY RF-SCORE:    0.00 PKD
ROOT
HETATM    1  C   UNL     1      -7.883  18.334  68.062  1.00  0.00    -0.274 C  
HETATM    2  C   UNL     1      -8.321  19.021  66.756  1.00  0.00    -0.288 C  
HETATM    3  C   UNL     1      -7.057  19.384  65.953  1.00  0.00    -0.307 C  
HETATM    4  C   UNL     1      -9.081  20.321  67.073  1.00  0.00    -0.481 C  
HETATM    5  N   UNL     1      -9.132  18.133  65.902  1.00  0.00    -0.480 NA 
HETATM    6  H   UNL     1      -8.563  17.358  65.562  1.00  0.00     0.000 HD 
ENDROOT
BRANCH   5   7
HETATM    7  C   UNL     1     -10.361  17.623  66.520  1.00  0.00    -0.337 C  
BRANCH   7   8
HETATM    8  C   UNL     1     -10.530  16.112  66.273  1.00  0.00    -0.315 C  
HETATM    9  H   UNL     1      -9.448  14.647  65.519  1.00  0.00     0.000 HD 
HETATM   10  O   UNL     1      -9.343  15.579  65.671  1.00  0.00    -0.302 OA 
BRANCH   8  11
HETATM   11  C   UNL     1     -10.821  15.391  67.597  1.00  0.00    -0.304 C  
BRANCH  11  12
HETATM   12  O   UNL     1     -10.753  13.963  67.408  1.00  0.00    -0.268 OA 
BRANCH  12  13
HETATM   13  C   UNL     1     -11.188  13.231  68.490  1.00  0.00    -0.271 A  
HETATM   14  C   UNL     1     -12.063  13.759  69.446  1.00  0.00    -0.377 A  
HETATM   15  C   UNL     1     -12.521  12.973  70.498  1.00  0.00    -0.306 A  
HETATM   16  C   UNL     1     -12.103  11.653  70.608  1.00  0.00    -0.432 A  
HETATM   17  C   UNL     1     -11.198  11.113  69.685  1.00  0.00    -0.333 A  
HETATM   18  C   UNL     1     -10.691  11.921  68.640  1.00  0.00    -0.266 A  
HETATM   19  C   UNL     1      -9.669  11.369  67.668  1.00  0.00    -0.183 C  
HETATM   20  C   UNL     1      -9.025  10.059  68.137  1.00  0.00    -0.122 C  
HETATM   21  C   UNL     1     -10.085   9.074  68.653  1.00  0.00    -0.189 C  
HETATM   22  O   UNL     1      -8.281   9.464  67.071  1.00  0.00    -0.114 OA 
HETATM   23  H   UNL     1      -7.882   8.653  67.361  1.00  0.00     0.000 HD 
HETATM   24  O   UNL     1     -11.061   8.737  67.658  1.00  0.00    -0.480 OA 
HETATM   25  C   UNL     1     -10.778   9.670  69.878  1.00  0.00    -0.283 C  
HETATM   26  H   UNL     1     -11.717   8.128  67.977  1.00  0.00     0.000 HD 
ENDBRANCH  12  13
ENDBRANCH  11  12
ENDBRANCH   8  11
ENDBRANCH   7   8
ENDBRANCH   5   7
TORSDOF 5
ENDMDL
MODEL      109
REMARK 921   NORMALIZED FREE ENERGY PREDICTED BY IDOCK:   -4.98 KCAL/MOL
REMARK 922        TOTAL FREE ENERGY PREDICTED BY IDOCK:   -7.16 KCAL/MOL
REMARK 923 INTER-LIGAND FREE ENERGY PREDICTED BY IDOCK:   -6.10 KCAL/MOL
REMARK 924 INTRA-LIGAND FREE ENERGY PREDICTED BY IDOCK:   -1.07 KCAL/MOL
REMARK 927      BINDING AFFINITY PREDICTED BY RF-SCORE:    0.00 PKD
ROOT
HETATM    1  C   UNL     1      -7.466  12.906  67.483  1.00  0.00    -0.155 C  
HETATM    2  C   UNL     1      -6.697  12.532  68.763  1.00  0.00    -0.093 C  
HETATM    3  C   UNL     1      -6.681  13.760  69.693  1.00  0.00    -0.015 C  
HETATM    4  C   UNL     1      -5.242  12.169  68.416  1.00  0.00    -0.051 C  
HETATM    5  N   UNL     1      -7.349  11.438  69.507  1.00  0.00    -0.344 NA 
HETATM    6  H   UNL     1      -8.247  11.751  69.875  1.00  0.00     0.000 HD 
ENDROOT
BRANCH   5   7
HETATM    7  C   UNL     1      -7.518  10.186  68.760  1.00  0.00    -0.086 C  
BRANCH   7   8
HETATM    8  C   UNL     1      -8.825   9.471  69.148  1.00  0.00    -0.147 C  
HETATM    9  H   UNL     1     -10.435   9.889  70.206  1.00  0.00     0.000 HD 
HETATM   10  O   UNL     1      -9.628  10.331  69.966  1.00  0.00    -0.139 OA 
BRANCH   8  11
HETATM   11  C   UNL     1      -9.600   9.067  67.885  1.00  0.00    -0.147 C  
BRANCH  11  12
HETATM   12  O   UNL     1     -10.592  10.067  67.572  1.00  0.00    -0.242 OA 
BRANCH  12  13
HETATM   13  C   UNL     1     -10.399  10.692  66.361  1.00  0.00    -0.231 A  
HETATM   14  C   UNL     1      -9.773  10.054  65.283  1.00  0.00    -0.373 A  
HETATM   15  C   UNL     1      -9.641  10.698  64.059  1.00  0.00    -0.351 A  
HETATM   16  C   UNL     1     -10.128  11.990  63.900  1.00  0.00    -0.394 A  
HETATM   17  C   UNL     1     -10.724  12.663  64.975  1.00  0.00    -0.321 A  
HETATM   18  C   UNL     1     -10.818  12.031  66.236  1.00  0.00    -0.316 A  
HETATM   19  C   UNL     1     -11.408  12.765  67.422  1.00  0.00    -0.363 C  
HETATM   20  C   UNL     1     -11.538  14.278  67.202  1.00  0.00    -0.380 C  
HETATM   21  C   UNL     1     -12.150  14.587  65.827  1.00  0.00    -0.279 C  
HETATM   22  O   UNL     1     -12.334  14.862  68.235  1.00  0.00    -0.580 OA 
HETATM   23  H   UNL     1     -12.414  15.798  68.099  1.00  0.00     0.000 HD 
HETATM   24  O   UNL     1     -13.456  14.018  65.660  1.00  0.00    -0.713 OA 
HETATM   25  C   UNL     1     -11.218  14.074  64.729  1.00  0.00    -0.375 C  
HETATM   26  H   UNL     1     -13.835  14.209  64.810  1.00  0.00     0.000 HD 
ENDBRANCH  12  13
ENDBRANCH  11  12
ENDBRANCH   8  11
ENDBRANCH   7   8
ENDBRANCH   5   7
TORSDOF 5
ENDMDL
MODEL      110
REMARK 921   NORMALIZED FREE ENERGY PREDICTED BY IDOCK:   -4.98 KCAL/MOL
REMARK 922        TOTAL FREE ENERGY PREDICTED BY IDOCK:   -7.16 KCAL/MOL
REMARK 923 INTER-LIGAND FREE ENERGY PREDICTED BY IDOCK:   -6.59 KCAL/MOL
REMARK 924 INTRA-LIGAND FREE ENERGY PREDICTED BY IDOCK:   -0.57 KCAL/MOL
REMARK 927      BINDING AFFINITY PREDICTED BY RF-SCORE:    0.00 PKD
ROOT
HETATM    1  C   UNL     1      -6.786   6.531  65.938  1.00  0.00    -0.048 C  
HETATM    2  C   UNL     1      -8.009   6.368  65.016  1.00  0.00    -0.120 C  
HETATM    3  C   UNL     1      -8.096   4.892  64.586  1.00  0.00    -0.111 C  
HETATM    4  C   UNL     1      -7.834   7.230  63.753  1.00  0.00    -0.109 C  
HETATM    5  N   UNL     1      -9.273   6.692  65.703  1.00  0.00    -0.376 NA 
HETATM    6  H   UNL     1      -9.458   6.008  66.436  1.00  0.00     0.000 HD 
ENDROOT
BRANCH   5   7
HETATM    7  C   UNL     1      -9.358   8.051  66.248  1.00  0.00    -0.184 C  
BRANCH   7   8
HETATM    8  C   UNL     1     -10.563   8.202  67.197  1.00  0.00    -0.285 C  
HETATM    9  H   UNL     1     -11.609   7.034  68.391  1.00  0.00     0.000 HD 
HETATM   10  O   UNL     1     -10.866   6.941  67.806  1.00  0.00    -0.242 OA 
BRANCH   8  11
HETATM   11  C   UNL     1     -10.254   9.251  68.277  1.00  0.00    -0.201 C  
BRANCH  11  12
HETATM   12  O   UNL     1      -9.699  10.436  67.671  1.00  0.00    -0.164 OA 
BRANCH  12  13
HETATM   13  C   UNL     1     -10.479  11.560  67.815  1.00  0.00    -0.188 A  
HETATM   14  C   UNL     1     -10.709  12.155  69.061  1.00  0.00    -0.163 A  
HETATM   15  C   UNL     1     -11.462  13.319  69.162  1.00  0.00    -0.357 A  
HETATM   16  C   UNL     1     -11.998  13.899  68.019  1.00  0.00    -0.390 A  
HETATM   17  C   UNL     1     -11.813  13.301  66.765  1.00  0.00    -0.448 A  
HETATM   18  C   UNL     1     -11.089  12.091  66.661  1.00  0.00    -0.358 A  
HETATM   19  C   UNL     1     -10.929  11.403  65.321  1.00  0.00    -0.251 C  
HETATM   20  C   UNL     1     -11.881  11.935  64.243  1.00  0.00    -0.279 C  
HETATM   21  C   UNL     1     -11.900  13.471  64.230  1.00  0.00    -0.428 C  
HETATM   22  O   UNL     1     -11.501  11.438  62.958  1.00  0.00    -0.853 OA 
HETATM   23  H   UNL     1     -12.091  11.767  62.291  1.00  0.00     0.000 HD 
HETATM   24  O   UNL     1     -10.608  14.040  63.977  1.00  0.00    -0.505 OA 
HETATM   25  C   UNL     1     -12.439  13.983  65.566  1.00  0.00    -0.533 C  
HETATM   26  H   UNL     1     -10.620  14.990  63.968  1.00  0.00     0.000 HD 
ENDBRANCH  12  13
ENDBRANCH  11  12
ENDBRANCH   8  11
ENDBRANCH   7   8
ENDBRANCH   5   7
TORSDOF 5
ENDMDL
MODEL      111
REMARK 921   NORMALIZED FREE ENERGY PREDICTED BY IDOCK:   -4.98 KCAL/MOL
REMARK 922        TOTAL FREE ENERGY PREDICTED BY IDOCK:   -7.16 KCAL/MOL
REMARK 923 INTER-LIGAND FREE ENERGY PREDICTED BY IDOCK:   -5.73 KCAL/MOL
REMARK 924 INTRA-LIGAND FREE ENERGY PREDICTED BY IDOCK:   -1.42 KCAL/MOL
REMARK 927      BINDING AFFINITY PREDICTED BY RF-SCORE:    0.00 PKD
ROOT
HETATM    1  C   UNL     1     -10.814   6.325  68.848  1.00  0.00    -0.396 C  
HETATM    2  C   UNL     1      -9.491   5.545  68.957  1.00  0.00    -0.129 C  
HETATM    3  C   UNL     1      -8.411   6.314  68.173  1.00  0.00    -0.114 C  
HETATM    4  C   UNL     1      -9.648   4.151  68.324  1.00  0.00    -0.191 C  
HETATM    5  N   UNL     1      -9.018   5.439  70.350  1.00  0.00    -0.131 NA 
HETATM    6  H   UNL     1      -8.759   6.360  70.703  1.00  0.00     0.000 HD 
ENDROOT
BRANCH   5   7
HETATM    7  C   UNL     1      -9.948   4.786  71.279  1.00  0.00    -0.200 C  
BRANCH   7   8
HETATM    8  C   UNL     1      -9.941   5.473  72.658  1.00  0.00    -0.167 C  
HETATM    9  H   UNL     1      -9.857   4.909  74.545  1.00  0.00     0.000 HD 
HETATM   10  O   UNL     1      -9.861   4.486  73.694  1.00  0.00    -0.129 OA 
BRANCH   8  11
HETATM   11  C   UNL     1      -8.753   6.442  72.758  1.00  0.00    -0.125 C  
BRANCH  11  12
HETATM   12  O   UNL     1      -9.224   7.771  73.062  1.00  0.00    -0.177 OA 
BRANCH  12  13
HETATM   13  C   UNL     1      -9.496   8.540  71.953  1.00  0.00    -0.280 A  
HETATM   14  C   UNL     1      -8.498   8.929  71.052  1.00  0.00    -0.244 A  
HETATM   15  C   UNL     1      -8.818   9.663  69.915  1.00  0.00    -0.240 A  
HETATM   16  C   UNL     1     -10.138  10.020  69.671  1.00  0.00    -0.263 A  
HETATM   17  C   UNL     1     -11.149   9.675  70.578  1.00  0.00    -0.369 A  
HETATM   18  C   UNL     1     -10.823   8.970  71.760  1.00  0.00    -0.437 A  
HETATM   19  C   UNL     1     -11.895   8.638  72.777  1.00  0.00    -0.058 C  
HETATM   20  C   UNL     1     -13.199   9.418  72.568  1.00  0.00    -0.325 C  
HETATM   21  C   UNL     1     -13.623   9.402  71.092  1.00  0.00    -0.153 C  
HETATM   22  O   UNL     1     -14.238   8.872  73.383  1.00  0.00    -1.241 OA 
HETATM   23  H   UNL     1     -15.046   9.356  73.254  1.00  0.00     0.000 HD 
HETATM   24  O   UNL     1     -13.835   8.075  70.590  1.00  0.00    -0.224 OA 
HETATM   25  C   UNL     1     -12.562  10.112  70.251  1.00  0.00    -0.139 C  
HETATM   26  H   UNL     1     -14.097   8.065  69.676  1.00  0.00     0.000 HD 
ENDBRANCH  12  13
ENDBRANCH  11  12
ENDBRANCH   8  11
ENDBRANCH   7   8
ENDBRANCH   5   7
TORSDOF 5
ENDMDL
MODEL      112
REMARK 921   NORMALIZED FREE ENERGY PREDICTED BY IDOCK:   -4.92 KCAL/MOL
REMARK 922        TOTAL FREE ENERGY PREDICTED BY IDOCK:   -7.09 KCAL/MOL
REMARK 923 INTER-LIGAND FREE ENERGY PREDICTED BY IDOCK:   -7.26 KCAL/MOL
REMARK 924 INTRA-LIGAND FREE ENERGY PREDICTED BY IDOCK:    0.18 KCAL/MOL
REMARK 927      BINDING AFFINITY PREDICTED BY RF-SCORE:    0.00 PKD
ROOT
HETATM    1  C   UNL     1      -6.581  14.014  68.905  1.00  0.00    -0.101 C  
HETATM    2  C   UNL     1      -7.466  12.835  68.460  1.00  0.00    -0.120 C  
HETATM    3  C   UNL     1      -6.899  11.544  69.079  1.00  0.00    -0.107 C  
HETATM    4  C   UNL     1      -7.424  12.695  66.928  1.00  0.00     0.144 C  
HETATM    5  N   UNL     1      -8.855  12.967  68.938  1.00  0.00    -0.357 NA 
HETATM    6  H   UNL     1      -8.884  12.891  69.954  1.00  0.00     0.000 HD 
ENDROOT
BRANCH   5   7
HETATM    7  C   UNL     1      -9.553  14.182  68.502  1.00  0.00    -0.214 C  
BRANCH   7   8
HETATM    8  C   UNL     1     -11.036  14.158  68.918  1.00  0.00    -0.263 C  
HETATM    9  H   UNL     1     -12.418  15.480  69.396  1.00  0.00     0.000 HD 
HETATM   10  O   UNL     1     -11.503  15.495  69.140  1.00  0.00    -0.300 OA 
BRANCH   8  11
HETATM   11  C   UNL     1     -11.878  13.478  67.827  1.00  0.00    -0.362 C  
BRANCH  11  12
HETATM   12  O   UNL     1     -11.961  12.060  68.079  1.00  0.00    -0.495 OA 
BRANCH  12  13
HETATM   13  C   UNL     1     -11.171  11.295  67.252  1.00  0.00    -0.296 A  
HETATM   14  C   UNL     1     -10.410  10.221  67.729  1.00  0.00    -0.246 A  
HETATM   15  C   UNL     1      -9.663   9.439  66.857  1.00  0.00    -0.242 A  
HETATM   16  C   UNL     1      -9.663   9.725  65.497  1.00  0.00    -0.382 A  
HETATM   17  C   UNL     1     -10.386  10.818  65.000  1.00  0.00    -0.357 A  
HETATM   18  C   UNL     1     -11.110  11.646  65.889  1.00  0.00    -0.320 A  
HETATM   19  C   UNL     1     -11.850  12.864  65.375  1.00  0.00    -0.444 C  
HETATM   20  C   UNL     1     -11.448  13.268  63.951  1.00  0.00    -0.362 C  
HETATM   21  C   UNL     1     -11.403  12.047  63.020  1.00  0.00     0.030 C  
HETATM   22  O   UNL     1     -12.359  14.242  63.438  1.00  0.00    -1.113 OA 
HETATM   23  H   UNL     1     -12.110  14.493  62.556  1.00  0.00     0.000 HD 
HETATM   24  O   UNL     1     -12.664  11.369  62.932  1.00  0.00    -0.951 OA 
HETATM   25  C   UNL     1     -10.327  11.076  63.508  1.00  0.00    -0.402 C  
HETATM   26  H   UNL     1     -12.637  10.614  62.356  1.00  0.00     0.000 HD 
ENDBRANCH  12  13
ENDBRANCH  11  12
ENDBRANCH   8  11
ENDBRANCH   7   8
ENDBRANCH   5   7
TORSDOF 5
ENDMDL
MODEL      113
REMARK 921   NORMALIZED FREE ENERGY PREDICTED BY IDOCK:   -4.92 KCAL/MOL
REMARK 922        TOTAL FREE ENERGY PREDICTED BY IDOCK:   -7.08 KCAL/MOL
REMARK 923 INTER-LIGAND FREE ENERGY PREDICTED BY IDOCK:   -6.39 KCAL/MOL
REMARK 924 INTRA-LIGAND FREE ENERGY PREDICTED BY IDOCK:   -0.69 KCAL/MOL
REMARK 927      BINDING AFFINITY PREDICTED BY RF-SCORE:    0.00 PKD
ROOT
HETATM    1  C   UNL     1     -10.691   6.195  68.001  1.00  0.00    -0.370 C  
HETATM    2  C   UNL     1      -9.594   5.862  66.973  1.00  0.00    -0.132 C  
HETATM    3  C   UNL     1      -9.960   4.531  66.291  1.00  0.00    -0.268 C  
HETATM    4  C   UNL     1      -8.242   5.684  67.686  1.00  0.00    -0.101 C  
HETATM    5  N   UNL     1      -9.498   6.878  65.909  1.00  0.00    -0.392 NA 
HETATM    6  H   UNL     1     -10.343   6.869  65.339  1.00  0.00     0.000 HD 
ENDROOT
BRANCH   5   7
HETATM    7  C   UNL     1      -9.216   8.243  66.371  1.00  0.00    -0.195 C  
BRANCH   7   8
HETATM    8  C   UNL     1      -8.246   8.969  65.421  1.00  0.00    -0.130 C  
HETATM    9  H   UNL     1      -6.674   8.493  64.329  1.00  0.00     0.000 HD 
HETATM   10  O   UNL     1      -7.273   8.045  64.916  1.00  0.00    -0.069 OA 
BRANCH   8  11
HETATM   11  C   UNL     1      -9.023   9.605  64.259  1.00  0.00    -0.229 C  
BRANCH  11  12
HETATM   12  O   UNL     1      -8.943  11.044  64.339  1.00  0.00    -0.148 OA 
BRANCH  12  13
HETATM   13  C   UNL     1     -10.162  11.668  64.472  1.00  0.00    -0.291 A  
HETATM   14  C   UNL     1     -11.094  11.717  63.428  1.00  0.00    -0.448 A  
HETATM   15  C   UNL     1     -12.336  12.313  63.614  1.00  0.00    -0.664 A  
HETATM   16  C   UNL     1     -12.658  12.872  64.845  1.00  0.00    -0.525 A  
HETATM   17  C   UNL     1     -11.728  12.869  65.894  1.00  0.00    -0.449 A  
HETATM   18  C   UNL     1     -10.445  12.307  65.695  1.00  0.00    -0.293 A  
HETATM   19  C   UNL     1      -9.410  12.346  66.800  1.00  0.00    -0.220 C  
HETATM   20  C   UNL     1      -9.762  13.316  67.934  1.00  0.00    -0.224 C  
HETATM   21  C   UNL     1     -11.226  13.152  68.369  1.00  0.00    -0.271 C  
HETATM   22  O   UNL     1      -8.893  13.110  69.050  1.00  0.00    -0.343 OA 
HETATM   23  H   UNL     1      -9.111  13.711  69.752  1.00  0.00     0.000 HD 
HETATM   24  O   UNL     1     -11.522  11.828  68.834  1.00  0.00    -0.244 OA 
HETATM   25  C   UNL     1     -12.146  13.509  67.202  1.00  0.00    -0.386 C  
HETATM   26  H   UNL     1     -12.427  11.726  69.103  1.00  0.00     0.000 HD 
ENDBRANCH  12  13
ENDBRANCH  11  12
ENDBRANCH   8  11
ENDBRANCH   7   8
ENDBRANCH   5   7
TORSDOF 5
ENDMDL
MODEL      114
REMARK 921   NORMALIZED FREE ENERGY PREDICTED BY IDOCK:   -4.91 KCAL/MOL
REMARK 922        TOTAL FREE ENERGY PREDICTED BY IDOCK:   -7.08 KCAL/MOL
REMARK 923 INTER-LIGAND FREE ENERGY PREDICTED BY IDOCK:   -6.25 KCAL/MOL
REMARK 924 INTRA-LIGAND FREE ENERGY PREDICTED BY IDOCK:   -0.82 KCAL/MOL
REMARK 927      BINDING AFFINITY PREDICTED BY RF-SCORE:    0.00 PKD
ROOT
HETATM    1  C   UNL     1      -8.609  19.912  68.584  1.00  0.00    -0.134 C  
HETATM    2  C   UNL     1      -9.100  18.805  67.633  1.00  0.00    -0.282 C  
HETATM    3  C   UNL     1      -9.159  19.383  66.207  1.00  0.00    -0.380 C  
HETATM    4  C   UNL     1     -10.518  18.358  68.032  1.00  0.00    -0.390 C  
HETATM    5  N   UNL     1      -8.178  17.654  67.592  1.00  0.00    -0.222 NA 
HETATM    6  H   UNL     1      -7.293  17.930  67.169  1.00  0.00     0.000 HD 
ENDROOT
BRANCH   5   7
HETATM    7  C   UNL     1      -7.938  16.999  68.883  1.00  0.00    -0.217 C  
BRANCH   7   8
HETATM    8  C   UNL     1      -8.073  15.469  68.771  1.00  0.00    -0.170 C  
HETATM    9  H   UNL     1      -9.301  14.079  69.439  1.00  0.00     0.000 HD 
HETATM   10  O   UNL     1      -9.218  15.023  69.508  1.00  0.00    -0.164 OA 
BRANCH   8  11
HETATM   11  C   UNL     1      -8.200  15.057  67.296  1.00  0.00    -0.211 C  
BRANCH  11  12
HETATM   12  O   UNL     1      -9.074  13.916  67.175  1.00  0.00    -0.219 OA 
BRANCH  12  13
HETATM   13  C   UNL     1     -10.050  14.055  66.214  1.00  0.00    -0.300 A  
HETATM   14  C   UNL     1     -10.796  15.231  66.071  1.00  0.00    -0.331 A  
HETATM   15  C   UNL     1     -11.738  15.353  65.056  1.00  0.00    -0.102 A  
HETATM   16  C   UNL     1     -11.949  14.298  64.177  1.00  0.00    -0.401 A  
HETATM   17  C   UNL     1     -11.242  13.097  64.323  1.00  0.00    -0.422 A  
HETATM   18  C   UNL     1     -10.316  12.949  65.383  1.00  0.00    -0.310 A  
HETATM   19  C   UNL     1      -9.586  11.638  65.588  1.00  0.00    -0.252 C  
HETATM   20  C   UNL     1     -10.194  10.470  64.803  1.00  0.00    -0.303 C  
HETATM   21  C   UNL     1     -10.490  10.872  63.350  1.00  0.00    -0.153 C  
HETATM   22  O   UNL     1      -9.314   9.344  64.831  1.00  0.00    -0.375 OA 
HETATM   23  H   UNL     1      -9.691   8.620  64.345  1.00  0.00     0.000 HD 
HETATM   24  O   UNL     1      -9.317  11.297  62.642  1.00  0.00    -0.427 OA 
HETATM   25  C   UNL     1     -11.536  11.987  63.335  1.00  0.00    -0.489 C  
HETATM   26  H   UNL     1      -9.499  11.546  61.744  1.00  0.00     0.000 HD 
ENDBRANCH  12  13
ENDBRANCH  11  12
ENDBRANCH   8  11
ENDBRANCH   7   8
ENDBRANCH   5   7
TORSDOF 5
ENDMDL
MODEL      115
REMARK 921   NORMALIZED FREE ENERGY PREDICTED BY IDOCK:   -4.91 KCAL/MOL
REMARK 922        TOTAL FREE ENERGY PREDICTED BY IDOCK:   -7.07 KCAL/MOL
REMARK 923 INTER-LIGAND FREE ENERGY PREDICTED BY IDOCK:   -6.54 KCAL/MOL
REMARK 924 INTRA-LIGAND FREE ENERGY PREDICTED BY IDOCK:   -0.54 KCAL/MOL
REMARK 927      BINDING AFFINITY PREDICTED BY RF-SCORE:    0.00 PKD
ROOT
HETATM    1  C   UNL     1     -13.468  12.852  72.242  1.00  0.00    -0.631 C  
HETATM    2  C   UNL     1     -13.071  14.329  72.068  1.00  0.00    -0.372 C  
HETATM    3  C   UNL     1     -12.780  14.919  73.461  1.00  0.00    -0.629 C  
HETATM    4  C   UNL     1     -14.237  15.117  71.445  1.00  0.00    -0.597 C  
HETATM    5  N   UNL     1     -11.843  14.488  71.268  1.00  0.00    -0.450 NA 
HETATM    6  H   UNL     1     -11.044  14.105  71.773  1.00  0.00     0.000 HD 
ENDROOT
BRANCH   5   7
HETATM    7  C   UNL     1     -11.900  13.924  69.914  1.00  0.00    -0.328 C  
BRANCH   7   8
HETATM    8  C   UNL     1     -11.806  15.026  68.842  1.00  0.00    -0.307 C  
HETATM    9  H   UNL     1     -10.486  16.378  68.280  1.00  0.00     0.000 HD 
HETATM   10  O   UNL     1     -10.544  15.699  68.942  1.00  0.00    -0.212 OA 
BRANCH   8  11
HETATM   11  C   UNL     1     -11.970  14.414  67.443  1.00  0.00    -0.373 C  
BRANCH  11  12
HETATM   12  O   UNL     1     -10.677  14.087  66.891  1.00  0.00    -0.282 OA 
BRANCH  12  13
HETATM   13  C   UNL     1     -10.300  12.778  67.081  1.00  0.00    -0.233 A  
HETATM   14  C   UNL     1     -11.177  11.709  66.863  1.00  0.00    -0.376 A  
HETATM   15  C   UNL     1     -10.745  10.396  67.016  1.00  0.00    -0.298 A  
HETATM   16  C   UNL     1      -9.433  10.138  67.394  1.00  0.00    -0.175 A  
HETATM   17  C   UNL     1      -8.547  11.192  67.655  1.00  0.00    -0.126 A  
HETATM   18  C   UNL     1      -8.994  12.530  67.547  1.00  0.00    -0.185 A  
HETATM   19  C   UNL     1      -8.065  13.680  67.880  1.00  0.00    -0.164 C  
HETATM   20  C   UNL     1      -6.806  13.248  68.641  1.00  0.00    -0.099 C  
HETATM   21  C   UNL     1      -6.165  12.010  67.995  1.00  0.00    -0.058 C  
HETATM   22  O   UNL     1      -5.863  14.321  68.687  1.00  0.00    -0.079 OA 
HETATM   23  H   UNL     1      -5.083  14.053  69.159  1.00  0.00     0.000 HD 
HETATM   24  O   UNL     1      -5.783  12.232  66.630  1.00  0.00    -0.479 OA 
HETATM   25  C   UNL     1      -7.137  10.834  68.076  1.00  0.00    -0.081 C  
HETATM   26  H   UNL     1      -5.387  11.467  66.229  1.00  0.00     0.000 HD 
ENDBRANCH  12  13
ENDBRANCH  11  12
ENDBRANCH   8  11
ENDBRANCH   7   8
ENDBRANCH   5   7
TORSDOF 5
ENDMDL
MODEL      116
REMARK 921   NORMALIZED FREE ENERGY PREDICTED BY IDOCK:   -4.91 KCAL/MOL
REMARK 922        TOTAL FREE ENERGY PREDICTED BY IDOCK:   -7.07 KCAL/MOL
REMARK 923 INTER-LIGAND FREE ENERGY PREDICTED BY IDOCK:   -6.52 KCAL/MOL
REMARK 924 INTRA-LIGAND FREE ENERGY PREDICTED BY IDOCK:   -0.55 KCAL/MOL
REMARK 927      BINDING AFFINITY PREDICTED BY RF-SCORE:    0.00 PKD
ROOT
HETATM    1  C   UNL     1      -9.791  16.229  67.796  1.00  0.00    -0.237 C  
HETATM    2  C   UNL     1      -9.123  16.747  66.509  1.00  0.00    -0.273 C  
HETATM    3  C   UNL     1      -7.607  16.498  66.619  1.00  0.00    -0.310 C  
HETATM    4  C   UNL     1      -9.354  18.262  66.369  1.00  0.00    -0.280 C  
HETATM    5  N   UNL     1      -9.591  16.030  65.309  1.00  0.00    -0.305 NA 
HETATM    6  H   UNL     1      -9.284  15.058  65.339  1.00  0.00     0.000 HD 
ENDROOT
BRANCH   5   7
HETATM    7  C   UNL     1     -11.036  16.095  65.065  1.00  0.00    -0.294 C  
BRANCH   7   8
HETATM    8  C   UNL     1     -11.677  14.694  65.101  1.00  0.00    -0.364 C  
HETATM    9  H   UNL     1     -13.022  13.700  64.057  1.00  0.00     0.000 HD 
HETATM   10  O   UNL     1     -12.627  14.564  64.035  1.00  0.00    -0.797 OA 
BRANCH   8  11
HETATM   11  C   UNL     1     -10.591  13.615  64.976  1.00  0.00    -0.383 C  
BRANCH  11  12
HETATM   12  O   UNL     1     -11.193  12.304  64.986  1.00  0.00    -0.305 OA 
BRANCH  12  13
HETATM   13  C   UNL     1     -10.396  11.315  64.456  1.00  0.00    -0.322 A  
HETATM   14  C   UNL     1      -9.987  11.323  63.117  1.00  0.00    -0.398 A  
HETATM   15  C   UNL     1      -9.141  10.334  62.630  1.00  0.00    -0.299 A  
HETATM   16  C   UNL     1      -8.698   9.323  63.474  1.00  0.00    -0.188 A  
HETATM   17  C   UNL     1      -9.124   9.272  64.808  1.00  0.00    -0.201 A  
HETATM   18  C   UNL     1     -10.023  10.249  65.297  1.00  0.00    -0.387 A  
HETATM   19  C   UNL     1     -10.537  10.176  66.721  1.00  0.00    -0.239 C  
HETATM   20  C   UNL     1     -10.279   8.823  67.395  1.00  0.00    -0.252 C  
HETATM   21  C   UNL     1      -8.836   8.352  67.160  1.00  0.00    -0.130 C  
HETATM   22  O   UNL     1     -10.544   8.910  68.797  1.00  0.00    -0.276 OA 
HETATM   23  H   UNL     1     -10.385   8.072  69.215  1.00  0.00     0.000 HD 
HETATM   24  O   UNL     1      -7.862   9.274  67.668  1.00  0.00    -0.095 OA 
HETATM   25  C   UNL     1      -8.611   8.133  65.664  1.00  0.00    -0.181 C  
HETATM   26  H   UNL     1      -6.969   8.984  67.523  1.00  0.00     0.000 HD 
ENDBRANCH  12  13
ENDBRANCH  11  12
ENDBRANCH   8  11
ENDBRANCH   7   8
ENDBRANCH   5   7
TORSDOF 5
ENDMDL
MODEL      117
REMARK 921   NORMALIZED FREE ENERGY PREDICTED BY IDOCK:   -4.89 KCAL/MOL
REMARK 922        TOTAL FREE ENERGY PREDICTED BY IDOCK:   -7.05 KCAL/MOL
REMARK 923 INTER-LIGAND FREE ENERGY PREDICTED BY IDOCK:   -6.42 KCAL/MOL
REMARK 924 INTRA-LIGAND FREE ENERGY PREDICTED BY IDOCK:   -0.62 KCAL/MOL
REMARK 927      BINDING AFFINITY PREDICTED BY RF-SCORE:    0.00 PKD
ROOT
HETATM    1  C   UNL     1      -9.430  17.044  66.835  1.00  0.00    -0.266 C  
HETATM    2  C   UNL     1      -8.921  15.823  67.624  1.00  0.00    -0.187 C  
HETATM    3  C   UNL     1      -8.643  16.265  69.073  1.00  0.00    -0.247 C  
HETATM    4  C   UNL     1      -7.603  15.313  67.013  1.00  0.00    -0.161 C  
HETATM    5  N   UNL     1      -9.923  14.742  67.688  1.00  0.00    -0.226 NA 
HETATM    6  H   UNL     1     -10.725  15.042  68.242  1.00  0.00     0.000 HD 
ENDROOT
BRANCH   5   7
HETATM    7  C   UNL     1     -10.369  14.225  66.390  1.00  0.00    -0.286 C  
BRANCH   7   8
HETATM    8  C   UNL     1     -11.867  13.864  66.413  1.00  0.00    -0.411 C  
HETATM    9  H   UNL     1     -13.169  13.046  65.179  1.00  0.00     0.000 HD 
HETATM   10  O   UNL     1     -12.245  13.269  65.165  1.00  0.00    -0.391 OA 
BRANCH   8  11
HETATM   11  C   UNL     1     -12.158  12.896  67.570  1.00  0.00    -0.192 C  
BRANCH  11  12
HETATM   12  O   UNL     1     -11.392  11.685  67.406  1.00  0.00    -0.280 OA 
BRANCH  12  13
HETATM   13  C   UNL     1     -11.337  10.897  68.533  1.00  0.00    -0.299 A  
HETATM   14  C   UNL     1     -11.764  11.354  69.785  1.00  0.00    -0.418 A  
HETATM   15  C   UNL     1     -11.741  10.514  70.892  1.00  0.00    -0.431 A  
HETATM   16  C   UNL     1     -11.284   9.208  70.760  1.00  0.00    -0.336 A  
HETATM   17  C   UNL     1     -10.816   8.739  69.525  1.00  0.00    -0.151 A  
HETATM   18  C   UNL     1     -10.792   9.604  68.407  1.00  0.00    -0.212 A  
HETATM   19  C   UNL     1     -10.237   9.130  67.080  1.00  0.00    -0.333 C  
HETATM   20  C   UNL     1      -9.428   7.831  67.185  1.00  0.00    -0.155 C  
HETATM   21  C   UNL     1     -10.167   6.785  68.034  1.00  0.00    -0.171 C  
HETATM   22  O   UNL     1      -9.164   7.306  65.882  1.00  0.00    -0.354 OA 
HETATM   23  H   UNL     1      -8.664   6.501  65.947  1.00  0.00     0.000 HD 
HETATM   24  O   UNL     1     -11.454   6.445  67.500  1.00  0.00    -0.686 OA 
HETATM   25  C   UNL     1     -10.321   7.308  69.462  1.00  0.00    -0.230 C  
HETATM   26  H   UNL     1     -11.912   5.799  68.025  1.00  0.00     0.000 HD 
ENDBRANCH  12  13
ENDBRANCH  11  12
ENDBRANCH   8  11
ENDBRANCH   7   8
ENDBRANCH   5   7
TORSDOF 5
ENDMDL
MODEL      118
REMARK 921   NORMALIZED FREE ENERGY PREDICTED BY IDOCK:   -4.89 KCAL/MOL
REMARK 922        TOTAL FREE ENERGY PREDICTED BY IDOCK:   -7.04 KCAL/MOL
REMARK 923 INTER-LIGAND FREE ENERGY PREDICTED BY IDOCK:   -6.11 KCAL/MOL
REMARK 924 INTRA-LIGAND FREE ENERGY PREDICTED BY IDOCK:   -0.93 KCAL/MOL
REMARK 927      BINDING AFFINITY PREDICTED BY RF-SCORE:    0.00 PKD
ROOT
HETATM    1  C   UNL     1     -11.733  11.891  67.676  1.00  0.00    -0.346 C  
HETATM    2  C   UNL     1     -11.016  10.926  68.638  1.00  0.00    -0.227 C  
HETATM    3  C   UNL     1     -11.745  10.967  69.995  1.00  0.00    -0.437 C  
HETATM    4  C   UNL     1      -9.563  11.382  68.856  1.00  0.00    -0.087 C  
HETATM    5  N   UNL     1     -11.064   9.530  68.167  1.00  0.00    -0.503 NA 
HETATM    6  H   UNL     1     -12.024   9.186  68.186  1.00  0.00     0.000 HD 
ENDROOT
BRANCH   5   7
HETATM    7  C   UNL     1     -10.470   9.294  66.846  1.00  0.00    -0.214 C  
BRANCH   7   8
HETATM    8  C   UNL     1      -9.506   8.093  66.867  1.00  0.00    -0.191 C  
HETATM    9  H   UNL     1      -8.135   7.371  68.086  1.00  0.00     0.000 HD 
HETATM   10  O   UNL     1      -8.730   8.112  68.073  1.00  0.00    -0.128 OA 
BRANCH   8  11
HETATM   11  C   UNL     1     -10.298   6.781  66.768  1.00  0.00    -0.215 C  
BRANCH  11  12
HETATM   12  O   UNL     1     -11.135   6.619  67.932  1.00  0.00    -0.269 OA 
BRANCH  12  13
HETATM   13  C   UNL     1     -10.635   5.742  68.867  1.00  0.00    -0.267 A  
HETATM   14  C   UNL     1      -9.880   4.618  68.509  1.00  0.00    -0.181 A  
HETATM   15  C   UNL     1      -9.349   3.782  69.484  1.00  0.00    -0.249 A  
HETATM   16  C   UNL     1      -9.570   4.058  70.828  1.00  0.00    -0.263 A  
HETATM   17  C   UNL     1     -10.354   5.155  71.210  1.00  0.00    -0.276 A  
HETATM   18  C   UNL     1     -10.937   5.981  70.222  1.00  0.00    -0.412 A  
HETATM   19  C   UNL     1     -11.832   7.137  70.618  1.00  0.00    -0.334 C  
HETATM   20  C   UNL     1     -12.292   7.082  72.080  1.00  0.00    -0.267 C  
HETATM   21  C   UNL     1     -11.117   6.770  73.019  1.00  0.00    -0.217 C  
HETATM   22  O   UNL     1     -12.903   8.320  72.453  1.00  0.00    -0.505 OA 
HETATM   23  H   UNL     1     -13.187   8.285  73.359  1.00  0.00     0.000 HD 
HETATM   24  O   UNL     1     -10.068   7.744  72.937  1.00  0.00    -0.248 OA 
HETATM   25  C   UNL     1     -10.562   5.383  72.693  1.00  0.00    -0.274 C  
HETATM   26  H   UNL     1      -9.341   7.552  73.518  1.00  0.00     0.000 HD 
ENDBRANCH  12  13
ENDBRANCH  11  12
ENDBRANCH   8  11
ENDBRANCH   7   8
ENDBRANCH   5   7
TORSDOF 5
ENDMDL
MODEL      119
REMARK 921   NORMALIZED FREE ENERGY PREDICTED BY IDOCK:   -4.88 KCAL/MOL
REMARK 922        TOTAL FREE ENERGY PREDICTED BY IDOCK:   -7.04 KCAL/MOL
REMARK 923 INTER-LIGAND FREE ENERGY PREDICTED BY IDOCK:   -6.00 KCAL/MOL
REMARK 924 INTRA-LIGAND FREE ENERGY PREDICTED BY IDOCK:   -1.03 KCAL/MOL
REMARK 927      BINDING AFFINITY PREDICTED BY RF-SCORE:    0.00 PKD
ROOT
HETATM    1  C   UNL     1     -10.525  18.433  65.995  1.00  0.00    -0.400 C  
HETATM    2  C   UNL     1      -9.906  17.207  66.692  1.00  0.00    -0.289 C  
HETATM    3  C   UNL     1      -9.814  17.504  68.201  1.00  0.00    -0.306 C  
HETATM    4  C   UNL     1      -8.483  16.961  66.160  1.00  0.00    -0.281 C  
HETATM    5  N   UNL     1     -10.739  15.999  66.542  1.00  0.00    -0.281 NA 
HETATM    6  H   UNL     1     -11.619  16.116  67.045  1.00  0.00     0.000 HD 
ENDROOT
BRANCH   5   7
HETATM    7  C   UNL     1     -10.999  15.586  65.158  1.00  0.00    -0.409 C  
BRANCH   7   8
HETATM    8  C   UNL     1     -12.264  14.713  65.060  1.00  0.00    -0.322 C  
HETATM    9  H   UNL     1     -13.306  13.847  63.628  1.00  0.00     0.000 HD 
HETATM   10  O   UNL     1     -12.526  14.386  63.689  1.00  0.00    -0.805 OA 
BRANCH   8  11
HETATM   11  C   UNL     1     -12.084  13.430  65.885  1.00  0.00    -0.439 C  
BRANCH  11  12
HETATM   12  O   UNL     1     -10.686  13.083  65.961  1.00  0.00    -0.270 OA 
BRANCH  12  13
HETATM   13  C   UNL     1     -10.376  12.219  66.987  1.00  0.00    -0.219 A  
HETATM   14  C   UNL     1     -11.292  11.279  67.474  1.00  0.00    -0.360 A  
HETATM   15  C   UNL     1     -10.927  10.389  68.477  1.00  0.00    -0.302 A  
HETATM   16  C   UNL     1      -9.644  10.433  69.009  1.00  0.00    -0.212 A  
HETATM   17  C   UNL     1      -8.722  11.391  68.565  1.00  0.00    -0.149 A  
HETATM   18  C   UNL     1      -9.103  12.330  67.578  1.00  0.00    -0.182 A  
HETATM   19  C   UNL     1      -8.136  13.406  67.128  1.00  0.00    -0.096 C  
HETATM   20  C   UNL     1      -6.929  13.572  68.059  1.00  0.00    -0.133 C  
HETATM   21  C   UNL     1      -6.320  12.210  68.425  1.00  0.00    -0.054 C  
HETATM   22  O   UNL     1      -5.941  14.402  67.444  1.00  0.00    -0.345 OA 
HETATM   23  H   UNL     1      -5.193  14.505  68.021  1.00  0.00     0.000 HD 
HETATM   24  O   UNL     1      -5.875  11.474  67.276  1.00  0.00    -0.068 OA 
HETATM   25  C   UNL     1      -7.347  11.387  69.201  1.00  0.00    -0.081 C  
HETATM   26  H   UNL     1      -5.498  10.632  67.502  1.00  0.00     0.000 HD 
ENDBRANCH  12  13
ENDBRANCH  11  12
ENDBRANCH   8  11
ENDBRANCH   7   8
ENDBRANCH   5   7
TORSDOF 5
ENDMDL
MODEL      120
REMARK 921   NORMALIZED FREE ENERGY PREDICTED BY IDOCK:   -4.88 KCAL/MOL
REMARK 922        TOTAL FREE ENERGY PREDICTED BY IDOCK:   -7.03 KCAL/MOL
REMARK 923 INTER-LIGAND FREE ENERGY PREDICTED BY IDOCK:   -6.51 KCAL/MOL
REMARK 924 INTRA-LIGAND FREE ENERGY PREDICTED BY IDOCK:   -0.51 KCAL/MOL
REMARK 927      BINDING AFFINITY PREDICTED BY RF-SCORE:    0.00 PKD
ROOT
HETATM    1  C   UNL     1      -7.006   9.941  69.403  1.00  0.00    -0.063 C  
HETATM    2  C   UNL     1      -7.536   8.516  69.161  1.00  0.00    -0.089 C  
HETATM    3  C   UNL     1      -7.251   7.675  70.420  1.00  0.00    -0.063 C  
HETATM    4  C   UNL     1      -6.797   7.874  67.974  1.00  0.00    -0.072 C  
HETATM    5  N   UNL     1      -8.995   8.490  68.948  1.00  0.00    -0.145 NA 
HETATM    6  H   UNL     1      -9.479   8.761  69.804  1.00  0.00     0.000 HD 
ENDROOT
BRANCH   5   7
HETATM    7  C   UNL     1      -9.477   9.295  67.820  1.00  0.00    -0.140 C  
BRANCH   7   8
HETATM    8  C   UNL     1     -10.825   9.967  68.143  1.00  0.00    -0.255 C  
HETATM    9  H   UNL     1     -11.644  10.880  69.686  1.00  0.00     0.000 HD 
HETATM   10  O   UNL     1     -10.813  10.465  69.487  1.00  0.00    -0.221 OA 
BRANCH   8  11
HETATM   11  C   UNL     1     -11.090  11.115  67.157  1.00  0.00    -0.287 C  
BRANCH  11  12
HETATM   12  O   UNL     1     -12.113  11.989  67.679  1.00  0.00    -0.547 OA 
BRANCH  12  13
HETATM   13  C   UNL     1     -11.704  13.291  67.854  1.00  0.00    -0.357 A  
HETATM   14  C   UNL     1     -11.003  13.993  66.867  1.00  0.00    -0.301 A  
HETATM   15  C   UNL     1     -10.650  15.324  67.060  1.00  0.00    -0.306 A  
HETATM   16  C   UNL     1     -10.990  15.965  68.245  1.00  0.00    -0.329 A  
HETATM   17  C   UNL     1     -11.658  15.273  69.263  1.00  0.00    -0.350 A  
HETATM   18  C   UNL     1     -11.977  13.905  69.092  1.00  0.00    -0.404 A  
HETATM   19  C   UNL     1     -12.649  13.128  70.205  1.00  0.00    -0.133 C  
HETATM   20  C   UNL     1     -12.608  13.842  71.562  1.00  0.00    -0.334 C  
HETATM   21  C   UNL     1     -13.001  15.321  71.421  1.00  0.00    -0.431 C  
HETATM   22  O   UNL     1     -13.476  13.190  72.491  1.00  0.00    -0.569 OA 
HETATM   23  H   UNL     1     -13.450  13.633  73.331  1.00  0.00     0.000 HD 
HETATM   24  O   UNL     1     -14.320  15.496  70.886  1.00  0.00    -0.852 OA 
HETATM   25  C   UNL     1     -11.983  16.034  70.532  1.00  0.00    -0.268 C  
HETATM   26  H   UNL     1     -14.564  16.410  70.800  1.00  0.00     0.000 HD 
ENDBRANCH  12  13
ENDBRANCH  11  12
ENDBRANCH   8  11
ENDBRANCH   7   8
ENDBRANCH   5   7
TORSDOF 5
ENDMDL
MODEL      121
REMARK 921   NORMALIZED FREE ENERGY PREDICTED BY IDOCK:   -4.85 KCAL/MOL
REMARK 922        TOTAL FREE ENERGY PREDICTED BY IDOCK:   -7.00 KCAL/MOL
REMARK 923 INTER-LIGAND FREE ENERGY PREDICTED BY IDOCK:   -6.51 KCAL/MOL
REMARK 924 INTRA-LIGAND FREE ENERGY PREDICTED BY IDOCK:   -0.49 KCAL/MOL
REMARK 927      BINDING AFFINITY PREDICTED BY RF-SCORE:    0.00 PKD
ROOT
HETATM    1  C   UNL     1     -10.205  13.483  65.222  1.00  0.00    -0.323 C  
HETATM    2  C   UNL     1     -11.263  14.536  65.600  1.00  0.00    -0.335 C  
HETATM    3  C   UNL     1     -12.252  14.668  64.427  1.00  0.00    -0.473 C  
HETATM    4  C   UNL     1     -10.591  15.903  65.821  1.00  0.00    -0.368 C  
HETATM    5  N   UNL     1     -12.049  14.139  66.782  1.00  0.00    -0.446 NA 
HETATM    6  H   UNL     1     -12.620  13.322  66.566  1.00  0.00     0.000 HD 
ENDROOT
BRANCH   5   7
HETATM    7  C   UNL     1     -11.268  13.899  68.001  1.00  0.00    -0.271 C  
BRANCH   7   8
HETATM    8  C   UNL     1     -11.383  12.435  68.465  1.00  0.00    -0.293 C  
HETATM    9  H   UNL     1     -12.196  10.771  67.789  1.00  0.00     0.000 HD 
HETATM   10  O   UNL     1     -12.125  11.675  67.503  1.00  0.00    -0.611 OA 
BRANCH   8  11
HETATM   11  C   UNL     1      -9.983  11.830  68.651  1.00  0.00    -0.172 C  
BRANCH  11  12
HETATM   12  O   UNL     1     -10.060  10.390  68.625  1.00  0.00    -0.162 OA 
BRANCH  12  13
HETATM   13  C   UNL     1      -9.313   9.769  69.600  1.00  0.00    -0.219 A  
HETATM   14  C   UNL     1      -7.957  10.054  69.798  1.00  0.00    -0.190 A  
HETATM   15  C   UNL     1      -7.248   9.444  70.826  1.00  0.00    -0.123 A  
HETATM   16  C   UNL     1      -7.885   8.538  71.664  1.00  0.00    -0.160 A  
HETATM   17  C   UNL     1      -9.232   8.208  71.463  1.00  0.00    -0.209 A  
HETATM   18  C   UNL     1      -9.946   8.789  70.389  1.00  0.00    -0.219 A  
HETATM   19  C   UNL     1     -11.386   8.399  70.124  1.00  0.00    -0.065 C  
HETATM   20  C   UNL     1     -11.823   7.131  70.868  1.00  0.00    -0.339 C  
HETATM   21  C   UNL     1     -11.381   7.171  72.339  1.00  0.00    -0.274 C  
HETATM   22  O   UNL     1     -13.242   6.975  70.786  1.00  0.00    -0.528 OA 
HETATM   23  H   UNL     1     -13.513   6.189  71.246  1.00  0.00     0.000 HD 
HETATM   24  O   UNL     1     -11.923   8.292  73.051  1.00  0.00    -0.553 OA 
HETATM   25  C   UNL     1      -9.855   7.202  72.409  1.00  0.00    -0.174 C  
HETATM   26  H   UNL     1     -11.650   8.317  73.960  1.00  0.00     0.000 HD 
ENDBRANCH  12  13
ENDBRANCH  11  12
ENDBRANCH   8  11
ENDBRANCH   7   8
ENDBRANCH   5   7
TORSDOF 5
ENDMDL
MODEL      122
REMARK 921   NORMALIZED FREE ENERGY PREDICTED BY IDOCK:   -4.84 KCAL/MOL
REMARK 922        TOTAL FREE ENERGY PREDICTED BY IDOCK:   -6.98 KCAL/MOL
REMARK 923 INTER-LIGAND FREE ENERGY PREDICTED BY IDOCK:   -6.34 KCAL/MOL
REMARK 924 INTRA-LIGAND FREE ENERGY PREDICTED BY IDOCK:   -0.64 KCAL/MOL
REMARK 927      BINDING AFFINITY PREDICTED BY RF-SCORE:    0.00 PKD
ROOT
HETATM    1  C   UNL     1     -11.943  15.563  69.678  1.00  0.00    -0.380 C  
HETATM    2  C   UNL     1     -10.818  15.639  68.630  1.00  0.00    -0.273 C  
HETATM    3  C   UNL     1      -9.468  15.502  69.360  1.00  0.00    -0.278 C  
HETATM    4  C   UNL     1     -10.848  17.006  67.924  1.00  0.00    -0.302 C  
HETATM    5  N   UNL     1     -10.891  14.539  67.650  1.00  0.00    -0.268 NA 
HETATM    6  H   UNL     1     -10.703  13.648  68.109  1.00  0.00     0.000 HD 
ENDROOT
BRANCH   5   7
HETATM    7  C   UNL     1     -12.144  14.461  66.890  1.00  0.00    -0.356 C  
BRANCH   7   8
HETATM    8  C   UNL     1     -12.048  13.426  65.753  1.00  0.00    -0.436 C  
HETATM    9  H   UNL     1     -12.504  13.349  63.836  1.00  0.00     0.000 HD 
HETATM   10  O   UNL     1     -12.563  13.987  64.538  1.00  0.00    -0.635 OA 
BRANCH   8  11
HETATM   11  C   UNL     1     -10.588  12.992  65.557  1.00  0.00    -0.282 C  
BRANCH  11  12
HETATM   12  O   UNL     1     -10.461  11.571  65.774  1.00  0.00    -0.245 OA 
BRANCH  12  13
HETATM   13  C   UNL     1      -9.621  11.232  66.810  1.00  0.00    -0.193 A  
HETATM   14  C   UNL     1      -8.650  12.112  67.302  1.00  0.00    -0.180 A  
HETATM   15  C   UNL     1      -7.853  11.755  68.383  1.00  0.00    -0.141 A  
HETATM   16  C   UNL     1      -8.014  10.510  68.980  1.00  0.00    -0.136 A  
HETATM   17  C   UNL     1      -8.953   9.597  68.481  1.00  0.00    -0.124 A  
HETATM   18  C   UNL     1      -9.734   9.937  67.352  1.00  0.00    -0.199 A  
HETATM   19  C   UNL     1     -10.712   8.940  66.766  1.00  0.00    -0.098 C  
HETATM   20  C   UNL     1     -10.504   7.508  67.273  1.00  0.00    -0.321 C  
HETATM   21  C   UNL     1     -10.325   7.481  68.799  1.00  0.00    -0.200 C  
HETATM   22  O   UNL     1     -11.608   6.684  66.895  1.00  0.00    -0.726 OA 
HETATM   23  H   UNL     1     -11.479   5.796  67.209  1.00  0.00     0.000 HD 
HETATM   24  O   UNL     1     -11.453   8.022  69.500  1.00  0.00    -0.423 OA 
HETATM   25  C   UNL     1      -9.062   8.255  69.176  1.00  0.00    -0.148 C  
HETATM   26  H   UNL     1     -11.343   8.005  70.443  1.00  0.00     0.000 HD 
ENDBRANCH  12  13
ENDBRANCH  11  12
ENDBRANCH   8  11
ENDBRANCH   7   8
ENDBRANCH   5   7
TORSDOF 5
ENDMDL
MODEL      123
REMARK 921   NORMALIZED FREE ENERGY PREDICTED BY IDOCK:   -4.84 KCAL/MOL
REMARK 922        TOTAL FREE ENERGY PREDICTED BY IDOCK:   -6.98 KCAL/MOL
REMARK 923 INTER-LIGAND FREE ENERGY PREDICTED BY IDOCK:   -6.39 KCAL/MOL
REMARK 924 INTRA-LIGAND FREE ENERGY PREDICTED BY IDOCK:   -0.59 KCAL/MOL
REMARK 927      BINDING AFFINITY PREDICTED BY RF-SCORE:    0.00 PKD
ROOT
HETATM    1  C   UNL     1     -11.675  16.198  68.802  1.00  0.00    -0.231 C  
HETATM    2  C   UNL     1     -10.783  15.278  69.656  1.00  0.00    -0.281 C  
HETATM    3  C   UNL     1     -11.172  15.466  71.134  1.00  0.00    -0.410 C  
HETATM    4  C   UNL     1      -9.305  15.677  69.491  1.00  0.00    -0.263 C  
HETATM    5  N   UNL     1     -10.981  13.852  69.336  1.00  0.00    -0.407 NA 
HETATM    6  H   UNL     1     -11.920  13.560  69.607  1.00  0.00     0.000 HD 
ENDROOT
BRANCH   5   7
HETATM    7  C   UNL     1     -10.720  13.482  67.941  1.00  0.00    -0.247 C  
BRANCH   7   8
HETATM    8  C   UNL     1     -11.750  12.457  67.428  1.00  0.00    -0.347 C  
HETATM    9  H   UNL     1     -12.828  12.192  65.800  1.00  0.00     0.000 HD 
HETATM   10  O   UNL     1     -12.193  12.825  66.116  1.00  0.00    -0.521 OA 
BRANCH   8  11
HETATM   11  C   UNL     1     -11.127  11.053  67.402  1.00  0.00    -0.305 C  
BRANCH  11  12
HETATM   12  O   UNL     1     -10.305  10.855  68.571  1.00  0.00    -0.171 OA 
BRANCH  12  13
HETATM   13  C   UNL     1     -10.782   9.898  69.438  1.00  0.00    -0.232 A  
HETATM   14  C   UNL     1     -11.578  10.220  70.543  1.00  0.00    -0.424 A  
HETATM   15  C   UNL     1     -12.083   9.222  71.368  1.00  0.00    -0.424 A  
HETATM   16  C   UNL     1     -11.792   7.890  71.101  1.00  0.00    -0.307 A  
HETATM   17  C   UNL     1     -10.966   7.544  70.023  1.00  0.00    -0.252 A  
HETATM   18  C   UNL     1     -10.411   8.558  69.208  1.00  0.00    -0.227 A  
HETATM   19  C   UNL     1      -9.471   8.204  68.074  1.00  0.00    -0.155 C  
HETATM   20  C   UNL     1      -8.945   6.765  68.142  1.00  0.00    -0.118 C  
HETATM   21  C   UNL     1     -10.082   5.772  68.429  1.00  0.00    -0.170 C  
HETATM   22  O   UNL     1      -8.289   6.420  66.920  1.00  0.00    -0.109 OA 
HETATM   23  H   UNL     1      -7.963   5.529  66.963  1.00  0.00     0.000 HD 
HETATM   24  O   UNL     1     -11.111   5.804  67.430  1.00  0.00    -0.390 OA 
HETATM   25  C   UNL     1     -10.683   6.072  69.802  1.00  0.00    -0.399 C  
HETATM   26  H   UNL     1     -11.814   5.190  67.607  1.00  0.00     0.000 HD 
ENDBRANCH  12  13
ENDBRANCH  11  12
ENDBRANCH   8  11
ENDBRANCH   7   8
ENDBRANCH   5   7
TORSDOF 5
ENDMDL
MODEL      124
REMARK 921   NORMALIZED FREE ENERGY PREDICTED BY IDOCK:   -4.83 KCAL/MOL
REMARK 922        TOTAL FREE ENERGY PREDICTED BY IDOCK:   -6.97 KCAL/MOL
REMARK 923 INTER-LIGAND FREE ENERGY PREDICTED BY IDOCK:   -6.48 KCAL/MOL
REMARK 924 INTRA-LIGAND FREE ENERGY PREDICTED BY IDOCK:   -0.49 KCAL/MOL
REMARK 927      BINDING AFFINITY PREDICTED BY RF-SCORE:    0.00 PKD
ROOT
HETATM    1  C   UNL     1      -6.562   5.766  65.367  1.00  0.00    -0.043 C  
HETATM    2  C   UNL     1      -7.884   6.041  64.628  1.00  0.00    -0.112 C  
HETATM    3  C   UNL     1      -7.885   5.228  63.320  1.00  0.00    -0.089 C  
HETATM    4  C   UNL     1      -7.986   7.534  64.269  1.00  0.00    -0.109 C  
HETATM    5  N   UNL     1      -9.060   5.606  65.405  1.00  0.00    -0.331 NA 
HETATM    6  H   UNL     1      -9.066   4.590  65.492  1.00  0.00     0.000 HD 
ENDROOT
BRANCH   5   7
HETATM    7  C   UNL     1      -9.202   6.227  66.727  1.00  0.00    -0.137 C  
BRANCH   7   8
HETATM    8  C   UNL     1     -10.609   6.821  66.921  1.00  0.00    -0.304 C  
HETATM    9  H   UNL     1     -12.091   6.619  68.205  1.00  0.00     0.000 HD 
HETATM   10  O   UNL     1     -11.223   6.252  68.085  1.00  0.00    -0.327 OA 
BRANCH   8  11
HETATM   11  C   UNL     1     -10.521   8.348  67.063  1.00  0.00    -0.305 C  
BRANCH  11  12
HETATM   12  O   UNL     1      -9.995   8.695  68.361  1.00  0.00    -0.172 OA 
BRANCH  12  13
HETATM   13  C   UNL     1     -10.612   9.775  68.948  1.00  0.00    -0.218 A  
HETATM   14  C   UNL     1     -10.509  11.070  68.425  1.00  0.00    -0.203 A  
HETATM   15  C   UNL     1     -11.188  12.129  69.017  1.00  0.00    -0.314 A  
HETATM   16  C   UNL     1     -11.974  11.906  70.141  1.00  0.00    -0.413 A  
HETATM   17  C   UNL     1     -12.062  10.626  70.706  1.00  0.00    -0.474 A  
HETATM   18  C   UNL     1     -11.336   9.554  70.137  1.00  0.00    -0.241 A  
HETATM   19  C   UNL     1     -11.376   8.178  70.768  1.00  0.00    -0.283 C  
HETATM   20  C   UNL     1     -11.952   8.174  72.189  1.00  0.00    -0.359 C  
HETATM   21  C   UNL     1     -13.242   9.005  72.267  1.00  0.00    -0.460 C  
HETATM   22  O   UNL     1     -12.205   6.834  72.616  1.00  0.00    -0.492 OA 
HETATM   23  H   UNL     1     -12.561   6.831  73.497  1.00  0.00     0.000 HD 
HETATM   24  O   UNL     1     -14.268   8.520  71.390  1.00  0.00    -0.540 OA 
HETATM   25  C   UNL     1     -12.927  10.464  71.939  1.00  0.00    -0.555 C  
HETATM   26  H   UNL     1     -15.066   9.033  71.438  1.00  0.00     0.000 HD 
ENDBRANCH  12  13
ENDBRANCH  11  12
ENDBRANCH   8  11
ENDBRANCH   7   8
ENDBRANCH   5   7
TORSDOF 5
ENDMDL
MODEL      125
REMARK 921   NORMALIZED FREE ENERGY PREDICTED BY IDOCK:   -4.82 KCAL/MOL
REMARK 922        TOTAL FREE ENERGY PREDICTED BY IDOCK:   -6.96 KCAL/MOL
REMARK 923 INTER-LIGAND FREE ENERGY PREDICTED BY IDOCK:   -6.58 KCAL/MOL
REMARK 924 INTRA-LIGAND FREE ENERGY PREDICTED BY IDOCK:   -0.38 KCAL/MOL
REMARK 927      BINDING AFFINITY PREDICTED BY RF-SCORE:    0.00 PKD
ROOT
HETATM    1  C   UNL     1     -10.422  16.806  65.582  1.00  0.00    -0.284 C  
HETATM    2  C   UNL     1     -10.233  16.955  67.103  1.00  0.00    -0.297 C  
HETATM    3  C   UNL     1     -10.716  18.358  67.515  1.00  0.00    -0.399 C  
HETATM    4  C   UNL     1      -8.742  16.832  67.462  1.00  0.00    -0.206 C  
HETATM    5  N   UNL     1     -11.039  15.982  67.864  1.00  0.00    -0.331 NA 
HETATM    6  H   UNL     1     -12.032  16.181  67.746  1.00  0.00     0.000 HD 
ENDROOT
BRANCH   5   7
HETATM    7  C   UNL     1     -10.768  14.572  67.560  1.00  0.00    -0.276 C  
BRANCH   7   8
HETATM    8  C   UNL     1     -12.001  13.690  67.834  1.00  0.00    -0.347 C  
HETATM    9  H   UNL     1     -13.017  12.299  66.875  1.00  0.00     0.000 HD 
HETATM   10  O   UNL     1     -12.256  12.843  66.706  1.00  0.00    -0.425 OA 
BRANCH   8  11
HETATM   11  C   UNL     1     -11.772  12.840  69.093  1.00  0.00    -0.322 C  
BRANCH  11  12
HETATM   12  O   UNL     1     -12.096  11.460  68.824  1.00  0.00    -0.480 OA 
BRANCH  12  13
HETATM   13  C   UNL     1     -12.107  10.657  69.941  1.00  0.00    -0.299 A  
HETATM   14  C   UNL     1     -13.050  10.812  70.963  1.00  0.00    -0.338 A  
HETATM   15  C   UNL     1     -13.061   9.949  72.053  1.00  0.00    -0.545 A  
HETATM   16  C   UNL     1     -12.126   8.925  72.135  1.00  0.00    -0.430 A  
HETATM   17  C   UNL     1     -11.148   8.773  71.143  1.00  0.00    -0.340 A  
HETATM   18  C   UNL     1     -11.101   9.677  70.056  1.00  0.00    -0.293 A  
HETATM   19  C   UNL     1     -10.017   9.560  69.005  1.00  0.00    -0.185 C  
HETATM   20  C   UNL     1      -8.853   8.654  69.425  1.00  0.00    -0.144 C  
HETATM   21  C   UNL     1      -9.367   7.339  70.033  1.00  0.00    -0.154 C  
HETATM   22  O   UNL     1      -8.010   8.380  68.304  1.00  0.00    -0.115 OA 
HETATM   23  H   UNL     1      -7.289   7.818  68.565  1.00  0.00     0.000 HD 
HETATM   24  O   UNL     1     -10.185   6.590  69.123  1.00  0.00    -0.164 OA 
HETATM   25  C   UNL     1     -10.153   7.642  71.308  1.00  0.00    -0.203 C  
HETATM   26  H   UNL     1     -10.502   5.777  69.498  1.00  0.00     0.000 HD 
ENDBRANCH  12  13
ENDBRANCH  11  12
ENDBRANCH   8  11
ENDBRANCH   7   8
ENDBRANCH   5   7
TORSDOF 5
ENDMDL
MODEL      126
REMARK 921   NORMALIZED FREE ENERGY PREDICTED BY IDOCK:   -4.82 KCAL/MOL
REMARK 922        TOTAL FREE ENERGY PREDICTED BY IDOCK:   -6.95 KCAL/MOL
REMARK 923 INTER-LIGAND FREE ENERGY PREDICTED BY IDOCK:   -6.38 KCAL/MOL
REMARK 924 INTRA-LIGAND FREE ENERGY PREDICTED BY IDOCK:   -0.57 KCAL/MOL
REMARK 927      BINDING AFFINITY PREDICTED BY RF-SCORE:    0.00 PKD
ROOT
HETATM    1  C   UNL     1     -10.984   6.794  67.131  1.00  0.00    -0.458 C  
HETATM    2  C   UNL     1     -10.224   6.564  68.450  1.00  0.00    -0.172 C  
HETATM    3  C   UNL     1      -9.091   5.554  68.186  1.00  0.00    -0.111 C  
HETATM    4  C   UNL     1     -11.170   5.964  69.505  1.00  0.00    -0.299 C  
HETATM    5  N   UNL     1      -9.590   7.798  68.952  1.00  0.00    -0.153 NA 
HETATM    6  H   UNL     1      -8.847   8.092  68.320  1.00  0.00     0.000 HD 
ENDROOT
BRANCH   5   7
HETATM    7  C   UNL     1     -10.509   8.913  69.206  1.00  0.00    -0.224 C  
BRANCH   7   8
HETATM    8  C   UNL     1      -9.798  10.075  69.927  1.00  0.00    -0.224 C  
HETATM    9  H   UNL     1      -8.435  10.274  71.337  1.00  0.00     0.000 HD 
HETATM   10  O   UNL     1      -8.874   9.558  70.893  1.00  0.00    -0.229 OA 
BRANCH   8  11
HETATM   11  C   UNL     1      -9.060  10.954  68.907  1.00  0.00    -0.144 C  
BRANCH  11  12
HETATM   12  O   UNL     1     -10.002  11.537  67.983  1.00  0.00    -0.178 OA 
BRANCH  12  13
HETATM   13  C   UNL     1      -9.816  11.155  66.674  1.00  0.00    -0.199 A  
HETATM   14  C   UNL     1      -8.892  10.170  66.308  1.00  0.00    -0.163 A  
HETATM   15  C   UNL     1      -8.767   9.774  64.981  1.00  0.00    -0.198 A  
HETATM   16  C   UNL     1      -9.562  10.362  64.005  1.00  0.00    -0.376 A  
HETATM   17  C   UNL     1     -10.468  11.377  64.341  1.00  0.00    -0.388 A  
HETATM   18  C   UNL     1     -10.565  11.818  65.682  1.00  0.00    -0.314 A  
HETATM   19  C   UNL     1     -11.498  12.952  66.052  1.00  0.00    -0.384 C  
HETATM   20  C   UNL     1     -12.005  13.747  64.842  1.00  0.00    -0.390 C  
HETATM   21  C   UNL     1     -12.474  12.808  63.720  1.00  0.00    -0.383 C  
HETATM   22  O   UNL     1     -13.070  14.616  65.232  1.00  0.00    -0.403 OA 
HETATM   23  H   UNL     1     -13.384  15.108  64.483  1.00  0.00     0.000 HD 
HETATM   24  O   UNL     1     -13.536  11.937  64.133  1.00  0.00    -0.591 OA 
HETATM   25  C   UNL     1     -11.290  11.981  63.221  1.00  0.00    -0.396 C  
HETATM   26  H   UNL     1     -13.827  11.356  63.440  1.00  0.00     0.000 HD 
ENDBRANCH  12  13
ENDBRANCH  11  12
ENDBRANCH   8  11
ENDBRANCH   7   8
ENDBRANCH   5   7
TORSDOF 5
ENDMDL
MODEL      127
REMARK 921   NORMALIZED FREE ENERGY PREDICTED BY IDOCK:   -4.81 KCAL/MOL
REMARK 922        TOTAL FREE ENERGY PREDICTED BY IDOCK:   -6.94 KCAL/MOL
REMARK 923 INTER-LIGAND FREE ENERGY PREDICTED BY IDOCK:   -6.11 KCAL/MOL
REMARK 924 INTRA-LIGAND FREE ENERGY PREDICTED BY IDOCK:   -0.83 KCAL/MOL
REMARK 927      BINDING AFFINITY PREDICTED BY RF-SCORE:    0.00 PKD
ROOT
HETATM    1  C   UNL     1     -11.865  11.747  65.602  1.00  0.00     0.022 C  
HETATM    2  C   UNL     1     -11.515  12.274  64.199  1.00  0.00    -0.383 C  
HETATM    3  C   UNL     1     -12.699  11.975  63.260  1.00  0.00    -0.437 C  
HETATM    4  C   UNL     1     -10.273  11.543  63.657  1.00  0.00    -0.450 C  
HETATM    5  N   UNL     1     -11.313  13.735  64.184  1.00  0.00    -0.585 NA 
HETATM    6  H   UNL     1     -12.192  14.211  64.384  1.00  0.00     0.000 HD 
ENDROOT
BRANCH   5   7
HETATM    7  C   UNL     1     -10.257  14.229  65.075  1.00  0.00    -0.372 C  
BRANCH   7   8
HETATM    8  C   UNL     1     -10.812  15.234  66.102  1.00  0.00    -0.320 C  
HETATM    9  H   UNL     1     -12.557  15.630  66.929  1.00  0.00     0.000 HD 
HETATM   10  O   UNL     1     -12.215  15.011  66.295  1.00  0.00     0.004 OA 
BRANCH   8  11
HETATM   11  C   UNL     1     -10.065  15.089  67.437  1.00  0.00    -0.228 C  
BRANCH  11  12
HETATM   12  O   UNL     1      -9.683  13.714  67.644  1.00  0.00    -0.218 OA 
BRANCH  12  13
HETATM   13  C   UNL     1     -10.486  13.035  68.532  1.00  0.00    -0.249 A  
HETATM   14  C   UNL     1     -11.449  13.683  69.314  1.00  0.00    -0.344 A  
HETATM   15  C   UNL     1     -12.276  12.957  70.163  1.00  0.00    -0.336 A  
HETATM   16  C   UNL     1     -12.145  11.577  70.245  1.00  0.00    -0.444 A  
HETATM   17  C   UNL     1     -11.162  10.909  69.501  1.00  0.00    -0.340 A  
HETATM   18  C   UNL     1     -10.286  11.647  68.671  1.00  0.00    -0.229 A  
HETATM   19  C   UNL     1      -9.183  10.948  67.904  1.00  0.00    -0.152 C  
HETATM   20  C   UNL     1      -8.917   9.516  68.386  1.00  0.00    -0.127 C  
HETATM   21  C   UNL     1     -10.230   8.738  68.564  1.00  0.00    -0.195 C  
HETATM   22  O   UNL     1      -8.065   8.834  67.462  1.00  0.00    -0.105 OA 
HETATM   23  H   UNL     1      -7.900   7.948  67.760  1.00  0.00     0.000 HD 
HETATM   24  O   UNL     1     -10.990   8.647  67.352  1.00  0.00    -0.464 OA 
HETATM   25  C   UNL     1     -11.070   9.405  69.653  1.00  0.00    -0.163 C  
HETATM   26  H   UNL     1     -11.802   8.166  67.462  1.00  0.00     0.000 HD 
ENDBRANCH  12  13
ENDBRANCH  11  12
ENDBRANCH   8  11
ENDBRANCH   7   8
ENDBRANCH   5   7
TORSDOF 5
ENDMDL
MODEL      128
REMARK 921   NORMALIZED FREE ENERGY PREDICTED BY IDOCK:   -4.79 KCAL/MOL
REMARK 922        TOTAL FREE ENERGY PREDICTED BY IDOCK:   -6.92 KCAL/MOL
REMARK 923 INTER-LIGAND FREE ENERGY PREDICTED BY IDOCK:   -5.98 KCAL/MOL
REMARK 924 INTRA-LIGAND FREE ENERGY PREDICTED BY IDOCK:   -0.94 KCAL/MOL
REMARK 927      BINDING AFFINITY PREDICTED BY RF-SCORE:    0.00 PKD
ROOT
HETATM    1  C   UNL     1      -9.780  20.931  67.704  1.00  0.00    -0.287 C  
HETATM    2  C   UNL     1      -9.937  19.584  66.974  1.00  0.00    -0.378 C  
HETATM    3  C   UNL     1     -10.719  19.830  65.670  1.00  0.00    -0.418 C  
HETATM    4  C   UNL     1     -10.744  18.605  67.844  1.00  0.00    -0.347 C  
HETATM    5  N   UNL     1      -8.638  19.000  66.593  1.00  0.00    -0.301 NA 
HETATM    6  H   UNL     1      -8.186  19.581  65.886  1.00  0.00     0.000 HD 
ENDROOT
BRANCH   5   7
HETATM    7  C   UNL     1      -7.714  18.749  67.705  1.00  0.00    -0.235 C  
BRANCH   7   8
HETATM    8  C   UNL     1      -6.998  17.395  67.547  1.00  0.00    -0.159 C  
HETATM    9  H   UNL     1      -6.639  15.817  68.673  1.00  0.00     0.000 HD 
HETATM   10  O   UNL     1      -7.081  16.653  68.771  1.00  0.00    -0.170 OA 
BRANCH   8  11
HETATM   11  C   UNL     1      -7.631  16.595  66.399  1.00  0.00    -0.262 C  
BRANCH  11  12
HETATM   12  O   UNL     1      -8.057  15.301  66.874  1.00  0.00    -0.211 OA 
BRANCH  12  13
HETATM   13  C   UNL     1      -9.357  14.984  66.553  1.00  0.00    -0.281 A  
HETATM   14  C   UNL     1      -9.787  14.846  65.228  1.00  0.00    -0.242 A  
HETATM   15  C   UNL     1     -11.095  14.475  64.942  1.00  0.00    -0.401 A  
HETATM   16  C   UNL     1     -11.991  14.243  65.979  1.00  0.00    -0.412 A  
HETATM   17  C   UNL     1     -11.595  14.411  67.313  1.00  0.00    -0.401 A  
HETATM   18  C   UNL     1     -10.278  14.835  67.608  1.00  0.00    -0.232 A  
HETATM   19  C   UNL     1      -9.851  15.076  69.041  1.00  0.00    -0.236 C  
HETATM   20  C   UNL     1     -11.026  15.159  70.024  1.00  0.00    -0.271 C  
HETATM   21  C   UNL     1     -12.028  14.018  69.786  1.00  0.00    -0.334 C  
HETATM   22  O   UNL     1     -10.549  15.120  71.370  1.00  0.00    -0.434 OA 
HETATM   23  H   UNL     1     -11.276  15.171  71.978  1.00  0.00     0.000 HD 
HETATM   24  O   UNL     1     -11.436  12.720  69.937  1.00  0.00    -0.480 OA 
HETATM   25  C   UNL     1     -12.630  14.154  68.388  1.00  0.00     0.512 C  
HETATM   26  H   UNL     1     -12.056  12.014  69.790  1.00  0.00     0.000 HD 
ENDBRANCH  12  13
ENDBRANCH  11  12
ENDBRANCH   8  11
ENDBRANCH   7   8
ENDBRANCH   5   7
TORSDOF 5
ENDMDL
MODEL      129
REMARK 921   NORMALIZED FREE ENERGY PREDICTED BY IDOCK:   -4.78 KCAL/MOL
REMARK 922        TOTAL FREE ENERGY PREDICTED BY IDOCK:   -6.90 KCAL/MOL
REMARK 923 INTER-LIGAND FREE ENERGY PREDICTED BY IDOCK:   -6.22 KCAL/MOL
REMARK 924 INTRA-LIGAND FREE ENERGY PREDICTED BY IDOCK:   -0.69 KCAL/MOL
REMARK 927      BINDING AFFINITY PREDICTED BY RF-SCORE:    0.00 PKD
ROOT
HETATM    1  C   UNL     1     -10.839  16.283  64.871  1.00  0.00    -0.315 C  
HETATM    2  C   UNL     1     -10.259  16.306  66.297  1.00  0.00    -0.327 C  
HETATM    3  C   UNL     1     -10.545  17.688  66.913  1.00  0.00    -0.235 C  
HETATM    4  C   UNL     1      -8.733  16.106  66.248  1.00  0.00    -0.373 C  
HETATM    5  N   UNL     1     -10.892  15.304  67.175  1.00  0.00    -0.318 NA 
HETATM    6  H   UNL     1     -11.870  15.546  67.333  1.00  0.00     0.000 HD 
ENDROOT
BRANCH   5   7
HETATM    7  C   UNL     1     -10.783  13.914  66.719  1.00  0.00    -0.281 C  
BRANCH   7   8
HETATM    8  C   UNL     1     -12.000  13.079  67.160  1.00  0.00    -0.329 C  
HETATM    9  H   UNL     1     -13.397  11.998  66.286  1.00  0.00     0.000 HD 
HETATM   10  O   UNL     1     -12.646  12.513  66.013  1.00  0.00    -0.456 OA 
BRANCH   8  11
HETATM   11  C   UNL     1     -11.554  11.966  68.120  1.00  0.00    -0.334 C  
BRANCH  11  12
HETATM   12  O   UNL     1     -11.157  10.798  67.372  1.00  0.00    -0.302 OA 
BRANCH  12  13
HETATM   13  C   UNL     1      -9.796  10.607  67.307  1.00  0.00    -0.176 A  
HETATM   14  C   UNL     1      -8.984  10.625  68.447  1.00  0.00    -0.149 A  
HETATM   15  C   UNL     1      -7.620  10.379  68.349  1.00  0.00    -0.093 A  
HETATM   16  C   UNL     1      -7.051  10.116  67.109  1.00  0.00    -0.089 A  
HETATM   17  C   UNL     1      -7.836  10.130  65.948  1.00  0.00    -0.132 A  
HETATM   18  C   UNL     1      -9.216  10.427  66.036  1.00  0.00    -0.200 A  
HETATM   19  C   UNL     1     -10.067  10.501  64.785  1.00  0.00    -0.406 C  
HETATM   20  C   UNL     1      -9.247  10.576  63.491  1.00  0.00    -0.274 C  
HETATM   21  C   UNL     1      -8.114   9.538  63.492  1.00  0.00    -0.151 C  
HETATM   22  O   UNL     1     -10.094  10.377  62.357  1.00  0.00    -0.743 OA 
HETATM   23  H   UNL     1      -9.586  10.424  61.556  1.00  0.00     0.000 HD 
HETATM   24  O   UNL     1      -8.595   8.193  63.616  1.00  0.00    -0.399 OA 
HETATM   25  C   UNL     1      -7.143   9.848  64.631  1.00  0.00    -0.137 C  
HETATM   26  H   UNL     1      -7.894   7.550  63.616  1.00  0.00     0.000 HD 
ENDBRANCH  12  13
ENDBRANCH  11  12
ENDBRANCH   8  11
ENDBRANCH   7   8
ENDBRANCH   5   7
TORSDOF 5
ENDMDL
MODEL      130
REMARK 921   NORMALIZED FREE ENERGY PREDICTED BY IDOCK:   -4.78 KCAL/MOL
REMARK 922        TOTAL FREE ENERGY PREDICTED BY IDOCK:   -6.90 KCAL/MOL
REMARK 923 INTER-LIGAND FREE ENERGY PREDICTED BY IDOCK:   -6.42 KCAL/MOL
REMARK 924 INTRA-LIGAND FREE ENERGY PREDICTED BY IDOCK:   -0.48 KCAL/MOL
REMARK 927      BINDING AFFINITY PREDICTED BY RF-SCORE:    0.00 PKD
ROOT
HETATM    1  C   UNL     1     -10.982   6.773  67.150  1.00  0.00    -0.458 C  
HETATM    2  C   UNL     1     -10.261   6.477  68.478  1.00  0.00    -0.172 C  
HETATM    3  C   UNL     1      -9.147   5.448  68.204  1.00  0.00    -0.115 C  
HETATM    4  C   UNL     1     -11.248   5.863  69.488  1.00  0.00    -0.299 C  
HETATM    5  N   UNL     1      -9.611   7.675  69.041  1.00  0.00    -0.150 NA 
HETATM    6  H   UNL     1      -8.845   7.974  68.438  1.00  0.00     0.000 HD 
ENDROOT
BRANCH   5   7
HETATM    7  C   UNL     1     -10.508   8.804  69.314  1.00  0.00    -0.219 C  
BRANCH   7   8
HETATM    8  C   UNL     1      -9.780   9.931  70.070  1.00  0.00    -0.227 C  
HETATM    9  H   UNL     1      -8.461  10.066  71.529  1.00  0.00     0.000 HD 
HETATM   10  O   UNL     1      -8.911   9.371  71.063  1.00  0.00    -0.250 OA 
BRANCH   8  11
HETATM   11  C   UNL     1      -8.975  10.791  69.086  1.00  0.00    -0.087 C  
BRANCH  11  12
HETATM   12  O   UNL     1      -9.807  11.183  67.975  1.00  0.00    -0.166 OA 
BRANCH  12  13
HETATM   13  C   UNL     1      -9.610  12.478  67.553  1.00  0.00    -0.187 A  
HETATM   14  C   UNL     1      -8.628  13.304  68.112  1.00  0.00    -0.177 A  
HETATM   15  C   UNL     1      -8.423  14.590  67.626  1.00  0.00    -0.189 A  
HETATM   16  C   UNL     1      -9.202  15.066  66.578  1.00  0.00    -0.320 A  
HETATM   17  C   UNL     1     -10.216  14.272  66.027  1.00  0.00    -0.327 A  
HETATM   18  C   UNL     1     -10.461  12.980  66.549  1.00  0.00    -0.284 A  
HETATM   19  C   UNL     1     -11.590  12.132  66.002  1.00  0.00    -0.420 C  
HETATM   20  C   UNL     1     -12.587  12.920  65.143  1.00  0.00    -0.471 C  
HETATM   21  C   UNL     1     -11.857  13.824  64.138  1.00  0.00    -0.401 C  
HETATM   22  O   UNL     1     -13.460  12.024  64.452  1.00  0.00    -0.591 OA 
HETATM   23  H   UNL     1     -14.077  12.512  63.920  1.00  0.00     0.000 HD 
HETATM   24  O   UNL     1     -11.009  13.090  63.244  1.00  0.00    -0.486 OA 
HETATM   25  C   UNL     1     -11.033  14.864  64.897  1.00  0.00    -0.422 C  
HETATM   26  H   UNL     1     -10.558  13.649  62.622  1.00  0.00     0.000 HD 
ENDBRANCH  12  13
ENDBRANCH  11  12
ENDBRANCH   8  11
ENDBRANCH   7   8
ENDBRANCH   5   7
TORSDOF 5
ENDMDL
MODEL      131
REMARK 921   NORMALIZED FREE ENERGY PREDICTED BY IDOCK:   -4.75 KCAL/MOL
REMARK 922        TOTAL FREE ENERGY PREDICTED BY IDOCK:   -6.86 KCAL/MOL
REMARK 923 INTER-LIGAND FREE ENERGY PREDICTED BY IDOCK:   -6.23 KCAL/MOL
REMARK 924 INTRA-LIGAND FREE ENERGY PREDICTED BY IDOCK:   -0.63 KCAL/MOL
REMARK 927      BINDING AFFINITY PREDICTED BY RF-SCORE:    0.00 PKD
ROOT
HETATM    1  C   UNL     1     -11.924   9.873  71.402  1.00  0.00    -0.489 C  
HETATM    2  C   UNL     1     -10.999   8.699  71.030  1.00  0.00    -0.260 C  
HETATM    3  C   UNL     1     -11.551   7.421  71.690  1.00  0.00    -0.302 C  
HETATM    4  C   UNL     1      -9.583   8.952  71.576  1.00  0.00    -0.362 C  
HETATM    5  N   UNL     1     -10.966   8.453  69.577  1.00  0.00    -0.420 NA 
HETATM    6  H   UNL     1     -11.876   8.124  69.256  1.00  0.00     0.000 HD 
ENDROOT
BRANCH   5   7
HETATM    7  C   UNL     1     -10.523   9.588  68.759  1.00  0.00    -0.219 C  
BRANCH   7   8
HETATM    8  C   UNL     1      -9.619   9.129  67.600  1.00  0.00    -0.149 C  
HETATM    9  H   UNL     1      -9.094   7.417  66.776  1.00  0.00     0.000 HD 
HETATM   10  O   UNL     1      -9.652   7.700  67.492  1.00  0.00    -0.136 OA 
BRANCH   8  11
HETATM   11  C   UNL     1     -10.085   9.769  66.284  1.00  0.00    -0.243 C  
BRANCH  11  12
HETATM   12  O   UNL     1      -9.458  11.057  66.111  1.00  0.00    -0.190 OA 
BRANCH  12  13
HETATM   13  C   UNL     1     -10.335  12.117  66.127  1.00  0.00    -0.234 A  
HETATM   14  C   UNL     1     -11.615  12.036  65.564  1.00  0.00    -0.352 A  
HETATM   15  C   UNL     1     -12.493  13.110  65.643  1.00  0.00    -0.485 A  
HETATM   16  C   UNL     1     -12.099  14.280  66.281  1.00  0.00    -0.433 A  
HETATM   17  C   UNL     1     -10.810  14.400  66.818  1.00  0.00    -0.301 A  
HETATM   18  C   UNL     1      -9.896  13.327  66.699  1.00  0.00    -0.276 A  
HETATM   19  C   UNL     1      -8.482  13.461  67.225  1.00  0.00    -0.205 C  
HETATM   20  C   UNL     1      -8.081  14.907  67.540  1.00  0.00    -0.182 C  
HETATM   21  C   UNL     1      -9.181  15.626  68.335  1.00  0.00    -0.191 C  
HETATM   22  O   UNL     1      -6.852  14.932  68.270  1.00  0.00    -0.103 OA 
HETATM   23  H   UNL     1      -6.604  15.828  68.465  1.00  0.00     0.000 HD 
HETATM   24  O   UNL     1      -9.474  14.982  69.583  1.00  0.00    -0.416 OA 
HETATM   25  C   UNL     1     -10.449  15.711  67.486  1.00  0.00    -0.285 C  
HETATM   26  H   UNL     1     -10.155  15.427  70.076  1.00  0.00     0.000 HD 
ENDBRANCH  12  13
ENDBRANCH  11  12
ENDBRANCH   8  11
ENDBRANCH   7   8
ENDBRANCH   5   7
TORSDOF 5
ENDMDL
MODEL      132
REMARK 921   NORMALIZED FREE ENERGY PREDICTED BY IDOCK:   -4.73 KCAL/MOL
REMARK 922        TOTAL FREE ENERGY PREDICTED BY IDOCK:   -6.84 KCAL/MOL
REMARK 923 INTER-LIGAND FREE ENERGY PREDICTED BY IDOCK:   -5.93 KCAL/MOL
REMARK 924 INTRA-LIGAND FREE ENERGY PREDICTED BY IDOCK:   -0.92 KCAL/MOL
REMARK 927      BINDING AFFINITY PREDICTED BY RF-SCORE:    0.00 PKD
ROOT
HETATM    1  C   UNL     1      -6.825   9.142  67.461  1.00  0.00    -0.077 C  
HETATM    2  C   UNL     1      -7.634   8.339  66.425  1.00  0.00    -0.091 C  
HETATM    3  C   UNL     1      -7.978   6.968  67.037  1.00  0.00    -0.116 C  
HETATM    4  C   UNL     1      -6.786   8.105  65.161  1.00  0.00    -0.058 C  
HETATM    5  N   UNL     1      -8.912   8.992  66.086  1.00  0.00    -0.165 NA 
HETATM    6  H   UNL     1      -9.532   8.990  66.896  1.00  0.00     0.000 HD 
ENDROOT
BRANCH   5   7
HETATM    7  C   UNL     1      -8.797  10.350  65.542  1.00  0.00    -0.176 C  
BRANCH   7   8
HETATM    8  C   UNL     1      -9.915  11.266  66.075  1.00  0.00    -0.231 C  
HETATM    9  H   UNL     1     -11.366  12.359  65.310  1.00  0.00     0.000 HD 
HETATM   10  O   UNL     1     -10.677  11.793  64.981  1.00  0.00    -0.274 OA 
BRANCH   8  11
HETATM   11  C   UNL     1     -10.829  10.482  67.028  1.00  0.00    -0.225 C  
BRANCH  11  12
HETATM   12  O   UNL     1     -10.214  10.376  68.328  1.00  0.00    -0.151 OA 
BRANCH  12  13
HETATM   13  C   UNL     1     -11.023  10.774  69.368  1.00  0.00    -0.254 A  
HETATM   14  C   UNL     1     -11.416  12.106  69.541  1.00  0.00    -0.334 A  
HETATM   15  C   UNL     1     -12.275  12.463  70.574  1.00  0.00    -0.382 A  
HETATM   16  C   UNL     1     -12.747  11.492  71.448  1.00  0.00    -0.469 A  
HETATM   17  C   UNL     1     -12.338  10.157  71.319  1.00  0.00    -0.501 A  
HETATM   18  C   UNL     1     -11.426   9.797  70.299  1.00  0.00    -0.317 A  
HETATM   19  C   UNL     1     -10.931   8.370  70.181  1.00  0.00    -0.216 C  
HETATM   20  C   UNL     1     -11.222   7.517  71.421  1.00  0.00    -0.242 C  
HETATM   21  C   UNL     1     -12.672   7.705  71.895  1.00  0.00    -0.293 C  
HETATM   22  O   UNL     1     -10.973   6.137  71.142  1.00  0.00    -0.261 OA 
HETATM   23  H   UNL     1     -11.153   5.609  71.911  1.00  0.00     0.000 HD 
HETATM   24  O   UNL     1     -13.634   7.345  70.894  1.00  0.00    -0.621 OA 
HETATM   25  C   UNL     1     -12.883   9.158  72.318  1.00  0.00    -0.472 C  
HETATM   26  H   UNL     1     -14.531   7.461  71.186  1.00  0.00     0.000 HD 
ENDBRANCH  12  13
ENDBRANCH  11  12
ENDBRANCH   8  11
ENDBRANCH   7   8
ENDBRANCH   5   7
TORSDOF 5
ENDMDL
MODEL      133
REMARK 921   NORMALIZED FREE ENERGY PREDICTED BY IDOCK:   -4.73 KCAL/MOL
REMARK 922        TOTAL FREE ENERGY PREDICTED BY IDOCK:   -6.84 KCAL/MOL
REMARK 923 INTER-LIGAND FREE ENERGY PREDICTED BY IDOCK:   -6.18 KCAL/MOL
REMARK 924 INTRA-LIGAND FREE ENERGY PREDICTED BY IDOCK:   -0.66 KCAL/MOL
REMARK 927      BINDING AFFINITY PREDICTED BY RF-SCORE:    0.00 PKD
ROOT
HETATM    1  C   UNL     1      -6.948  16.868  67.175  1.00  0.00    -0.217 C  
HETATM    2  C   UNL     1      -7.520  17.023  68.596  1.00  0.00    -0.229 C  
HETATM    3  C   UNL     1      -8.869  17.760  68.496  1.00  0.00    -0.284 C  
HETATM    4  C   UNL     1      -6.569  17.871  69.458  1.00  0.00    -0.143 C  
HETATM    5  N   UNL     1      -7.789  15.721  69.235  1.00  0.00    -0.225 NA 
HETATM    6  H   UNL     1      -8.543  15.240  68.747  1.00  0.00     0.000 HD 
ENDROOT
BRANCH   5   7
HETATM    7  C   UNL     1      -6.626  14.836  69.365  1.00  0.00    -0.142 C  
BRANCH   7   8
HETATM    8  C   UNL     1      -6.567  13.812  68.216  1.00  0.00    -0.109 C  
HETATM    9  H   UNL     1      -5.187  12.706  67.344  1.00  0.00     0.000 HD 
HETATM   10  O   UNL     1      -5.224  13.338  68.053  1.00  0.00    -0.091 OA 
BRANCH   8  11
HETATM   11  C   UNL     1      -7.511  12.637  68.508  1.00  0.00    -0.121 C  
BRANCH  11  12
HETATM   12  O   UNL     1      -8.859  12.978  68.125  1.00  0.00    -0.186 OA 
BRANCH  12  13
HETATM   13  C   UNL     1      -9.371  12.201  67.112  1.00  0.00    -0.193 A  
HETATM   14  C   UNL     1      -9.196  10.812  67.075  1.00  0.00    -0.166 A  
HETATM   15  C   UNL     1      -9.769  10.053  66.062  1.00  0.00    -0.301 A  
HETATM   16  C   UNL     1     -10.520  10.674  65.071  1.00  0.00    -0.278 A  
HETATM   17  C   UNL     1     -10.677  12.066  65.065  1.00  0.00    -0.341 A  
HETATM   18  C   UNL     1     -10.056  12.849  66.066  1.00  0.00    -0.290 A  
HETATM   19  C   UNL     1     -10.170  14.359  66.041  1.00  0.00    -0.328 C  
HETATM   20  C   UNL     1     -10.683  14.912  64.706  1.00  0.00    -0.341 C  
HETATM   21  C   UNL     1     -11.904  14.122  64.211  1.00  0.00    -0.397 C  
HETATM   22  O   UNL     1     -11.015  16.296  64.838  1.00  0.00    -0.565 OA 
HETATM   23  H   UNL     1     -11.332  16.638  64.011  1.00  0.00     0.000 HD 
HETATM   24  O   UNL     1     -12.999  14.157  65.136  1.00  0.00    -0.729 OA 
HETATM   25  C   UNL     1     -11.497  12.673  63.945  1.00  0.00    -0.509 C  
HETATM   26  H   UNL     1     -13.755  13.669  64.831  1.00  0.00     0.000 HD 
ENDBRANCH  12  13
ENDBRANCH  11  12
ENDBRANCH   8  11
ENDBRANCH   7   8
ENDBRANCH   5   7
TORSDOF 5
ENDMDL
MODEL      134
REMARK 921   NORMALIZED FREE ENERGY PREDICTED BY IDOCK:   -4.72 KCAL/MOL
REMARK 922        TOTAL FREE ENERGY PREDICTED BY IDOCK:   -6.83 KCAL/MOL
REMARK 923 INTER-LIGAND FREE ENERGY PREDICTED BY IDOCK:   -6.41 KCAL/MOL
REMARK 924 INTRA-LIGAND FREE ENERGY PREDICTED BY IDOCK:   -0.42 KCAL/MOL
REMARK 927      BINDING AFFINITY PREDICTED BY RF-SCORE:    0.00 PKD
ROOT
HETATM    1  C   UNL     1      -5.391  18.545  65.298  1.00  0.00    -0.221 C  
HETATM    2  C   UNL     1      -6.422  19.644  65.618  1.00  0.00    -0.242 C  
HETATM    3  C   UNL     1      -6.465  20.627  64.433  1.00  0.00    -0.306 C  
HETATM    4  C   UNL     1      -5.989  20.421  66.875  1.00  0.00    -0.211 C  
HETATM    5  N   UNL     1      -7.784  19.103  65.778  1.00  0.00    -0.459 NA 
HETATM    6  H   UNL     1      -8.123  18.738  64.888  1.00  0.00     0.000 HD 
ENDROOT
BRANCH   5   7
HETATM    7  C   UNL     1      -7.936  18.091  66.829  1.00  0.00    -0.237 C  
BRANCH   7   8
HETATM    8  C   UNL     1      -8.223  16.700  66.234  1.00  0.00    -0.330 C  
HETATM    9  H   UNL     1      -7.764  14.830  66.657  1.00  0.00     0.000 HD 
HETATM   10  O   UNL     1      -7.587  15.688  67.025  1.00  0.00    -0.212 OA 
BRANCH   8  11
HETATM   11  C   UNL     1      -9.739  16.453  66.179  1.00  0.00    -0.327 C  
BRANCH  11  12
HETATM   12  O   UNL     1     -10.032  15.091  66.555  1.00  0.00    -0.245 OA 
BRANCH  12  13
HETATM   13  C   UNL     1     -10.676  14.364  65.580  1.00  0.00    -0.336 A  
HETATM   14  C   UNL     1     -11.677  14.919  64.774  1.00  0.00    -0.402 A  
HETATM   15  C   UNL     1     -12.271  14.170  63.765  1.00  0.00    -0.183 A  
HETATM   16  C   UNL     1     -11.874  12.855  63.554  1.00  0.00    -0.605 A  
HETATM   17  C   UNL     1     -10.901  12.265  64.372  1.00  0.00    -0.370 A  
HETATM   18  C   UNL     1     -10.328  13.008  65.431  1.00  0.00    -0.313 A  
HETATM   19  C   UNL     1      -9.316  12.367  66.359  1.00  0.00    -0.219 C  
HETATM   20  C   UNL     1      -9.270  10.838  66.252  1.00  0.00    -0.173 C  
HETATM   21  C   UNL     1      -9.240  10.386  64.784  1.00  0.00    -0.230 C  
HETATM   22  O   UNL     1      -8.130  10.327  66.946  1.00  0.00    -0.117 OA 
HETATM   23  H   UNL     1      -8.102   9.380  66.880  1.00  0.00     0.000 HD 
HETATM   24  O   UNL     1      -8.106  10.898  64.070  1.00  0.00    -0.360 OA 
HETATM   25  C   UNL     1     -10.530  10.824  64.091  1.00  0.00    -0.309 C  
HETATM   26  H   UNL     1      -8.087  10.619  63.162  1.00  0.00     0.000 HD 
ENDBRANCH  12  13
ENDBRANCH  11  12
ENDBRANCH   8  11
ENDBRANCH   7   8
ENDBRANCH   5   7
TORSDOF 5
ENDMDL
MODEL      135
REMARK 921   NORMALIZED FREE ENERGY PREDICTED BY IDOCK:   -4.67 KCAL/MOL
REMARK 922        TOTAL FREE ENERGY PREDICTED BY IDOCK:   -6.77 KCAL/MOL
REMARK 923 INTER-LIGAND FREE ENERGY PREDICTED BY IDOCK:   -5.93 KCAL/MOL
REMARK 924 INTRA-LIGAND FREE ENERGY PREDICTED BY IDOCK:   -0.83 KCAL/MOL
REMARK 927      BINDING AFFINITY PREDICTED BY RF-SCORE:    0.00 PKD
ROOT
HETATM    1  C   UNL     1      -8.297  19.786  66.056  1.00  0.00    -0.314 C  
HETATM    2  C   UNL     1      -9.433  19.399  67.021  1.00  0.00    -0.323 C  
HETATM    3  C   UNL     1     -10.627  18.902  66.185  1.00  0.00    -0.476 C  
HETATM    4  C   UNL     1      -9.885  20.631  67.824  1.00  0.00    -0.357 C  
HETATM    5  N   UNL     1      -9.050  18.296  67.921  1.00  0.00    -0.274 NA 
HETATM    6  H   UNL     1      -8.914  17.438  67.386  1.00  0.00     0.000 HD 
ENDROOT
BRANCH   5   7
HETATM    7  C   UNL     1      -7.877  18.555  68.765  1.00  0.00    -0.275 C  
BRANCH   7   8
HETATM    8  C   UNL     1      -6.844  17.418  68.658  1.00  0.00    -0.217 C  
HETATM    9  H   UNL     1      -4.982  17.107  69.226  1.00  0.00     0.000 HD 
HETATM   10  O   UNL     1      -5.619  17.809  69.292  1.00  0.00    -0.186 OA 
BRANCH   8  11
HETATM   11  C   UNL     1      -7.395  16.143  69.315  1.00  0.00    -0.231 C  
BRANCH  11  12
HETATM   12  O   UNL     1      -8.091  15.343  68.336  1.00  0.00    -0.133 OA 
BRANCH  12  13
HETATM   13  C   UNL     1      -9.271  14.800  68.789  1.00  0.00    -0.196 A  
HETATM   14  C   UNL     1     -10.003  15.373  69.836  1.00  0.00    -0.229 A  
HETATM   15  C   UNL     1     -11.217  14.825  70.234  1.00  0.00    -0.239 A  
HETATM   16  C   UNL     1     -11.710  13.695  69.593  1.00  0.00    -0.383 A  
HETATM   17  C   UNL     1     -10.978  13.082  68.567  1.00  0.00    -0.290 A  
HETATM   18  C   UNL     1      -9.720  13.607  68.191  1.00  0.00    -0.229 A  
HETATM   19  C   UNL     1      -8.891  12.923  67.123  1.00  0.00    -0.210 C  
HETATM   20  C   UNL     1      -9.369  11.504  66.792  1.00  0.00    -0.181 C  
HETATM   21  C   UNL     1     -10.895  11.462  66.610  1.00  0.00    -0.289 C  
HETATM   22  O   UNL     1      -8.722  11.026  65.611  1.00  0.00    -0.186 OA 
HETATM   23  H   UNL     1      -9.018  10.147  65.406  1.00  0.00     0.000 HD 
HETATM   24  O   UNL     1     -11.352  12.324  65.558  1.00  0.00    -0.324 OA 
HETATM   25  C   UNL     1     -11.573  11.846  67.925  1.00  0.00    -0.393 C  
HETATM   26  H   UNL     1     -12.295  12.298  65.445  1.00  0.00     0.000 HD 
ENDBRANCH  12  13
ENDBRANCH  11  12
ENDBRANCH   8  11
ENDBRANCH   7   8
ENDBRANCH   5   7
TORSDOF 5
ENDMDL
MODEL      136
REMARK 921   NORMALIZED FREE ENERGY PREDICTED BY IDOCK:   -4.67 KCAL/MOL
REMARK 922        TOTAL FREE ENERGY PREDICTED BY IDOCK:   -6.76 KCAL/MOL
REMARK 923 INTER-LIGAND FREE ENERGY PREDICTED BY IDOCK:   -6.14 KCAL/MOL
REMARK 924 INTRA-LIGAND FREE ENERGY PREDICTED BY IDOCK:   -0.62 KCAL/MOL
REMARK 927      BINDING AFFINITY PREDICTED BY RF-SCORE:    0.00 PKD
ROOT
HETATM    1  C   UNL     1      -6.113  13.006  68.101  1.00  0.00    -0.099 C  
HETATM    2  C   UNL     1      -7.295  12.029  68.237  1.00  0.00    -0.095 C  
HETATM    3  C   UNL     1      -6.999  11.072  69.407  1.00  0.00    -0.126 C  
HETATM    4  C   UNL     1      -7.437  11.192  66.953  1.00  0.00    -0.138 C  
HETATM    5  N   UNL     1      -8.558  12.720  68.556  1.00  0.00    -0.344 NA 
HETATM    6  H   UNL     1      -8.507  13.132  69.487  1.00  0.00     0.000 HD 
ENDROOT
BRANCH   5   7
HETATM    7  C   UNL     1      -8.982  13.730  67.580  1.00  0.00    -0.201 C  
BRANCH   7   8
HETATM    8  C   UNL     1     -10.494  13.641  67.297  1.00  0.00    -0.260 C  
HETATM    9  H   UNL     1     -11.853  14.734  66.378  1.00  0.00     0.000 HD 
HETATM   10  O   UNL     1     -10.920  14.789  66.552  1.00  0.00    -0.314 OA 
BRANCH   8  11
HETATM   11  C   UNL     1     -10.809  12.357  66.516  1.00  0.00    -0.250 C  
BRANCH  11  12
HETATM   12  O   UNL     1     -11.940  11.683  67.106  1.00  0.00    -0.614 OA 
BRANCH  12  13
HETATM   13  C   UNL     1     -11.651  11.016  68.274  1.00  0.00    -0.284 A  
HETATM   14  C   UNL     1     -11.934  11.559  69.534  1.00  0.00    -0.402 A  
HETATM   15  C   UNL     1     -11.674  10.835  70.691  1.00  0.00    -0.442 A  
HETATM   16  C   UNL     1     -11.124   9.562  70.603  1.00  0.00    -0.364 A  
HETATM   17  C   UNL     1     -10.797   9.012  69.355  1.00  0.00    -0.152 A  
HETATM   18  C   UNL     1     -11.015   9.764  68.177  1.00  0.00    -0.228 A  
HETATM   19  C   UNL     1     -10.615   9.207  66.826  1.00  0.00    -0.207 C  
HETATM   20  C   UNL     1      -9.685   7.991  66.917  1.00  0.00    -0.225 C  
HETATM   21  C   UNL     1     -10.195   6.979  67.954  1.00  0.00    -0.183 C  
HETATM   22  O   UNL     1      -9.564   7.364  65.638  1.00  0.00    -0.315 OA 
HETATM   23  H   UNL     1      -8.988   6.611  65.694  1.00  0.00     0.000 HD 
HETATM   24  O   UNL     1     -11.509   6.489  67.653  1.00  0.00    -0.694 OA 
HETATM   25  C   UNL     1     -10.188   7.625  69.339  1.00  0.00    -0.206 C  
HETATM   26  H   UNL     1     -11.824   5.864  68.294  1.00  0.00     0.000 HD 
ENDBRANCH  12  13
ENDBRANCH  11  12
ENDBRANCH   8  11
ENDBRANCH   7   8
ENDBRANCH   5   7
TORSDOF 5
ENDMDL
MODEL      137
REMARK 921   NORMALIZED FREE ENERGY PREDICTED BY IDOCK:   -4.67 KCAL/MOL
REMARK 922        TOTAL FREE ENERGY PREDICTED BY IDOCK:   -6.76 KCAL/MOL
REMARK 923 INTER-LIGAND FREE ENERGY PREDICTED BY IDOCK:   -6.14 KCAL/MOL
REMARK 924 INTRA-LIGAND FREE ENERGY PREDICTED BY IDOCK:   -0.62 KCAL/MOL
REMARK 927      BINDING AFFINITY PREDICTED BY RF-SCORE:    0.00 PKD
ROOT
HETATM    1  C   UNL     1     -11.065  16.336  68.312  1.00  0.00    -0.346 C  
HETATM    2  C   UNL     1      -9.839  16.042  67.428  1.00  0.00    -0.236 C  
HETATM    3  C   UNL     1      -8.630  15.787  68.347  1.00  0.00    -0.171 C  
HETATM    4  C   UNL     1      -9.524  17.262  66.543  1.00  0.00    -0.286 C  
HETATM    5  N   UNL     1     -10.018  14.830  66.607  1.00  0.00    -0.256 NA 
HETATM    6  H   UNL     1     -10.060  14.006  67.205  1.00  0.00     0.000 HD 
ENDROOT
BRANCH   5   7
HETATM    7  C   UNL     1     -11.172  14.854  65.700  1.00  0.00    -0.347 C  
BRANCH   7   8
HETATM    8  C   UNL     1     -12.205  13.775  66.076  1.00  0.00    -0.457 C  
HETATM    9  H   UNL     1     -14.098  13.394  65.675  1.00  0.00     0.000 HD 
HETATM   10  O   UNL     1     -13.460  14.060  65.444  1.00  0.00    -0.679 OA 
BRANCH   8  11
HETATM   11  C   UNL     1     -11.700  12.389  65.648  1.00  0.00    -0.414 C  
BRANCH  11  12
HETATM   12  O   UNL     1     -10.477  12.072  66.345  1.00  0.00    -0.224 OA 
BRANCH  12  13
HETATM   13  C   UNL     1     -10.270  10.724  66.533  1.00  0.00    -0.235 A  
HETATM   14  C   UNL     1     -10.885  10.011  67.569  1.00  0.00    -0.326 A  
HETATM   15  C   UNL     1     -10.692   8.641  67.697  1.00  0.00    -0.194 A  
HETATM   16  C   UNL     1      -9.877   7.969  66.794  1.00  0.00    -0.327 A  
HETATM   17  C   UNL     1      -9.220   8.667  65.772  1.00  0.00    -0.245 A  
HETATM   18  C   UNL     1      -9.375  10.069  65.665  1.00  0.00    -0.257 A  
HETATM   19  C   UNL     1      -8.628  10.845  64.600  1.00  0.00     0.014 C  
HETATM   20  C   UNL     1      -7.492  10.049  63.946  1.00  0.00    -0.134 C  
HETATM   21  C   UNL     1      -7.955   8.633  63.568  1.00  0.00    -0.160 C  
HETATM   22  O   UNL     1      -7.011  10.733  62.788  1.00  0.00    -0.326 OA 
HETATM   23  H   UNL     1      -6.308  10.240  62.382  1.00  0.00     0.000 HD 
HETATM   24  O   UNL     1      -9.058   8.637  62.651  1.00  0.00    -0.442 OA 
HETATM   25  C   UNL     1      -8.338   7.869  64.835  1.00  0.00    -0.087 C  
HETATM   26  H   UNL     1      -9.344   7.762  62.416  1.00  0.00     0.000 HD 
ENDBRANCH  12  13
ENDBRANCH  11  12
ENDBRANCH   8  11
ENDBRANCH   7   8
ENDBRANCH   5   7
TORSDOF 5
ENDMDL
MODEL      138
REMARK 921   NORMALIZED FREE ENERGY PREDICTED BY IDOCK:   -4.63 KCAL/MOL
REMARK 922        TOTAL FREE ENERGY PREDICTED BY IDOCK:   -6.71 KCAL/MOL
REMARK 923 INTER-LIGAND FREE ENERGY PREDICTED BY IDOCK:   -6.35 KCAL/MOL
REMARK 924 INTRA-LIGAND FREE ENERGY PREDICTED BY IDOCK:   -0.37 KCAL/MOL
REMARK 927      BINDING AFFINITY PREDICTED BY RF-SCORE:    0.00 PKD
ROOT
HETATM    1  C   UNL     1     -10.339  13.291  65.110  1.00  0.00    -0.336 C  
HETATM    2  C   UNL     1     -11.470  13.201  66.151  1.00  0.00    -0.330 C  
HETATM    3  C   UNL     1     -12.757  13.759  65.515  1.00  0.00    -0.530 C  
HETATM    4  C   UNL     1     -11.125  14.062  67.379  1.00  0.00    -0.317 C  
HETATM    5  N   UNL     1     -11.755  11.810  66.548  1.00  0.00    -0.528 NA 
HETATM    6  H   UNL     1     -12.142  11.293  65.759  1.00  0.00     0.000 HD 
ENDROOT
BRANCH   5   7
HETATM    7  C   UNL     1     -10.621  11.078  67.123  1.00  0.00    -0.250 C  
BRANCH   7   8
HETATM    8  C   UNL     1     -10.451   9.696  66.465  1.00  0.00    -0.143 C  
HETATM    9  H   UNL     1      -9.357   8.913  65.023  1.00  0.00     0.000 HD 
HETATM   10  O   UNL     1      -9.462   9.766  65.429  1.00  0.00    -0.230 OA 
BRANCH   8  11
HETATM   11  C   UNL     1     -10.038   8.658  67.519  1.00  0.00    -0.216 C  
BRANCH  11  12
HETATM   12  O   UNL     1     -11.059   7.645  67.641  1.00  0.00    -0.045 OA 
BRANCH  12  13
HETATM   13  C   UNL     1     -10.604   6.446  68.141  1.00  0.00    -0.255 A  
HETATM   14  C   UNL     1      -9.997   5.481  67.329  1.00  0.00    -0.190 A  
HETATM   15  C   UNL     1      -9.505   4.302  67.877  1.00  0.00    -0.216 A  
HETATM   16  C   UNL     1      -9.619   4.073  69.243  1.00  0.00    -0.247 A  
HETATM   17  C   UNL     1     -10.257   5.007  70.070  1.00  0.00    -0.339 A  
HETATM   18  C   UNL     1     -10.803   6.186  69.511  1.00  0.00    -0.428 A  
HETATM   19  C   UNL     1     -11.544   7.178  70.383  1.00  0.00    -0.300 C  
HETATM   20  C   UNL     1     -11.925   6.618  71.759  1.00  0.00    -0.345 C  
HETATM   21  C   UNL     1     -10.739   5.886  72.406  1.00  0.00    -0.232 C  
HETATM   22  O   UNL     1     -12.376   7.671  72.614  1.00  0.00    -0.549 OA 
HETATM   23  H   UNL     1     -12.612   7.324  73.466  1.00  0.00     0.000 HD 
HETATM   24  O   UNL     1      -9.597   6.733  72.591  1.00  0.00    -0.146 OA 
HETATM   25  C   UNL     1     -10.357   4.681  71.546  1.00  0.00    -0.174 C  
HETATM   26  H   UNL     1      -8.864   6.281  72.991  1.00  0.00     0.000 HD 
ENDBRANCH  12  13
ENDBRANCH  11  12
ENDBRANCH   8  11
ENDBRANCH   7   8
ENDBRANCH   5   7
TORSDOF 5
ENDMDL
MODEL      139
REMARK 921   NORMALIZED FREE ENERGY PREDICTED BY IDOCK:   -4.63 KCAL/MOL
REMARK 922        TOTAL FREE ENERGY PREDICTED BY IDOCK:   -6.71 KCAL/MOL
REMARK 923 INTER-LIGAND FREE ENERGY PREDICTED BY IDOCK:   -6.27 KCAL/MOL
REMARK 924 INTRA-LIGAND FREE ENERGY PREDICTED BY IDOCK:   -0.44 KCAL/MOL
REMARK 927      BINDING AFFINITY PREDICTED BY RF-SCORE:    0.00 PKD
ROOT
HETATM    1  C   UNL     1     -10.769  15.604  66.444  1.00  0.00    -0.291 C  
HETATM    2  C   UNL     1     -11.120  14.174  65.994  1.00  0.00    -0.314 C  
HETATM    3  C   UNL     1     -10.455  13.921  64.628  1.00  0.00    -0.419 C  
HETATM    4  C   UNL     1     -12.643  14.035  65.823  1.00  0.00    -0.512 C  
HETATM    5  N   UNL     1     -10.599  13.153  66.922  1.00  0.00    -0.261 NA 
HETATM    6  H   UNL     1      -9.579  13.146  66.899  1.00  0.00     0.000 HD 
ENDROOT
BRANCH   5   7
HETATM    7  C   UNL     1     -11.071  13.266  68.306  1.00  0.00    -0.266 C  
BRANCH   7   8
HETATM    8  C   UNL     1     -11.984  12.085  68.688  1.00  0.00    -0.235 C  
HETATM    9  H   UNL     1     -12.382  10.288  67.982  1.00  0.00     0.000 HD 
HETATM   10  O   UNL     1     -11.819  11.016  67.747  1.00  0.00    -0.605 OA 
BRANCH   8  11
HETATM   11  C   UNL     1     -11.651  11.598  70.106  1.00  0.00    -0.217 C  
BRANCH  11  12
HETATM   12  O   UNL     1     -10.698  10.516  70.046  1.00  0.00    -0.276 OA 
BRANCH  12  13
HETATM   13  C   UNL     1     -10.897   9.538  70.993  1.00  0.00    -0.353 A  
HETATM   14  C   UNL     1     -12.163   9.258  71.522  1.00  0.00    -0.439 A  
HETATM   15  C   UNL     1     -12.334   8.228  72.440  1.00  0.00    -0.385 A  
HETATM   16  C   UNL     1     -11.241   7.471  72.844  1.00  0.00    -0.396 A  
HETATM   17  C   UNL     1      -9.958   7.757  72.357  1.00  0.00    -0.272 A  
HETATM   18  C   UNL     1      -9.770   8.834  71.459  1.00  0.00    -0.361 A  
HETATM   19  C   UNL     1      -8.383   9.191  70.968  1.00  0.00    -0.205 C  
HETATM   20  C   UNL     1      -7.259   8.537  71.781  1.00  0.00    -0.095 C  
HETATM   21  C   UNL     1      -7.542   7.046  72.019  1.00  0.00    -0.091 C  
HETATM   22  O   UNL     1      -6.006   8.698  71.113  1.00  0.00    -0.035 OA 
HETATM   23  H   UNL     1      -5.310   8.294  71.617  1.00  0.00     0.000 HD 
HETATM   24  O   UNL     1      -7.671   6.305  70.798  1.00  0.00    -0.097 OA 
HETATM   25  C   UNL     1      -8.814   6.897  72.853  1.00  0.00    -0.142 C  
HETATM   26  H   UNL     1      -7.846   5.382  70.944  1.00  0.00     0.000 HD 
ENDBRANCH  12  13
ENDBRANCH  11  12
ENDBRANCH   8  11
ENDBRANCH   7   8
ENDBRANCH   5   7
TORSDOF 5
ENDMDL
MODEL      140
REMARK 921   NORMALIZED FREE ENERGY PREDICTED BY IDOCK:   -4.63 KCAL/MOL
REMARK 922        TOTAL FREE ENERGY PREDICTED BY IDOCK:   -6.71 KCAL/MOL
REMARK 923 INTER-LIGAND FREE ENERGY PREDICTED BY IDOCK:   -5.88 KCAL/MOL
REMARK 924 INTRA-LIGAND FREE ENERGY PREDICTED BY IDOCK:   -0.83 KCAL/MOL
REMARK 927      BINDING AFFINITY PREDICTED BY RF-SCORE:    0.00 PKD
ROOT
HETATM    1  C   UNL     1      -7.429   8.296  64.396  1.00  0.00    -0.102 C  
HETATM    2  C   UNL     1      -6.753   9.656  64.141  1.00  0.00    -0.113 C  
HETATM    3  C   UNL     1      -7.312  10.235  62.828  1.00  0.00    -0.143 C  
HETATM    4  C   UNL     1      -5.234   9.467  63.978  1.00  0.00    -0.060 C  
HETATM    5  N   UNL     1      -7.049  10.636  65.203  1.00  0.00    -0.345 NA 
HETATM    6  H   UNL     1      -8.039  10.878  65.190  1.00  0.00     0.000 HD 
ENDROOT
BRANCH   5   7
HETATM    7  C   UNL     1      -6.646  10.233  66.555  1.00  0.00    -0.085 C  
BRANCH   7   8
HETATM    8  C   UNL     1      -6.374  11.458  67.450  1.00  0.00    -0.082 C  
HETATM    9  H   UNL     1      -5.457  13.194  67.272  1.00  0.00     0.000 HD 
HETATM   10  O   UNL     1      -5.624  12.438  66.721  1.00  0.00    -0.319 OA 
BRANCH   8  11
HETATM   11  C   UNL     1      -7.701  12.060  67.935  1.00  0.00    -0.134 C  
BRANCH  11  12
HETATM   12  O   UNL     1      -8.471  12.531  66.810  1.00  0.00    -0.163 OA 
BRANCH  12  13
HETATM   13  C   UNL     1      -9.565  13.292  67.156  1.00  0.00    -0.240 A  
HETATM   14  C   UNL     1      -9.590  14.083  68.311  1.00  0.00    -0.224 A  
HETATM   15  C   UNL     1     -10.693  14.877  68.602  1.00  0.00    -0.250 A  
HETATM   16  C   UNL     1     -11.786  14.885  67.744  1.00  0.00    -0.340 A  
HETATM   17  C   UNL     1     -11.800  14.073  66.602  1.00  0.00    -0.443 A  
HETATM   18  C   UNL     1     -10.701  13.227  66.326  1.00  0.00    -0.293 A  
HETATM   19  C   UNL     1     -10.725  12.302  65.127  1.00  0.00    -0.330 C  
HETATM   20  C   UNL     1     -12.120  12.135  64.511  1.00  0.00    -0.334 C  
HETATM   21  C   UNL     1     -12.819  13.494  64.347  1.00  0.00     0.099 C  
HETATM   22  O   UNL     1     -12.027  11.475  63.247  1.00  0.00    -0.847 OA 
HETATM   23  H   UNL     1     -12.891  11.372  62.865  1.00  0.00     0.000 HD 
HETATM   24  O   UNL     1     -12.087  14.396  63.506  1.00  0.00    -0.897 OA 
HETATM   25  C   UNL     1     -13.033  14.124  65.722  1.00  0.00    -0.235 C  
HETATM   26  H   UNL     1     -12.519  15.236  63.404  1.00  0.00     0.000 HD 
ENDBRANCH  12  13
ENDBRANCH  11  12
ENDBRANCH   8  11
ENDBRANCH   7   8
ENDBRANCH   5   7
TORSDOF 5
ENDMDL
MODEL      141
REMARK 921   NORMALIZED FREE ENERGY PREDICTED BY IDOCK:   -4.63 KCAL/MOL
REMARK 922        TOTAL FREE ENERGY PREDICTED BY IDOCK:   -6.70 KCAL/MOL
REMARK 923 INTER-LIGAND FREE ENERGY PREDICTED BY IDOCK:   -5.76 KCAL/MOL
REMARK 924 INTRA-LIGAND FREE ENERGY PREDICTED BY IDOCK:   -0.95 KCAL/MOL
REMARK 927      BINDING AFFINITY PREDICTED BY RF-SCORE:    0.00 PKD
ROOT
HETATM    1  C   UNL     1      -6.281  15.534  67.852  1.00  0.00    -0.167 C  
HETATM    2  C   UNL     1      -7.790  15.332  68.085  1.00  0.00    -0.120 C  
HETATM    3  C   UNL     1      -8.533  16.560  67.527  1.00  0.00    -0.189 C  
HETATM    4  C   UNL     1      -8.081  15.236  69.593  1.00  0.00    -0.125 C  
HETATM    5  N   UNL     1      -8.313  14.152  67.372  1.00  0.00    -0.187 NA 
HETATM    6  H   UNL     1      -8.265  14.302  66.364  1.00  0.00     0.000 HD 
ENDROOT
BRANCH   5   7
HETATM    7  C   UNL     1      -7.678  12.877  67.723  1.00  0.00    -0.151 C  
BRANCH   7   8
HETATM    8  C   UNL     1      -8.335  11.698  66.981  1.00  0.00    -0.169 C  
HETATM    9  H   UNL     1      -7.777   9.932  66.305  1.00  0.00     0.000 HD 
HETATM   10  O   UNL     1      -7.371  10.660  66.762  1.00  0.00    -0.107 OA 
BRANCH   8  11
HETATM   11  C   UNL     1      -9.519  11.156  67.796  1.00  0.00    -0.168 C  
BRANCH  11  12
HETATM   12  O   UNL     1     -10.127  12.223  68.554  1.00  0.00    -0.216 OA 
BRANCH  12  13
HETATM   13  C   UNL     1     -11.041  11.798  69.491  1.00  0.00    -0.133 A  
HETATM   14  C   UNL     1     -11.262  10.442  69.757  1.00  0.00    -0.353 A  
HETATM   15  C   UNL     1     -12.157  10.050  70.746  1.00  0.00    -0.418 A  
HETATM   16  C   UNL     1     -12.845  11.012  71.476  1.00  0.00    -0.555 A  
HETATM   17  C   UNL     1     -12.669  12.375  71.203  1.00  0.00    -0.336 A  
HETATM   18  C   UNL     1     -11.796  12.777  70.165  1.00  0.00    -0.326 A  
HETATM   19  C   UNL     1     -11.638  14.244  69.820  1.00  0.00    -0.350 C  
HETATM   20  C   UNL     1     -12.727  15.136  70.428  1.00  0.00    -0.333 C  
HETATM   21  C   UNL     1     -12.955  14.799  71.910  1.00  0.00    -0.327 C  
HETATM   22  O   UNL     1     -12.373  16.514  70.288  1.00  0.00    -0.162 OA 
HETATM   23  H   UNL     1     -13.047  17.066  70.664  1.00  0.00     0.000 HD 
HETATM   24  O   UNL     1     -11.773  14.965  72.705  1.00  0.00    -0.279 OA 
HETATM   25  C   UNL     1     -13.464  13.363  72.031  1.00  0.00    -0.584 C  
HETATM   26  H   UNL     1     -11.914  14.757  73.622  1.00  0.00     0.000 HD 
ENDBRANCH  12  13
ENDBRANCH  11  12
ENDBRANCH   8  11
ENDBRANCH   7   8
ENDBRANCH   5   7
TORSDOF 5
ENDMDL
MODEL      142
REMARK 921   NORMALIZED FREE ENERGY PREDICTED BY IDOCK:   -4.62 KCAL/MOL
REMARK 922        TOTAL FREE ENERGY PREDICTED BY IDOCK:   -6.70 KCAL/MOL
REMARK 923 INTER-LIGAND FREE ENERGY PREDICTED BY IDOCK:   -5.75 KCAL/MOL
REMARK 924 INTRA-LIGAND FREE ENERGY PREDICTED BY IDOCK:   -0.95 KCAL/MOL
REMARK 927      BINDING AFFINITY PREDICTED BY RF-SCORE:    0.00 PKD
ROOT
HETATM    1  C   UNL     1     -10.744   5.979  68.476  1.00  0.00    -0.354 C  
HETATM    2  C   UNL     1      -9.499   5.073  68.438  1.00  0.00    -0.134 C  
HETATM    3  C   UNL     1      -9.806   3.869  67.528  1.00  0.00    -0.073 C  
HETATM    4  C   UNL     1      -9.190   4.544  69.850  1.00  0.00    -0.193 C  
HETATM    5  N   UNL     1      -8.326   5.758  67.865  1.00  0.00    -0.104 NA 
HETATM    6  H   UNL     1      -8.484   5.955  66.877  1.00  0.00     0.000 HD 
ENDROOT
BRANCH   5   7
HETATM    7  C   UNL     1      -7.912   6.980  68.563  1.00  0.00    -0.123 C  
BRANCH   7   8
HETATM    8  C   UNL     1      -7.705   8.148  67.580  1.00  0.00    -0.102 C  
HETATM    9  H   UNL     1      -8.674   8.932  66.053  1.00  0.00     0.000 HD 
HETATM   10  O   UNL     1      -8.802   8.212  66.659  1.00  0.00    -0.130 OA 
BRANCH   8  11
HETATM   11  C   UNL     1      -7.583   9.471  68.351  1.00  0.00    -0.081 C  
BRANCH  11  12
HETATM   12  O   UNL     1      -8.366   9.412  69.561  1.00  0.00    -0.108 OA 
BRANCH  12  13
HETATM   13  C   UNL     1      -9.560  10.093  69.493  1.00  0.00    -0.221 A  
HETATM   14  C   UNL     1      -9.745  11.191  68.644  1.00  0.00    -0.202 A  
HETATM   15  C   UNL     1     -10.980  11.824  68.565  1.00  0.00    -0.270 A  
HETATM   16  C   UNL     1     -12.042  11.369  69.337  1.00  0.00    -0.358 A  
HETATM   17  C   UNL     1     -11.871  10.296  70.222  1.00  0.00    -0.372 A  
HETATM   18  C   UNL     1     -10.604   9.679  70.342  1.00  0.00    -0.354 A  
HETATM   19  C   UNL     1     -10.388   8.555  71.335  1.00  0.00    -0.307 C  
HETATM   20  C   UNL     1     -11.513   8.428  72.369  1.00  0.00    -0.380 C  
HETATM   21  C   UNL     1     -12.893   8.496  71.697  1.00  0.00    -0.338 C  
HETATM   22  O   UNL     1     -11.382   7.203  73.095  1.00  0.00    -0.534 OA 
HETATM   23  H   UNL     1     -12.079   7.125  73.736  1.00  0.00     0.000 HD 
HETATM   24  O   UNL     1     -13.089   7.461  70.724  1.00  0.00    -0.598 OA 
HETATM   25  C   UNL     1     -13.070   9.865  71.041  1.00  0.00    -0.406 C  
HETATM   26  H   UNL     1     -13.942   7.504  70.309  1.00  0.00     0.000 HD 
ENDBRANCH  12  13
ENDBRANCH  11  12
ENDBRANCH   8  11
ENDBRANCH   7   8
ENDBRANCH   5   7
TORSDOF 5
ENDMDL
MODEL      143
REMARK 921   NORMALIZED FREE ENERGY PREDICTED BY IDOCK:   -4.62 KCAL/MOL
REMARK 922        TOTAL FREE ENERGY PREDICTED BY IDOCK:   -6.70 KCAL/MOL
REMARK 923 INTER-LIGAND FREE ENERGY PREDICTED BY IDOCK:   -5.93 KCAL/MOL
REMARK 924 INTRA-LIGAND FREE ENERGY PREDICTED BY IDOCK:   -0.76 KCAL/MOL
REMARK 927      BINDING AFFINITY PREDICTED BY RF-SCORE:    0.00 PKD
ROOT
HETATM    1  C   UNL     1      -7.247   9.288  68.646  1.00  0.00    -0.075 C  
HETATM    2  C   UNL     1      -7.008   8.375  69.862  1.00  0.00    -0.043 C  
HETATM    3  C   UNL     1      -6.258   9.187  70.936  1.00  0.00    -0.062 C  
HETATM    4  C   UNL     1      -6.127   7.180  69.458  1.00  0.00    -0.030 C  
HETATM    5  N   UNL     1      -8.269   7.916  70.473  1.00  0.00    -0.116 NA 
HETATM    6  H   UNL     1      -8.766   8.705  70.886  1.00  0.00     0.000 HD 
ENDROOT
BRANCH   5   7
HETATM    7  C   UNL     1      -9.162   7.170  69.580  1.00  0.00    -0.149 C  
BRANCH   7   8
HETATM    8  C   UNL     1     -10.503   7.901  69.385  1.00  0.00    -0.220 C  
HETATM    9  H   UNL     1     -11.359   9.543  70.062  1.00  0.00     0.000 HD 
HETATM   10  O   UNL     1     -10.531   9.092  70.182  1.00  0.00    -0.197 OA 
BRANCH   8  11
HETATM   11  C   UNL     1     -10.701   8.252  67.902  1.00  0.00    -0.070 C  
BRANCH  11  12
HETATM   12  O   UNL     1     -10.822   9.681  67.745  1.00  0.00    -0.270 OA 
BRANCH  12  13
HETATM   13  C   UNL     1     -10.369  10.154  66.535  1.00  0.00    -0.202 A  
HETATM   14  C   UNL     1      -9.560   9.387  65.688  1.00  0.00    -0.345 A  
HETATM   15  C   UNL     1      -9.162   9.878  64.451  1.00  0.00    -0.317 A  
HETATM   16  C   UNL     1      -9.566  11.146  64.047  1.00  0.00    -0.288 A  
HETATM   17  C   UNL     1     -10.344  11.948  64.892  1.00  0.00    -0.328 A  
HETATM   18  C   UNL     1     -10.711  11.472  66.173  1.00  0.00    -0.324 A  
HETATM   19  C   UNL     1     -11.505  12.348  67.120  1.00  0.00    -0.423 C  
HETATM   20  C   UNL     1     -11.539  13.824  66.704  1.00  0.00    -0.369 C  
HETATM   21  C   UNL     1     -11.851  13.970  65.206  1.00  0.00    -0.359 C  
HETATM   22  O   UNL     1     -12.508  14.534  67.478  1.00  0.00    -0.590 OA 
HETATM   23  H   UNL     1     -12.529  15.448  67.221  1.00  0.00     0.000 HD 
HETATM   24  O   UNL     1     -13.114  13.395  64.844  1.00  0.00    -0.723 OA 
HETATM   25  C   UNL     1     -10.733  13.323  64.389  1.00  0.00    -0.432 C  
HETATM   26  H   UNL     1     -13.307  13.486  63.918  1.00  0.00     0.000 HD 
ENDBRANCH  12  13
ENDBRANCH  11  12
ENDBRANCH   8  11
ENDBRANCH   7   8
ENDBRANCH   5   7
TORSDOF 5
ENDMDL
MODEL      144
REMARK 921   NORMALIZED FREE ENERGY PREDICTED BY IDOCK:   -4.62 KCAL/MOL
REMARK 922        TOTAL FREE ENERGY PREDICTED BY IDOCK:   -6.69 KCAL/MOL
REMARK 923 INTER-LIGAND FREE ENERGY PREDICTED BY IDOCK:   -6.35 KCAL/MOL
REMARK 924 INTRA-LIGAND FREE ENERGY PREDICTED BY IDOCK:   -0.34 KCAL/MOL
REMARK 927      BINDING AFFINITY PREDICTED BY RF-SCORE:    0.00 PKD
ROOT
HETATM    1  C   UNL     1      -7.697  11.838  67.018  1.00  0.00    -0.158 C  
HETATM    2  C   UNL     1      -8.785  12.721  67.657  1.00  0.00    -0.180 C  
HETATM    3  C   UNL     1      -9.868  11.800  68.249  1.00  0.00    -0.198 C  
HETATM    4  C   UNL     1      -9.439  13.609  66.584  1.00  0.00    -0.285 C  
HETATM    5  N   UNL     1      -8.261  13.537  68.768  1.00  0.00    -0.341 NA 
HETATM    6  H   UNL     1      -7.983  12.937  69.543  1.00  0.00     0.000 HD 
ENDROOT
BRANCH   5   7
HETATM    7  C   UNL     1      -7.164  14.445  68.413  1.00  0.00    -0.114 C  
BRANCH   7   8
HETATM    8  C   UNL     1      -6.733  15.304  69.617  1.00  0.00    -0.181 C  
HETATM    9  H   UNL     1      -5.622  15.070  71.228  1.00  0.00     0.000 HD 
HETATM   10  O   UNL     1      -5.887  14.540  70.486  1.00  0.00    -0.148 OA 
BRANCH   8  11
HETATM   11  C   UNL     1      -5.995  16.560  69.130  1.00  0.00    -0.155 C  
BRANCH  11  12
HETATM   12  O   UNL     1      -6.530  17.732  69.779  1.00  0.00    -0.196 OA 
BRANCH  12  13
HETATM   13  C   UNL     1      -6.820  18.768  68.921  1.00  0.00    -0.291 A  
HETATM   14  C   UNL     1      -5.938  19.835  68.714  1.00  0.00    -0.280 A  
HETATM   15  C   UNL     1      -6.243  20.838  67.801  1.00  0.00    -0.357 A  
HETATM   16  C   UNL     1      -7.436  20.788  67.090  1.00  0.00    -0.366 A  
HETATM   17  C   UNL     1      -8.352  19.750  67.307  1.00  0.00    -0.351 A  
HETATM   18  C   UNL     1      -8.069  18.752  68.270  1.00  0.00    -0.353 A  
HETATM   19  C   UNL     1      -9.073  17.656  68.557  1.00  0.00    -0.279 C  
HETATM   20  C   UNL     1     -10.472  17.945  67.997  1.00  0.00    -0.382 C  
HETATM   21  C   UNL     1     -10.395  18.444  66.546  1.00  0.00    -0.400 C  
HETATM   22  O   UNL     1     -11.285  16.772  68.069  1.00  0.00    -0.295 OA 
HETATM   23  H   UNL     1     -12.151  16.951  67.722  1.00  0.00     0.000 HD 
HETATM   24  O   UNL     1      -9.769  17.499  65.666  1.00  0.00    -0.532 OA 
HETATM   25  C   UNL     1      -9.636  19.770  66.505  1.00  0.00    -0.509 C  
HETATM   26  H   UNL     1      -9.722  17.807  64.769  1.00  0.00     0.000 HD 
ENDBRANCH  12  13
ENDBRANCH  11  12
ENDBRANCH   8  11
ENDBRANCH   7   8
ENDBRANCH   5   7
TORSDOF 5
ENDMDL
MODEL      145
REMARK 921   NORMALIZED FREE ENERGY PREDICTED BY IDOCK:   -4.61 KCAL/MOL
REMARK 922        TOTAL FREE ENERGY PREDICTED BY IDOCK:   -6.69 KCAL/MOL
REMARK 923 INTER-LIGAND FREE ENERGY PREDICTED BY IDOCK:   -5.79 KCAL/MOL
REMARK 924 INTRA-LIGAND FREE ENERGY PREDICTED BY IDOCK:   -0.90 KCAL/MOL
REMARK 927      BINDING AFFINITY PREDICTED BY RF-SCORE:    0.00 PKD
ROOT
HETATM    1  C   UNL     1     -13.218   7.199  71.217  1.00  0.00    -0.340 C  
HETATM    2  C   UNL     1     -12.812   8.448  72.021  1.00  0.00    -0.354 C  
HETATM    3  C   UNL     1     -14.080   9.044  72.660  1.00  0.00    -0.335 C  
HETATM    4  C   UNL     1     -12.204   9.504  71.080  1.00  0.00    -0.421 C  
HETATM    5  N   UNL     1     -11.885   8.128  73.121  1.00  0.00    -0.498 NA 
HETATM    6  H   UNL     1     -12.358   7.560  73.824  1.00  0.00     0.000 HD 
ENDROOT
BRANCH   5   7
HETATM    7  C   UNL     1     -10.629   7.486  72.715  1.00  0.00    -0.313 C  
BRANCH   7   8
HETATM    8  C   UNL     1      -9.417   8.396  72.989  1.00  0.00    -0.167 C  
HETATM    9  H   UNL     1      -8.061   8.599  74.406  1.00  0.00     0.000 HD 
HETATM   10  O   UNL     1      -8.809   8.038  74.237  1.00  0.00    -0.194 OA 
BRANCH   8  11
HETATM   11  C   UNL     1      -8.396   8.271  71.848  1.00  0.00    -0.157 C  
BRANCH  11  12
HETATM   12  O   UNL     1      -8.676   9.249  70.825  1.00  0.00    -0.217 OA 
BRANCH  12  13
HETATM   13  C   UNL     1      -9.056   8.708  69.618  1.00  0.00    -0.149 A  
HETATM   14  C   UNL     1      -9.052   7.328  69.384  1.00  0.00    -0.142 A  
HETATM   15  C   UNL     1      -9.491   6.814  68.170  1.00  0.00    -0.120 A  
HETATM   16  C   UNL     1      -9.934   7.676  67.173  1.00  0.00    -0.297 A  
HETATM   17  C   UNL     1      -9.912   9.063  67.370  1.00  0.00    -0.266 A  
HETATM   18  C   UNL     1      -9.422   9.594  68.586  1.00  0.00    -0.147 A  
HETATM   19  C   UNL     1      -9.339  11.092  68.792  1.00  0.00    -0.185 C  
HETATM   20  C   UNL     1      -9.487  11.897  67.495  1.00  0.00    -0.176 C  
HETATM   21  C   UNL     1     -10.667  11.383  66.656  1.00  0.00    -0.269 C  
HETATM   22  O   UNL     1      -9.665  13.284  67.792  1.00  0.00    -0.205 OA 
HETATM   23  H   UNL     1      -9.757  13.783  66.989  1.00  0.00     0.000 HD 
HETATM   24  O   UNL     1     -11.919  11.460  67.353  1.00  0.00    -0.606 OA 
HETATM   25  C   UNL     1     -10.398   9.939  66.233  1.00  0.00    -0.233 C  
HETATM   26  H   UNL     1     -12.649  11.142  66.834  1.00  0.00     0.000 HD 
ENDBRANCH  12  13
ENDBRANCH  11  12
ENDBRANCH   8  11
ENDBRANCH   7   8
ENDBRANCH   5   7
TORSDOF 5
ENDMDL
MODEL      146
REMARK 921   NORMALIZED FREE ENERGY PREDICTED BY IDOCK:   -4.59 KCAL/MOL
REMARK 922        TOTAL FREE ENERGY PREDICTED BY IDOCK:   -6.66 KCAL/MOL
REMARK 923 INTER-LIGAND FREE ENERGY PREDICTED BY IDOCK:   -6.10 KCAL/MOL
REMARK 924 INTRA-LIGAND FREE ENERGY PREDICTED BY IDOCK:   -0.56 KCAL/MOL
REMARK 927      BINDING AFFINITY PREDICTED BY RF-SCORE:    0.00 PKD
ROOT
HETATM    1  C   UNL     1      -9.984  13.497  66.331  1.00  0.00    -0.296 C  
HETATM    2  C   UNL     1     -11.511  13.366  66.482  1.00  0.00    -0.341 C  
HETATM    3  C   UNL     1     -12.166  13.801  65.157  1.00  0.00    -0.453 C  
HETATM    4  C   UNL     1     -12.012  14.299  67.598  1.00  0.00    -0.400 C  
HETATM    5  N   UNL     1     -11.930  11.974  66.731  1.00  0.00    -0.610 NA 
HETATM    6  H   UNL     1     -11.741  11.399  65.912  1.00  0.00     0.000 HD 
ENDROOT
BRANCH   5   7
HETATM    7  C   UNL     1     -11.353  11.352  67.929  1.00  0.00    -0.303 C  
BRANCH   7   8
HETATM    8  C   UNL     1     -10.899   9.907  67.649  1.00  0.00    -0.257 C  
HETATM    9  H   UNL     1      -9.650   9.004  66.421  1.00  0.00     0.000 HD 
HETATM   10  O   UNL     1      -9.931   9.895  66.593  1.00  0.00    -0.194 OA 
BRANCH   8  11
HETATM   11  C   UNL     1     -10.302   9.287  68.922  1.00  0.00    -0.214 C  
BRANCH  11  12
HETATM   12  O   UNL     1     -10.377   7.848  68.852  1.00  0.00    -0.210 OA 
BRANCH  12  13
HETATM   13  C   UNL     1      -9.177   7.236  68.570  1.00  0.00    -0.138 A  
HETATM   14  C   UNL     1      -7.980   7.620  69.185  1.00  0.00    -0.120 A  
HETATM   15  C   UNL     1      -6.795   6.945  68.913  1.00  0.00    -0.072 A  
HETATM   16  C   UNL     1      -6.794   5.882  68.018  1.00  0.00    -0.067 A  
HETATM   17  C   UNL     1      -7.973   5.503  67.361  1.00  0.00    -0.101 A  
HETATM   18  C   UNL     1      -9.171   6.217  67.598  1.00  0.00    -0.107 A  
HETATM   19  C   UNL     1     -10.440   5.855  66.854  1.00  0.00    -0.349 C  
HETATM   20  C   UNL     1     -10.201   4.945  65.643  1.00  0.00    -0.127 C  
HETATM   21  C   UNL     1      -9.259   3.785  66.000  1.00  0.00    -0.161 C  
HETATM   22  O   UNL     1     -11.443   4.435  65.155  1.00  0.00    -1.069 OA 
HETATM   23  H   UNL     1     -11.295   3.871  64.405  1.00  0.00     0.000 HD 
HETATM   24  O   UNL     1      -9.767   2.962  67.059  1.00  0.00    -0.407 OA 
HETATM   25  C   UNL     1      -7.891   4.344  66.390  1.00  0.00    -0.098 C  
HETATM   26  H   UNL     1      -9.185   2.244  67.279  1.00  0.00     0.000 HD 
ENDBRANCH  12  13
ENDBRANCH  11  12
ENDBRANCH   8  11
ENDBRANCH   7   8
ENDBRANCH   5   7
TORSDOF 5
ENDMDL
MODEL      147
REMARK 921   NORMALIZED FREE ENERGY PREDICTED BY IDOCK:   -4.57 KCAL/MOL
REMARK 922        TOTAL FREE ENERGY PREDICTED BY IDOCK:   -6.63 KCAL/MOL
REMARK 923 INTER-LIGAND FREE ENERGY PREDICTED BY IDOCK:   -5.97 KCAL/MOL
REMARK 924 INTRA-LIGAND FREE ENERGY PREDICTED BY IDOCK:   -0.66 KCAL/MOL
REMARK 927      BINDING AFFINITY PREDICTED BY RF-SCORE:    0.00 PKD
ROOT
HETATM    1  C   UNL     1     -10.878  12.578  67.446  1.00  0.00    -0.272 C  
HETATM    2  C   UNL     1     -10.964  13.810  68.365  1.00  0.00    -0.254 C  
HETATM    3  C   UNL     1     -12.020  13.529  69.451  1.00  0.00    -0.383 C  
HETATM    4  C   UNL     1     -11.417  15.039  67.558  1.00  0.00    -0.339 C  
HETATM    5  N   UNL     1      -9.693  14.077  69.062  1.00  0.00    -0.416 NA 
HETATM    6  H   UNL     1      -9.489  13.326  69.721  1.00  0.00     0.000 HD 
ENDROOT
BRANCH   5   7
HETATM    7  C   UNL     1      -8.537  14.309  68.187  1.00  0.00    -0.172 C  
BRANCH   7   8
HETATM    8  C   UNL     1      -7.297  14.735  68.994  1.00  0.00    -0.139 C  
HETATM    9  H   UNL     1      -5.971  13.862  70.164  1.00  0.00     0.000 HD 
HETATM   10  O   UNL     1      -6.736  13.599  69.666  1.00  0.00    -0.086 OA 
BRANCH   8  11
HETATM   11  C   UNL     1      -6.252  15.366  68.061  1.00  0.00    -0.141 C  
BRANCH  11  12
HETATM   12  O   UNL     1      -6.079  16.761  68.384  1.00  0.00    -0.129 OA 
BRANCH  12  13
HETATM   13  C   UNL     1      -6.232  17.610  67.311  1.00  0.00    -0.149 A  
HETATM   14  C   UNL     1      -5.294  17.681  66.275  1.00  0.00    -0.229 A  
HETATM   15  C   UNL     1      -5.506  18.514  65.183  1.00  0.00    -0.227 A  
HETATM   16  C   UNL     1      -6.658  19.288  65.117  1.00  0.00    -0.249 A  
HETATM   17  C   UNL     1      -7.594  19.263  66.159  1.00  0.00    -0.303 A  
HETATM   18  C   UNL     1      -7.360  18.454  67.296  1.00  0.00    -0.220 A  
HETATM   19  C   UNL     1      -8.334  18.459  68.456  1.00  0.00    -0.344 C  
HETATM   20  C   UNL     1      -9.327  19.626  68.417  1.00  0.00    -0.351 C  
HETATM   21  C   UNL     1      -9.929  19.795  67.013  1.00  0.00    -0.408 C  
HETATM   22  O   UNL     1     -10.367  19.423  69.375  1.00  0.00    -0.562 OA 
HETATM   23  H   UNL     1     -10.983  20.147  69.350  1.00  0.00     0.000 HD 
HETATM   24  O   UNL     1     -10.627  18.624  66.565  1.00  0.00    -0.403 OA 
HETATM   25  C   UNL     1      -8.818  20.145  66.023  1.00  0.00    -0.194 C  
HETATM   26  H   UNL     1     -10.999  18.728  65.697  1.00  0.00     0.000 HD 
ENDBRANCH  12  13
ENDBRANCH  11  12
ENDBRANCH   8  11
ENDBRANCH   7   8
ENDBRANCH   5   7
TORSDOF 5
ENDMDL
MODEL      148
REMARK 921   NORMALIZED FREE ENERGY PREDICTED BY IDOCK:   -4.56 KCAL/MOL
REMARK 922        TOTAL FREE ENERGY PREDICTED BY IDOCK:   -6.62 KCAL/MOL
REMARK 923 INTER-LIGAND FREE ENERGY PREDICTED BY IDOCK:   -6.27 KCAL/MOL
REMARK 924 INTRA-LIGAND FREE ENERGY PREDICTED BY IDOCK:   -0.35 KCAL/MOL
REMARK 927      BINDING AFFINITY PREDICTED BY RF-SCORE:    0.00 PKD
ROOT
HETATM    1  C   UNL     1     -11.979  15.196  72.650  1.00  0.00    -0.486 C  
HETATM    2  C   UNL     1     -13.127  14.742  71.729  1.00  0.00    -0.336 C  
HETATM    3  C   UNL     1     -14.356  15.623  72.021  1.00  0.00    -0.486 C  
HETATM    4  C   UNL     1     -13.498  13.280  72.032  1.00  0.00    -0.596 C  
HETATM    5  N   UNL     1     -12.802  14.918  70.302  1.00  0.00    -0.581 NA 
HETATM    6  H   UNL     1     -12.722  15.909  70.080  1.00  0.00     0.000 HD 
ENDROOT
BRANCH   5   7
HETATM    7  C   UNL     1     -11.609  14.199  69.839  1.00  0.00    -0.264 C  
BRANCH   7   8
HETATM    8  C   UNL     1     -10.836  15.013  68.784  1.00  0.00    -0.249 C  
HETATM    9  H   UNL     1      -9.638  16.578  68.768  1.00  0.00     0.000 HD 
HETATM   10  O   UNL     1     -10.115  16.077  69.419  1.00  0.00    -0.241 OA 
BRANCH   8  11
HETATM   11  C   UNL     1      -9.866  14.098  68.021  1.00  0.00    -0.223 C  
BRANCH  11  12
HETATM   12  O   UNL     1     -10.348  12.739  68.042  1.00  0.00    -0.216 OA 
BRANCH  12  13
HETATM   13  C   UNL     1     -10.152  12.054  66.864  1.00  0.00    -0.205 A  
HETATM   14  C   UNL     1     -11.118  12.018  65.852  1.00  0.00    -0.369 A  
HETATM   15  C   UNL     1     -10.865  11.358  64.655  1.00  0.00    -0.359 A  
HETATM   16  C   UNL     1      -9.645  10.722  64.459  1.00  0.00    -0.322 A  
HETATM   17  C   UNL     1      -8.677  10.712  65.472  1.00  0.00    -0.199 A  
HETATM   18  C   UNL     1      -8.947  11.341  66.710  1.00  0.00    -0.173 A  
HETATM   19  C   UNL     1      -7.933  11.291  67.834  1.00  0.00    -0.118 C  
HETATM   20  C   UNL     1      -6.830  10.248  67.617  1.00  0.00    -0.075 C  
HETATM   21  C   UNL     1      -6.269  10.324  66.188  1.00  0.00    -0.089 C  
HETATM   22  O   UNL     1      -5.778  10.435  68.567  1.00  0.00    -0.038 OA 
HETATM   23  H   UNL     1      -5.095   9.789  68.432  1.00  0.00     0.000 HD 
HETATM   24  O   UNL     1      -5.710  11.608  65.879  1.00  0.00    -0.507 OA 
HETATM   25  C   UNL     1      -7.377   9.988  65.190  1.00  0.00    -0.139 C  
HETATM   26  H   UNL     1      -5.363  11.655  64.996  1.00  0.00     0.000 HD 
ENDBRANCH  12  13
ENDBRANCH  11  12
ENDBRANCH   8  11
ENDBRANCH   7   8
ENDBRANCH   5   7
TORSDOF 5
ENDMDL
MODEL      149
REMARK 921   NORMALIZED FREE ENERGY PREDICTED BY IDOCK:   -4.56 KCAL/MOL
REMARK 922        TOTAL FREE ENERGY PREDICTED BY IDOCK:   -6.61 KCAL/MOL
REMARK 923 INTER-LIGAND FREE ENERGY PREDICTED BY IDOCK:   -6.21 KCAL/MOL
REMARK 924 INTRA-LIGAND FREE ENERGY PREDICTED BY IDOCK:   -0.41 KCAL/MOL
REMARK 927      BINDING AFFINITY PREDICTED BY RF-SCORE:    0.00 PKD
ROOT
HETATM    1  C   UNL     1     -11.366  15.981  71.131  1.00  0.00    -0.413 C  
HETATM    2  C   UNL     1     -11.000  15.198  69.856  1.00  0.00    -0.274 C  
HETATM    3  C   UNL     1      -9.543  15.531  69.487  1.00  0.00    -0.278 C  
HETATM    4  C   UNL     1     -11.906  15.636  68.692  1.00  0.00    -0.306 C  
HETATM    5  N   UNL     1     -11.071  13.739  70.057  1.00  0.00    -0.463 NA 
HETATM    6  H   UNL     1     -10.348  13.441  70.712  1.00  0.00     0.000 HD 
ENDROOT
BRANCH   5   7
HETATM    7  C   UNL     1     -12.379  13.228  70.481  1.00  0.00    -0.316 C  
BRANCH   7   8
HETATM    8  C   UNL     1     -12.267  11.806  71.061  1.00  0.00    -0.198 C  
HETATM    9  H   UNL     1     -13.378  10.610  72.166  1.00  0.00     0.000 HD 
HETATM   10  O   UNL     1     -13.448  11.488  71.809  1.00  0.00    -0.312 OA 
BRANCH   8  11
HETATM   11  C   UNL     1     -12.071  10.789  69.926  1.00  0.00    -0.337 C  
BRANCH  11  12
HETATM   12  O   UNL     1     -10.750  10.213  70.000  1.00  0.00    -0.268 OA 
BRANCH  12  13
HETATM   13  C   UNL     1     -10.479   9.296  69.011  1.00  0.00    -0.216 A  
HETATM   14  C   UNL     1     -10.623   7.918  69.210  1.00  0.00    -0.195 A  
HETATM   15  C   UNL     1     -10.389   7.024  68.172  1.00  0.00    -0.226 A  
HETATM   16  C   UNL     1     -10.003   7.498  66.924  1.00  0.00    -0.318 A  
HETATM   17  C   UNL     1      -9.817   8.870  66.710  1.00  0.00    -0.308 A  
HETATM   18  C   UNL     1     -10.007   9.781  67.776  1.00  0.00    -0.206 A  
HETATM   19  C   UNL     1      -9.754  11.261  67.575  1.00  0.00    -0.192 C  
HETATM   20  C   UNL     1      -8.975  11.581  66.294  1.00  0.00    -0.196 C  
HETATM   21  C   UNL     1      -9.545  10.811  65.092  1.00  0.00    -0.245 C  
HETATM   22  O   UNL     1      -9.004  12.986  66.035  1.00  0.00    -0.435 OA 
HETATM   23  H   UNL     1      -8.521  13.184  65.241  1.00  0.00     0.000 HD 
HETATM   24  O   UNL     1     -10.924  11.117  64.841  1.00  0.00    -0.234 OA 
HETATM   25  C   UNL     1      -9.382   9.310  65.327  1.00  0.00    -0.269 C  
HETATM   26  H   UNL     1     -11.277  10.642  64.098  1.00  0.00     0.000 HD 
ENDBRANCH  12  13
ENDBRANCH  11  12
ENDBRANCH   8  11
ENDBRANCH   7   8
ENDBRANCH   5   7
TORSDOF 5
ENDMDL
MODEL      150
REMARK 921   NORMALIZED FREE ENERGY PREDICTED BY IDOCK:   -4.55 KCAL/MOL
REMARK 922        TOTAL FREE ENERGY PREDICTED BY IDOCK:   -6.61 KCAL/MOL
REMARK 923 INTER-LIGAND FREE ENERGY PREDICTED BY IDOCK:   -5.67 KCAL/MOL
REMARK 924 INTRA-LIGAND FREE ENERGY PREDICTED BY IDOCK:   -0.94 KCAL/MOL
REMARK 927      BINDING AFFINITY PREDICTED BY RF-SCORE:    0.00 PKD
ROOT
HETATM    1  C   UNL     1     -11.841  11.943  67.638  1.00  0.00    -0.265 C  
HETATM    2  C   UNL     1     -11.051  13.111  68.255  1.00  0.00    -0.266 C  
HETATM    3  C   UNL     1     -11.838  13.638  69.470  1.00  0.00    -0.394 C  
HETATM    4  C   UNL     1     -10.917  14.254  67.233  1.00  0.00    -0.302 C  
HETATM    5  N   UNL     1      -9.727  12.691  68.750  1.00  0.00    -0.419 NA 
HETATM    6  H   UNL     1      -9.834  12.057  69.541  1.00  0.00     0.000 HD 
ENDROOT
BRANCH   5   7
HETATM    7  C   UNL     1      -8.842  12.096  67.742  1.00  0.00    -0.172 C  
BRANCH   7   8
HETATM    8  C   UNL     1      -8.152  10.827  68.278  1.00  0.00    -0.121 C  
HETATM    9  H   UNL     1      -6.790  10.395  69.636  1.00  0.00     0.000 HD 
HETATM   10  O   UNL     1      -7.215  11.177  69.305  1.00  0.00    -0.115 OA 
BRANCH   8  11
HETATM   11  C   UNL     1      -9.201   9.850  68.830  1.00  0.00    -0.147 C  
BRANCH  11  12
HETATM   12  O   UNL     1      -9.290   9.977  70.264  1.00  0.00    -0.162 OA 
BRANCH  12  13
HETATM   13  C   UNL     1     -10.423   9.419  70.809  1.00  0.00    -0.304 A  
HETATM   14  C   UNL     1     -11.643  10.104  70.861  1.00  0.00    -0.459 A  
HETATM   15  C   UNL     1     -12.779   9.490  71.373  1.00  0.00    -0.445 A  
HETATM   16  C   UNL     1     -12.708   8.185  71.846  1.00  0.00    -0.361 A  
HETATM   17  C   UNL     1     -11.490   7.491  71.840  1.00  0.00    -0.307 A  
HETATM   18  C   UNL     1     -10.320   8.128  71.364  1.00  0.00    -0.258 A  
HETATM   19  C   UNL     1      -8.985   7.412  71.403  1.00  0.00    -0.141 C  
HETATM   20  C   UNL     1      -8.988   6.161  72.290  1.00  0.00    -0.137 C  
HETATM   21  C   UNL     1     -10.227   5.293  72.019  1.00  0.00    -0.203 C  
HETATM   22  O   UNL     1      -7.799   5.399  72.074  1.00  0.00    -0.102 OA 
HETATM   23  H   UNL     1      -7.801   4.624  72.624  1.00  0.00     0.000 HD 
HETATM   24  O   UNL     1     -10.307   4.851  70.656  1.00  0.00    -0.228 OA 
HETATM   25  C   UNL     1     -11.487   6.078  72.384  1.00  0.00    -0.357 C  
HETATM   26  H   UNL     1     -11.073   4.314  70.488  1.00  0.00     0.000 HD 
ENDBRANCH  12  13
ENDBRANCH  11  12
ENDBRANCH   8  11
ENDBRANCH   7   8
ENDBRANCH   5   7
TORSDOF 5
ENDMDL
MODEL      151
REMARK 921   NORMALIZED FREE ENERGY PREDICTED BY IDOCK:   -4.54 KCAL/MOL
REMARK 922        TOTAL FREE ENERGY PREDICTED BY IDOCK:   -6.59 KCAL/MOL
REMARK 923 INTER-LIGAND FREE ENERGY PREDICTED BY IDOCK:   -5.99 KCAL/MOL
REMARK 924 INTRA-LIGAND FREE ENERGY PREDICTED BY IDOCK:   -0.60 KCAL/MOL
REMARK 927      BINDING AFFINITY PREDICTED BY RF-SCORE:    0.00 PKD
ROOT
HETATM    1  C   UNL     1      -8.955   6.933  68.619  1.00  0.00    -0.129 C  
HETATM    2  C   UNL     1     -10.429   7.168  68.240  1.00  0.00    -0.198 C  
HETATM    3  C   UNL     1     -10.872   6.032  67.298  1.00  0.00    -0.403 C  
HETATM    4  C   UNL     1     -10.572   8.502  67.487  1.00  0.00    -0.284 C  
HETATM    5  N   UNL     1     -11.321   7.127  69.413  1.00  0.00    -0.494 NA 
HETATM    6  H   UNL     1     -11.343   6.185  69.804  1.00  0.00     0.000 HD 
ENDROOT
BRANCH   5   7
HETATM    7  C   UNL     1     -11.017   8.103  70.465  1.00  0.00    -0.243 C  
BRANCH   7   8
HETATM    8  C   UNL     1     -12.141   9.146  70.608  1.00  0.00    -0.068 C  
HETATM    9  H   UNL     1     -13.577   9.546  71.899  1.00  0.00     0.000 HD 
HETATM   10  O   UNL     1     -12.883   8.902  71.811  1.00  0.00    -0.324 OA 
BRANCH   8  11
HETATM   11  C   UNL     1     -11.547  10.562  70.631  1.00  0.00    -0.352 C  
BRANCH  11  12
HETATM   12  O   UNL     1     -11.815  11.231  69.381  1.00  0.00    -0.298 OA 
BRANCH  12  13
HETATM   13  C   UNL     1     -10.686  11.600  68.687  1.00  0.00    -0.212 A  
HETATM   14  C   UNL     1      -9.405  11.189  69.072  1.00  0.00    -0.065 A  
HETATM   15  C   UNL     1      -8.292  11.539  68.317  1.00  0.00    -0.154 A  
HETATM   16  C   UNL     1      -8.447  12.310  67.171  1.00  0.00    -0.184 A  
HETATM   17  C   UNL     1      -9.715  12.766  66.786  1.00  0.00    -0.243 A  
HETATM   18  C   UNL     1     -10.845  12.453  67.577  1.00  0.00    -0.271 A  
HETATM   19  C   UNL     1     -12.214  12.984  67.205  1.00  0.00    -0.180 C  
HETATM   20  C   UNL     1     -12.171  14.114  66.168  1.00  0.00    -0.442 C  
HETATM   21  C   UNL     1     -11.230  13.762  65.005  1.00  0.00    -0.335 C  
HETATM   22  O   UNL     1     -13.484  14.381  65.673  1.00  0.00    -0.612 OA 
HETATM   23  H   UNL     1     -13.457  15.081  65.031  1.00  0.00     0.000 HD 
HETATM   24  O   UNL     1     -11.622  12.566  64.317  1.00  0.00    -0.327 OA 
HETATM   25  C   UNL     1      -9.804  13.613  65.533  1.00  0.00    -0.175 C  
HETATM   26  H   UNL     1     -11.041  12.348  63.598  1.00  0.00     0.000 HD 
ENDBRANCH  12  13
ENDBRANCH  11  12
ENDBRANCH   8  11
ENDBRANCH   7   8
ENDBRANCH   5   7
TORSDOF 5
ENDMDL
MODEL      152
REMARK 921   NORMALIZED FREE ENERGY PREDICTED BY IDOCK:   -4.52 KCAL/MOL
REMARK 922        TOTAL FREE ENERGY PREDICTED BY IDOCK:   -6.57 KCAL/MOL
REMARK 923 INTER-LIGAND FREE ENERGY PREDICTED BY IDOCK:   -5.86 KCAL/MOL
REMARK 924 INTRA-LIGAND FREE ENERGY PREDICTED BY IDOCK:   -0.71 KCAL/MOL
REMARK 927      BINDING AFFINITY PREDICTED BY RF-SCORE:    0.00 PKD
ROOT
HETATM    1  C   UNL     1     -11.086   7.414  70.449  1.00  0.00    -0.284 C  
HETATM    2  C   UNL     1     -10.918   8.551  71.474  1.00  0.00    -0.269 C  
HETATM    3  C   UNL     1      -9.528   8.414  72.124  1.00  0.00    -0.360 C  
HETATM    4  C   UNL     1     -11.983   8.426  72.578  1.00  0.00    -0.418 C  
HETATM    5  N   UNL     1     -10.968   9.883  70.843  1.00  0.00    -0.334 NA 
HETATM    6  H   UNL     1     -10.160  10.015  70.236  1.00  0.00     0.000 HD 
ENDROOT
BRANCH   5   7
HETATM    7  C   UNL     1     -12.204  10.182  70.110  1.00  0.00    -0.116 C  
BRANCH   7   8
HETATM    8  C   UNL     1     -12.229  11.642  69.620  1.00  0.00    -0.206 C  
HETATM    9  H   UNL     1     -11.806  13.418  70.366  1.00  0.00     0.000 HD 
HETATM   10  O   UNL     1     -11.791  12.517  70.668  1.00  0.00    -0.213 OA 
BRANCH   8  11
HETATM   11  C   UNL     1     -11.324  11.800  68.388  1.00  0.00    -0.270 C  
BRANCH  11  12
HETATM   12  O   UNL     1     -11.182  10.532  67.714  1.00  0.00    -0.303 OA 
BRANCH  12  13
HETATM   13  C   UNL     1      -9.913  10.285  67.243  1.00  0.00    -0.190 A  
HETATM   14  C   UNL     1      -8.927   9.683  68.034  1.00  0.00    -0.122 A  
HETATM   15  C   UNL     1      -7.671   9.403  67.509  1.00  0.00    -0.091 A  
HETATM   16  C   UNL     1      -7.385   9.726  66.188  1.00  0.00    -0.101 A  
HETATM   17  C   UNL     1      -8.343  10.364  65.388  1.00  0.00    -0.166 A  
HETATM   18  C   UNL     1      -9.606  10.695  65.931  1.00  0.00    -0.253 A  
HETATM   19  C   UNL     1     -10.631  11.434  65.096  1.00  0.00    -0.352 C  
HETATM   20  C   UNL     1     -10.048  12.058  63.822  1.00  0.00    -0.394 C  
HETATM   21  C   UNL     1      -9.147  11.059  63.079  1.00  0.00    -0.291 C  
HETATM   22  O   UNL     1     -11.100  12.502  62.963  1.00  0.00    -0.695 OA 
HETATM   23  H   UNL     1     -10.739  12.888  62.173  1.00  0.00     0.000 HD 
HETATM   24  O   UNL     1      -9.843   9.866  62.691  1.00  0.00    -0.533 OA 
HETATM   25  C   UNL     1      -7.953  10.698  63.962  1.00  0.00     0.100 C  
HETATM   26  H   UNL     1      -9.286   9.248  62.232  1.00  0.00     0.000 HD 
ENDBRANCH  12  13
ENDBRANCH  11  12
ENDBRANCH   8  11
ENDBRANCH   7   8
ENDBRANCH   5   7
TORSDOF 5
ENDMDL
MODEL      153
REMARK 921   NORMALIZED FREE ENERGY PREDICTED BY IDOCK:   -4.51 KCAL/MOL
REMARK 922        TOTAL FREE ENERGY PREDICTED BY IDOCK:   -6.56 KCAL/MOL
REMARK 923 INTER-LIGAND FREE ENERGY PREDICTED BY IDOCK:   -5.09 KCAL/MOL
REMARK 924 INTRA-LIGAND FREE ENERGY PREDICTED BY IDOCK:   -1.47 KCAL/MOL
REMARK 927      BINDING AFFINITY PREDICTED BY RF-SCORE:    0.00 PKD
ROOT
HETATM    1  C   UNL     1      -8.901   6.269  69.077  1.00  0.00    -0.124 C  
HETATM    2  C   UNL     1      -8.298   5.085  69.856  1.00  0.00    -0.081 C  
HETATM    3  C   UNL     1      -6.788   5.337  70.027  1.00  0.00    -0.052 C  
HETATM    4  C   UNL     1      -8.483   3.782  69.058  1.00  0.00    -0.099 C  
HETATM    5  N   UNL     1      -8.869   4.958  71.210  1.00  0.00    -0.130 NA 
HETATM    6  H   UNL     1      -8.596   5.757  71.781  1.00  0.00     0.000 HD 
ENDROOT
BRANCH   5   7
HETATM    7  C   UNL     1     -10.324   4.774  71.261  1.00  0.00    -0.113 C  
BRANCH   7   8
HETATM    8  C   UNL     1     -10.953   5.580  72.413  1.00  0.00    -0.255 C  
HETATM    9  H   UNL     1     -12.171   5.224  73.921  1.00  0.00     0.000 HD 
HETATM   10  O   UNL     1     -11.783   4.726  73.210  1.00  0.00    -0.312 OA 
BRANCH   8  11
HETATM   11  C   UNL     1      -9.851   6.207  73.280  1.00  0.00    -0.166 C  
BRANCH  11  12
HETATM   12  O   UNL     1      -9.958   7.645  73.253  1.00  0.00    -0.273 OA 
BRANCH  12  13
HETATM   13  C   UNL     1      -9.106   8.256  72.362  1.00  0.00    -0.237 A  
HETATM   14  C   UNL     1      -7.714   8.147  72.464  1.00  0.00    -0.169 A  
HETATM   15  C   UNL     1      -6.886   8.736  71.516  1.00  0.00    -0.087 A  
HETATM   16  C   UNL     1      -7.440   9.445  70.457  1.00  0.00    -0.154 A  
HETATM   17  C   UNL     1      -8.829   9.600  70.354  1.00  0.00    -0.227 A  
HETATM   18  C   UNL     1      -9.675   9.044  71.342  1.00  0.00    -0.369 A  
HETATM   19  C   UNL     1     -11.174   9.251  71.276  1.00  0.00    -0.425 C  
HETATM   20  C   UNL     1     -11.596  10.356  70.299  1.00  0.00    -0.327 C  
HETATM   21  C   UNL     1     -10.860  10.219  68.957  1.00  0.00    -0.230 C  
HETATM   22  O   UNL     1     -13.009  10.317  70.089  1.00  0.00    -0.576 OA 
HETATM   23  H   UNL     1     -13.271  11.001  69.484  1.00  0.00     0.000 HD 
HETATM   24  O   UNL     1     -11.109   8.962  68.313  1.00  0.00    -0.467 OA 
HETATM   25  C   UNL     1      -9.359  10.399  69.181  1.00  0.00    -0.211 C  
HETATM   26  H   UNL     1     -10.654   8.877  67.483  1.00  0.00     0.000 HD 
ENDBRANCH  12  13
ENDBRANCH  11  12
ENDBRANCH   8  11
ENDBRANCH   7   8
ENDBRANCH   5   7
TORSDOF 5
ENDMDL
MODEL      154
REMARK 921   NORMALIZED FREE ENERGY PREDICTED BY IDOCK:   -4.51 KCAL/MOL
REMARK 922        TOTAL FREE ENERGY PREDICTED BY IDOCK:   -6.55 KCAL/MOL
REMARK 923 INTER-LIGAND FREE ENERGY PREDICTED BY IDOCK:   -6.13 KCAL/MOL
REMARK 924 INTRA-LIGAND FREE ENERGY PREDICTED BY IDOCK:   -0.43 KCAL/MOL
REMARK 927      BINDING AFFINITY PREDICTED BY RF-SCORE:    0.00 PKD
ROOT
HETATM    1  C   UNL     1     -11.156  11.799  64.087  1.00  0.00    -0.442 C  
HETATM    2  C   UNL     1     -11.510  13.154  64.726  1.00  0.00    -0.323 C  
HETATM    3  C   UNL     1     -12.301  13.982  63.696  1.00  0.00    -0.087 C  
HETATM    4  C   UNL     1     -10.224  13.923  65.078  1.00  0.00    -0.383 C  
HETATM    5  N   UNL     1     -12.374  13.005  65.912  1.00  0.00    -0.494 NA 
HETATM    6  H   UNL     1     -13.288  12.647  65.637  1.00  0.00     0.000 HD 
ENDROOT
BRANCH   5   7
HETATM    7  C   UNL     1     -11.816  12.184  66.993  1.00  0.00    -0.216 C  
BRANCH   7   8
HETATM    8  C   UNL     1     -11.496  13.034  68.237  1.00  0.00    -0.312 C  
HETATM    9  H   UNL     1     -12.145  14.714  69.038  1.00  0.00     0.000 HD 
HETATM   10  O   UNL     1     -12.343  14.190  68.271  1.00  0.00    -0.246 OA 
BRANCH   8  11
HETATM   11  C   UNL     1     -11.690  12.198  69.511  1.00  0.00    -0.336 C  
BRANCH  11  12
HETATM   12  O   UNL     1     -11.605  10.793  69.198  1.00  0.00    -0.277 OA 
BRANCH  12  13
HETATM   13  C   UNL     1     -11.397   9.984  70.292  1.00  0.00    -0.308 A  
HETATM   14  C   UNL     1     -12.418   9.679  71.200  1.00  0.00    -0.421 A  
HETATM   15  C   UNL     1     -12.184   8.818  72.266  1.00  0.00    -0.429 A  
HETATM   16  C   UNL     1     -10.925   8.257  72.439  1.00  0.00    -0.438 A  
HETATM   17  C   UNL     1      -9.877   8.577  71.565  1.00  0.00    -0.309 A  
HETATM   18  C   UNL     1     -10.096   9.489  70.507  1.00  0.00    -0.347 A  
HETATM   19  C   UNL     1      -8.960   9.888  69.588  1.00  0.00    -0.232 C  
HETATM   20  C   UNL     1      -7.575   9.505  70.125  1.00  0.00    -0.142 C  
HETATM   21  C   UNL     1      -7.564   8.059  70.645  1.00  0.00    -0.076 C  
HETATM   22  O   UNL     1      -6.587   9.666  69.106  1.00  0.00    -0.048 OA 
HETATM   23  H   UNL     1      -5.730   9.429  69.438  1.00  0.00     0.000 HD 
HETATM   24  O   UNL     1      -7.910   7.102  69.634  1.00  0.00    -0.113 OA 
HETATM   25  C   UNL     1      -8.528   7.936  71.825  1.00  0.00    -0.147 C  
HETATM   26  H   UNL     1      -7.903   6.208  69.955  1.00  0.00     0.000 HD 
ENDBRANCH  12  13
ENDBRANCH  11  12
ENDBRANCH   8  11
ENDBRANCH   7   8
ENDBRANCH   5   7
TORSDOF 5
ENDMDL
MODEL      155
REMARK 921   NORMALIZED FREE ENERGY PREDICTED BY IDOCK:   -4.49 KCAL/MOL
REMARK 922        TOTAL FREE ENERGY PREDICTED BY IDOCK:   -6.53 KCAL/MOL
REMARK 923 INTER-LIGAND FREE ENERGY PREDICTED BY IDOCK:   -5.91 KCAL/MOL
REMARK 924 INTRA-LIGAND FREE ENERGY PREDICTED BY IDOCK:   -0.62 KCAL/MOL
REMARK 927      BINDING AFFINITY PREDICTED BY RF-SCORE:    0.00 PKD
ROOT
HETATM    1  C   UNL     1     -12.299  15.564  70.219  1.00  0.00    -0.431 C  
HETATM    2  C   UNL     1     -11.332  14.905  69.218  1.00  0.00    -0.296 C  
HETATM    3  C   UNL     1     -10.080  15.795  69.099  1.00  0.00    -0.238 C  
HETATM    4  C   UNL     1     -11.992  14.812  67.831  1.00  0.00    -0.260 C  
HETATM    5  N   UNL     1     -10.875  13.579  69.673  1.00  0.00    -0.441 NA 
HETATM    6  H   UNL     1     -10.296  13.675  70.507  1.00  0.00     0.000 HD 
ENDROOT
BRANCH   5   7
HETATM    7  C   UNL     1     -11.940  12.597  69.909  1.00  0.00    -0.295 C  
BRANCH   7   8
HETATM    8  C   UNL     1     -11.395  11.157  69.876  1.00  0.00    -0.268 C  
HETATM    9  H   UNL     1     -11.819   9.438  70.743  1.00  0.00     0.000 HD 
HETATM   10  O   UNL     1     -12.155  10.327  70.764  1.00  0.00    -0.298 OA 
BRANCH   8  11
HETATM   11  C   UNL     1     -11.461  10.601  68.445  1.00  0.00    -0.259 C  
BRANCH  11  12
HETATM   12  O   UNL     1     -10.774  11.487  67.538  1.00  0.00    -0.203 OA 
BRANCH  12  13
HETATM   13  C   UNL     1      -9.443  11.186  67.358  1.00  0.00    -0.164 A  
HETATM   14  C   UNL     1      -8.520  11.226  68.410  1.00  0.00    -0.153 A  
HETATM   15  C   UNL     1      -7.193  10.867  68.202  1.00  0.00    -0.083 A  
HETATM   16  C   UNL     1      -6.773  10.470  66.939  1.00  0.00    -0.086 A  
HETATM   17  C   UNL     1      -7.670  10.457  65.862  1.00  0.00    -0.145 A  
HETATM   18  C   UNL     1      -9.010  10.868  66.057  1.00  0.00    -0.200 A  
HETATM   19  C   UNL     1      -9.976  10.914  64.891  1.00  0.00    -0.361 C  
HETATM   20  C   UNL     1      -9.289  10.828  63.523  1.00  0.00    -0.279 C  
HETATM   21  C   UNL     1      -8.238   9.708  63.500  1.00  0.00    -0.158 C  
HETATM   22  O   UNL     1     -10.258  10.611  62.495  1.00  0.00    -0.758 OA 
HETATM   23  H   UNL     1      -9.833  10.558  61.648  1.00  0.00     0.000 HD 
HETATM   24  O   UNL     1      -8.796   8.417  63.779  1.00  0.00    -0.391 OA 
HETATM   25  C   UNL     1      -7.136  10.025  64.511  1.00  0.00    -0.139 C  
HETATM   26  H   UNL     1      -8.146   7.724  63.765  1.00  0.00     0.000 HD 
ENDBRANCH  12  13
ENDBRANCH  11  12
ENDBRANCH   8  11
ENDBRANCH   7   8
ENDBRANCH   5   7
TORSDOF 5
ENDMDL
MODEL      156
REMARK 921   NORMALIZED FREE ENERGY PREDICTED BY IDOCK:   -4.48 KCAL/MOL
REMARK 922        TOTAL FREE ENERGY PREDICTED BY IDOCK:   -6.52 KCAL/MOL
REMARK 923 INTER-LIGAND FREE ENERGY PREDICTED BY IDOCK:   -5.82 KCAL/MOL
REMARK 924 INTRA-LIGAND FREE ENERGY PREDICTED BY IDOCK:   -0.69 KCAL/MOL
REMARK 927      BINDING AFFINITY PREDICTED BY RF-SCORE:    0.00 PKD
ROOT
HETATM    1  C   UNL     1      -7.125  16.367  66.982  1.00  0.00    -0.259 C  
HETATM    2  C   UNL     1      -7.247  17.207  68.267  1.00  0.00    -0.204 C  
HETATM    3  C   UNL     1      -6.465  18.518  68.063  1.00  0.00    -0.215 C  
HETATM    4  C   UNL     1      -6.621  16.450  69.452  1.00  0.00    -0.210 C  
HETATM    5  N   UNL     1      -8.643  17.581  68.561  1.00  0.00    -0.275 NA 
HETATM    6  H   UNL     1      -8.992  18.220  67.847  1.00  0.00     0.000 HD 
ENDROOT
BRANCH   5   7
HETATM    7  C   UNL     1      -9.570  16.455  68.727  1.00  0.00    -0.249 C  
BRANCH   7   8
HETATM    8  C   UNL     1     -10.849  16.651  67.890  1.00  0.00    -0.321 C  
HETATM    9  H   UNL     1     -11.389  17.702  66.312  1.00  0.00     0.000 HD 
HETATM   10  O   UNL     1     -10.600  17.581  66.828  1.00  0.00    -0.294 OA 
BRANCH   8  11
HETATM   11  C   UNL     1     -11.314  15.305  67.317  1.00  0.00    -0.269 C  
BRANCH  11  12
HETATM   12  O   UNL     1     -10.227  14.357  67.335  1.00  0.00    -0.245 OA 
BRANCH  12  13
HETATM   13  C   UNL     1     -10.354  13.337  66.419  1.00  0.00    -0.286 A  
HETATM   14  C   UNL     1     -10.683  13.574  65.079  1.00  0.00    -0.366 A  
HETATM   15  C   UNL     1     -10.753  12.525  64.171  1.00  0.00    -0.423 A  
HETATM   16  C   UNL     1     -10.499  11.225  64.594  1.00  0.00    -0.387 A  
HETATM   17  C   UNL     1     -10.204  10.958  65.937  1.00  0.00    -0.314 A  
HETATM   18  C   UNL     1     -10.179  12.016  66.876  1.00  0.00    -0.230 A  
HETATM   19  C   UNL     1      -9.918  11.737  68.342  1.00  0.00    -0.202 C  
HETATM   20  C   UNL     1     -10.044  10.255  68.714  1.00  0.00    -0.187 C  
HETATM   21  C   UNL     1      -9.305   9.365  67.702  1.00  0.00    -0.127 C  
HETATM   22  O   UNL     1      -9.532  10.030  70.029  1.00  0.00    -0.324 OA 
HETATM   23  H   UNL     1      -9.610   9.112  70.260  1.00  0.00     0.000 HD 
HETATM   24  O   UNL     1      -7.906   9.667  67.616  1.00  0.00    -0.095 OA 
HETATM   25  C   UNL     1      -9.953   9.516  66.326  1.00  0.00    -0.344 C  
HETATM   26  H   UNL     1      -7.448   9.117  66.990  1.00  0.00     0.000 HD 
ENDBRANCH  12  13
ENDBRANCH  11  12
ENDBRANCH   8  11
ENDBRANCH   7   8
ENDBRANCH   5   7
TORSDOF 5
ENDMDL
MODEL      157
REMARK 921   NORMALIZED FREE ENERGY PREDICTED BY IDOCK:   -4.48 KCAL/MOL
REMARK 922        TOTAL FREE ENERGY PREDICTED BY IDOCK:   -6.51 KCAL/MOL
REMARK 923 INTER-LIGAND FREE ENERGY PREDICTED BY IDOCK:   -5.48 KCAL/MOL
REMARK 924 INTRA-LIGAND FREE ENERGY PREDICTED BY IDOCK:   -1.04 KCAL/MOL
REMARK 927      BINDING AFFINITY PREDICTED BY RF-SCORE:    0.00 PKD
ROOT
HETATM    1  C   UNL     1     -10.721  11.436  67.002  1.00  0.00    -0.304 C  
HETATM    2  C   UNL     1      -9.782  12.046  65.945  1.00  0.00    -0.239 C  
HETATM    3  C   UNL     1     -10.500  13.242  65.294  1.00  0.00    -0.324 C  
HETATM    4  C   UNL     1      -9.479  11.009  64.849  1.00  0.00    -0.270 C  
HETATM    5  N   UNL     1      -8.535  12.563  66.538  1.00  0.00    -0.413 NA 
HETATM    6  H   UNL     1      -8.737  13.362  67.138  1.00  0.00     0.000 HD 
ENDROOT
BRANCH   5   7
HETATM    7  C   UNL     1      -7.731  11.575  67.267  1.00  0.00    -0.150 C  
BRANCH   7   8
HETATM    8  C   UNL     1      -6.787  12.253  68.278  1.00  0.00    -0.075 C  
HETATM    9  H   UNL     1      -5.097  11.808  69.191  1.00  0.00     0.000 HD 
HETATM   10  O   UNL     1      -5.680  11.389  68.568  1.00  0.00    -0.043 OA 
BRANCH   8  11
HETATM   11  C   UNL     1      -6.280  13.589  67.711  1.00  0.00    -0.154 C  
BRANCH  11  12
HETATM   12  O   UNL     1      -6.713  14.678  68.552  1.00  0.00    -0.089 OA 
BRANCH  12  13
HETATM   13  C   UNL     1      -7.478  15.620  67.903  1.00  0.00    -0.133 A  
HETATM   14  C   UNL     1      -6.964  16.419  66.874  1.00  0.00    -0.247 A  
HETATM   15  C   UNL     1      -7.779  17.326  66.207  1.00  0.00    -0.353 A  
HETATM   16  C   UNL     1      -9.117  17.447  66.564  1.00  0.00    -0.288 A  
HETATM   17  C   UNL     1      -9.645  16.686  67.616  1.00  0.00    -0.239 A  
HETATM   18  C   UNL     1      -8.808  15.797  68.330  1.00  0.00    -0.185 A  
HETATM   19  C   UNL     1      -9.350  15.009  69.505  1.00  0.00    -0.070 C  
HETATM   20  C   UNL     1     -10.700  15.525  70.017  1.00  0.00    -0.318 C  
HETATM   21  C   UNL     1     -11.672  15.783  68.855  1.00  0.00    -0.394 C  
HETATM   22  O   UNL     1     -11.270  14.590  70.936  1.00  0.00    -0.516 OA 
HETATM   23  H   UNL     1     -12.107  14.910  71.253  1.00  0.00     0.000 HD 
HETATM   24  O   UNL     1     -11.932  14.606  68.078  1.00  0.00    -0.481 OA 
HETATM   25  C   UNL     1     -11.107  16.883  67.957  1.00  0.00    -0.190 C  
HETATM   26  H   UNL     1     -12.533  14.765  67.360  1.00  0.00     0.000 HD 
ENDBRANCH  12  13
ENDBRANCH  11  12
ENDBRANCH   8  11
ENDBRANCH   7   8
ENDBRANCH   5   7
TORSDOF 5
ENDMDL
MODEL      158
REMARK 921   NORMALIZED FREE ENERGY PREDICTED BY IDOCK:   -4.47 KCAL/MOL
REMARK 922        TOTAL FREE ENERGY PREDICTED BY IDOCK:   -6.51 KCAL/MOL
REMARK 923 INTER-LIGAND FREE ENERGY PREDICTED BY IDOCK:   -5.98 KCAL/MOL
REMARK 924 INTRA-LIGAND FREE ENERGY PREDICTED BY IDOCK:   -0.53 KCAL/MOL
REMARK 927      BINDING AFFINITY PREDICTED BY RF-SCORE:    0.00 PKD
ROOT
HETATM    1  C   UNL     1      -8.215   6.288  69.413  1.00  0.00    -0.114 C  
HETATM    2  C   UNL     1      -9.739   6.067  69.433  1.00  0.00    -0.142 C  
HETATM    3  C   UNL     1     -10.012   4.631  69.918  1.00  0.00    -0.296 C  
HETATM    4  C   UNL     1     -10.311   6.213  68.011  1.00  0.00    -0.245 C  
HETATM    5  N   UNL     1     -10.424   6.975  70.371  1.00  0.00    -0.203 NA 
HETATM    6  H   UNL     1     -10.158   6.754  71.330  1.00  0.00     0.000 HD 
ENDROOT
BRANCH   5   7
HETATM    7  C   UNL     1     -10.229   8.406  70.111  1.00  0.00    -0.195 C  
BRANCH   7   8
HETATM    8  C   UNL     1     -11.527   9.202  70.343  1.00  0.00    -0.194 C  
HETATM    9  H   UNL     1     -12.282  10.339  71.766  1.00  0.00     0.000 HD 
HETATM   10  O   UNL     1     -11.482   9.848  71.622  1.00  0.00    -0.329 OA 
BRANCH   8  11
HETATM   11  C   UNL     1     -11.712  10.245  69.231  1.00  0.00    -0.070 C  
BRANCH  11  12
HETATM   12  O   UNL     1     -10.429  10.757  68.814  1.00  0.00    -0.178 OA 
BRANCH  12  13
HETATM   13  C   UNL     1     -10.255  10.796  67.450  1.00  0.00    -0.204 A  
HETATM   14  C   UNL     1      -9.839   9.678  66.717  1.00  0.00    -0.270 A  
HETATM   15  C   UNL     1      -9.723   9.740  65.334  1.00  0.00    -0.383 A  
HETATM   16  C   UNL     1     -10.015  10.924  64.667  1.00  0.00    -0.369 A  
HETATM   17  C   UNL     1     -10.397  12.068  65.381  1.00  0.00    -0.301 A  
HETATM   18  C   UNL     1     -10.471  12.023  66.793  1.00  0.00    -0.243 A  
HETATM   19  C   UNL     1     -10.827  13.266  67.583  1.00  0.00    -0.273 C  
HETATM   20  C   UNL     1     -10.739  14.559  66.763  1.00  0.00    -0.291 C  
HETATM   21  C   UNL     1     -11.421  14.394  65.395  1.00  0.00    -0.344 C  
HETATM   22  O   UNL     1     -11.335  15.641  67.480  1.00  0.00    -0.300 OA 
HETATM   23  H   UNL     1     -11.281  16.442  66.972  1.00  0.00     0.000 HD 
HETATM   24  O   UNL     1     -12.810  14.051  65.505  1.00  0.00    -0.615 OA 
HETATM   25  C   UNL     1     -10.686  13.325  64.587  1.00  0.00    -0.415 C  
HETATM   26  H   UNL     1     -13.232  13.949  64.660  1.00  0.00     0.000 HD 
ENDBRANCH  12  13
ENDBRANCH  11  12
ENDBRANCH   8  11
ENDBRANCH   7   8
ENDBRANCH   5   7
TORSDOF 5
ENDMDL
MODEL      159
REMARK 921   NORMALIZED FREE ENERGY PREDICTED BY IDOCK:   -4.47 KCAL/MOL
REMARK 922        TOTAL FREE ENERGY PREDICTED BY IDOCK:   -6.50 KCAL/MOL
REMARK 923 INTER-LIGAND FREE ENERGY PREDICTED BY IDOCK:   -5.57 KCAL/MOL
REMARK 924 INTRA-LIGAND FREE ENERGY PREDICTED BY IDOCK:   -0.93 KCAL/MOL
REMARK 927      BINDING AFFINITY PREDICTED BY RF-SCORE:    0.00 PKD
ROOT
HETATM    1  C   UNL     1     -11.886  12.118  65.328  1.00  0.00    -0.356 C  
HETATM    2  C   UNL     1     -11.365  12.922  64.122  1.00  0.00    -0.393 C  
HETATM    3  C   UNL     1     -12.531  13.123  63.135  1.00  0.00    -0.115 C  
HETATM    4  C   UNL     1     -10.254  12.136  63.404  1.00  0.00    -0.422 C  
HETATM    5  N   UNL     1     -10.893  14.265  64.508  1.00  0.00    -0.603 NA 
HETATM    6  H   UNL     1     -11.677  14.833  64.829  1.00  0.00     0.000 HD 
ENDROOT
BRANCH   5   7
HETATM    7  C   UNL     1      -9.814  14.287  65.503  1.00  0.00    -0.252 C  
BRANCH   7   8
HETATM    8  C   UNL     1     -10.226  15.072  66.763  1.00  0.00    -0.260 C  
HETATM    9  H   UNL     1     -11.896  15.776  67.537  1.00  0.00     0.000 HD 
HETATM   10  O   UNL     1     -11.642  15.292  66.760  1.00  0.00    -0.215 OA 
BRANCH   8  11
HETATM   11  C   UNL     1      -9.813  14.298  68.024  1.00  0.00    -0.224 C  
BRANCH  11  12
HETATM   12  O   UNL     1      -9.012  13.154  67.662  1.00  0.00    -0.172 OA 
BRANCH  12  13
HETATM   13  C   UNL     1      -9.633  11.944  67.866  1.00  0.00    -0.193 A  
HETATM   14  C   UNL     1     -10.700  11.793  68.760  1.00  0.00    -0.255 A  
HETATM   15  C   UNL     1     -11.337  10.566  68.903  1.00  0.00    -0.313 A  
HETATM   16  C   UNL     1     -10.910   9.474  68.157  1.00  0.00    -0.208 A  
HETATM   17  C   UNL     1      -9.821   9.590  67.283  1.00  0.00    -0.228 A  
HETATM   18  C   UNL     1      -9.139  10.824  67.169  1.00  0.00    -0.153 A  
HETATM   19  C   UNL     1      -7.925  10.950  66.272  1.00  0.00    -0.161 C  
HETATM   20  C   UNL     1      -7.349   9.600  65.828  1.00  0.00    -0.100 C  
HETATM   21  C   UNL     1      -8.461   8.654  65.350  1.00  0.00    -0.172 C  
HETATM   22  O   UNL     1      -6.387   9.791  64.787  1.00  0.00    -0.084 OA 
HETATM   23  H   UNL     1      -6.031   8.955  64.512  1.00  0.00     0.000 HD 
HETATM   24  O   UNL     1      -9.206   9.185  64.245  1.00  0.00    -0.433 OA 
HETATM   25  C   UNL     1      -9.405   8.353  66.514  1.00  0.00    -0.259 C  
HETATM   26  H   UNL     1      -9.893   8.600  63.950  1.00  0.00     0.000 HD 
ENDBRANCH  12  13
ENDBRANCH  11  12
ENDBRANCH   8  11
ENDBRANCH   7   8
ENDBRANCH   5   7
TORSDOF 5
ENDMDL
MODEL      160
REMARK 921   NORMALIZED FREE ENERGY PREDICTED BY IDOCK:   -4.46 KCAL/MOL
REMARK 922        TOTAL FREE ENERGY PREDICTED BY IDOCK:   -6.49 KCAL/MOL
REMARK 923 INTER-LIGAND FREE ENERGY PREDICTED BY IDOCK:   -5.65 KCAL/MOL
REMARK 924 INTRA-LIGAND FREE ENERGY PREDICTED BY IDOCK:   -0.84 KCAL/MOL
REMARK 927      BINDING AFFINITY PREDICTED BY RF-SCORE:    0.00 PKD
ROOT
HETATM    1  C   UNL     1      -7.411   8.514  69.952  1.00  0.00    -0.055 C  
HETATM    2  C   UNL     1      -7.505   7.142  69.260  1.00  0.00    -0.093 C  
HETATM    3  C   UNL     1      -7.745   6.072  70.342  1.00  0.00    -0.097 C  
HETATM    4  C   UNL     1      -6.180   6.820  68.546  1.00  0.00    -0.030 C  
HETATM    5  N   UNL     1      -8.640   7.066  68.322  1.00  0.00    -0.129 NA 
HETATM    6  H   UNL     1      -9.521   7.115  68.833  1.00  0.00     0.000 HD 
ENDROOT
BRANCH   5   7
HETATM    7  C   UNL     1      -8.627   8.060  67.242  1.00  0.00    -0.124 C  
BRANCH   7   8
HETATM    8  C   UNL     1     -10.035   8.273  66.656  1.00  0.00    -0.278 C  
HETATM    9  H   UNL     1     -11.806   7.422  66.820  1.00  0.00     0.000 HD 
HETATM   10  O   UNL     1     -10.937   7.291  67.181  1.00  0.00    -0.327 OA 
BRANCH   8  11
HETATM   11  C   UNL     1     -10.538   9.685  66.992  1.00  0.00    -0.197 C  
BRANCH  11  12
HETATM   12  O   UNL     1      -9.907  10.161  68.199  1.00  0.00    -0.142 OA 
BRANCH  12  13
HETATM   13  C   UNL     1     -10.767  10.314  69.262  1.00  0.00    -0.234 A  
HETATM   14  C   UNL     1     -11.079   9.260  70.128  1.00  0.00    -0.260 A  
HETATM   15  C   UNL     1     -11.913   9.464  71.221  1.00  0.00    -0.430 A  
HETATM   16  C   UNL     1     -12.450  10.724  71.456  1.00  0.00    -0.447 A  
HETATM   17  C   UNL     1     -12.184  11.786  70.581  1.00  0.00    -0.443 A  
HETATM   18  C   UNL     1     -11.374  11.572  69.441  1.00  0.00    -0.355 A  
HETATM   19  C   UNL     1     -11.123  12.695  68.456  1.00  0.00    -0.300 C  
HETATM   20  C   UNL     1     -12.074  13.886  68.630  1.00  0.00    -0.302 C  
HETATM   21  C   UNL     1     -12.200  14.283  70.109  1.00  0.00    -0.345 C  
HETATM   22  O   UNL     1     -11.618  15.000  67.860  1.00  0.00    -0.332 OA 
HETATM   23  H   UNL     1     -12.208  15.737  67.967  1.00  0.00     0.000 HD 
HETATM   24  O   UNL     1     -10.943  14.652  70.693  1.00  0.00    -0.490 OA 
HETATM   25  C   UNL     1     -12.816  13.126  70.895  1.00  0.00    -0.237 C  
HETATM   26  H   UNL     1     -11.020  14.898  71.607  1.00  0.00     0.000 HD 
ENDBRANCH  12  13
ENDBRANCH  11  12
ENDBRANCH   8  11
ENDBRANCH   7   8
ENDBRANCH   5   7
TORSDOF 5
ENDMDL
MODEL      161
REMARK 921   NORMALIZED FREE ENERGY PREDICTED BY IDOCK:   -4.45 KCAL/MOL
REMARK 922        TOTAL FREE ENERGY PREDICTED BY IDOCK:   -6.48 KCAL/MOL
REMARK 923 INTER-LIGAND FREE ENERGY PREDICTED BY IDOCK:   -5.92 KCAL/MOL
REMARK 924 INTRA-LIGAND FREE ENERGY PREDICTED BY IDOCK:   -0.56 KCAL/MOL
REMARK 927      BINDING AFFINITY PREDICTED BY RF-SCORE:    0.00 PKD
ROOT
HETATM    1  C   UNL     1     -12.300  12.517  65.587  1.00  0.00    -0.296 C  
HETATM    2  C   UNL     1     -11.346  13.230  64.610  1.00  0.00    -0.346 C  
HETATM    3  C   UNL     1     -10.968  14.596  65.214  1.00  0.00    -0.374 C  
HETATM    4  C   UNL     1     -12.055  13.476  63.266  1.00  0.00    -0.223 C  
HETATM    5  N   UNL     1     -10.089  12.485  64.412  1.00  0.00    -0.506 NA 
HETATM    6  H   UNL     1      -9.549  12.474  65.277  1.00  0.00     0.000 HD 
ENDROOT
BRANCH   5   7
HETATM    7  C   UNL     1     -10.245  11.120  63.897  1.00  0.00    -0.362 C  
BRANCH   7   8
HETATM    8  C   UNL     1      -9.719  10.076  64.900  1.00  0.00    -0.307 C  
HETATM    9  H   UNL     1      -8.733   8.371  64.818  1.00  0.00     0.000 HD 
HETATM   10  O   UNL     1      -9.058   9.014  64.199  1.00  0.00    -0.038 OA 
BRANCH   8  11
HETATM   11  C   UNL     1      -8.749  10.739  65.890  1.00  0.00    -0.181 C  
BRANCH  11  12
HETATM   12  O   UNL     1      -9.054  10.320  67.237  1.00  0.00    -0.138 OA 
BRANCH  12  13
HETATM   13  C   UNL     1      -9.948  11.136  67.892  1.00  0.00    -0.173 A  
HETATM   14  C   UNL     1     -11.175  10.665  68.373  1.00  0.00    -0.347 A  
HETATM   15  C   UNL     1     -12.031  11.507  69.074  1.00  0.00    -0.377 A  
HETATM   16  C   UNL     1     -11.671  12.830  69.297  1.00  0.00    -0.376 A  
HETATM   17  C   UNL     1     -10.464  13.335  68.793  1.00  0.00    -0.187 A  
HETATM   18  C   UNL     1      -9.612  12.496  68.038  1.00  0.00    -0.212 A  
HETATM   19  C   UNL     1      -8.332  13.041  67.439  1.00  0.00    -0.194 C  
HETATM   20  C   UNL     1      -8.262  14.573  67.434  1.00  0.00    -0.202 C  
HETATM   21  C   UNL     1      -8.686  15.151  68.794  1.00  0.00    -0.194 C  
HETATM   22  O   UNL     1      -6.941  15.007  67.107  1.00  0.00    -0.244 OA 
HETATM   23  H   UNL     1      -6.898  15.956  67.104  1.00  0.00     0.000 HD 
HETATM   24  O   UNL     1      -7.862  14.689  69.873  1.00  0.00    -0.409 OA 
HETATM   25  C   UNL     1     -10.146  14.790  69.065  1.00  0.00    -0.232 C  
HETATM   26  H   UNL     1      -8.124  15.046  70.714  1.00  0.00     0.000 HD 
ENDBRANCH  12  13
ENDBRANCH  11  12
ENDBRANCH   8  11
ENDBRANCH   7   8
ENDBRANCH   5   7
TORSDOF 5
ENDMDL
MODEL      162
REMARK 921   NORMALIZED FREE ENERGY PREDICTED BY IDOCK:   -4.45 KCAL/MOL
REMARK 922        TOTAL FREE ENERGY PREDICTED BY IDOCK:   -6.47 KCAL/MOL
REMARK 923 INTER-LIGAND FREE ENERGY PREDICTED BY IDOCK:   -6.05 KCAL/MOL
REMARK 924 INTRA-LIGAND FREE ENERGY PREDICTED BY IDOCK:   -0.42 KCAL/MOL
REMARK 927      BINDING AFFINITY PREDICTED BY RF-SCORE:    0.00 PKD
ROOT
HETATM    1  C   UNL     1      -6.121  16.334  67.446  1.00  0.00    -0.197 C  
HETATM    2  C   UNL     1      -7.647  16.244  67.634  1.00  0.00    -0.141 C  
HETATM    3  C   UNL     1      -8.306  17.322  66.753  1.00  0.00    -0.276 C  
HETATM    4  C   UNL     1      -8.015  16.528  69.101  1.00  0.00    -0.182 C  
HETATM    5  N   UNL     1      -8.187  14.943  67.198  1.00  0.00    -0.208 NA 
HETATM    6  H   UNL     1      -8.084  14.841  66.189  1.00  0.00     0.000 HD 
ENDROOT
BRANCH   5   7
HETATM    7  C   UNL     1      -7.628  13.772  67.884  1.00  0.00    -0.156 C  
BRANCH   7   8
HETATM    8  C   UNL     1      -8.472  12.511  67.622  1.00  0.00    -0.171 C  
HETATM    9  H   UNL     1      -8.257  10.564  67.844  1.00  0.00     0.000 HD 
HETATM   10  O   UNL     1      -7.736  11.342  68.005  1.00  0.00    -0.100 OA 
BRANCH   8  11
HETATM   11  C   UNL     1      -9.790  12.586  68.407  1.00  0.00    -0.202 C  
BRANCH  11  12
HETATM   12  O   UNL     1     -10.107  11.295  68.967  1.00  0.00    -0.198 OA 
BRANCH  12  13
HETATM   13  C   UNL     1     -11.116  11.320  69.903  1.00  0.00    -0.109 A  
HETATM   14  C   UNL     1     -11.864  12.474  70.165  1.00  0.00    -0.336 A  
HETATM   15  C   UNL     1     -12.908  12.448  71.081  1.00  0.00    -0.299 A  
HETATM   16  C   UNL     1     -13.214  11.269  71.749  1.00  0.00    -0.480 A  
HETATM   17  C   UNL     1     -12.457  10.110  71.532  1.00  0.00    -0.526 A  
HETATM   18  C   UNL     1     -11.362  10.143  70.637  1.00  0.00    -0.433 A  
HETATM   19  C   UNL     1     -10.499   8.915  70.434  1.00  0.00    -0.245 C  
HETATM   20  C   UNL     1     -10.709   7.836  71.503  1.00  0.00    -0.222 C  
HETATM   21  C   UNL     1     -12.204   7.591  71.757  1.00  0.00    -0.314 C  
HETATM   22  O   UNL     1     -10.073   6.618  71.109  1.00  0.00    -0.183 OA 
HETATM   23  H   UNL     1     -10.203   5.950  71.771  1.00  0.00     0.000 HD 
HETATM   24  O   UNL     1     -12.905   7.167  70.580  1.00  0.00    -0.601 OA 
HETATM   25  C   UNL     1     -12.841   8.867  72.308  1.00  0.00    -0.475 C  
HETATM   26  H   UNL     1     -13.830   7.016  70.736  1.00  0.00     0.000 HD 
ENDBRANCH  12  13
ENDBRANCH  11  12
ENDBRANCH   8  11
ENDBRANCH   7   8
ENDBRANCH   5   7
TORSDOF 5
ENDMDL
MODEL      163
REMARK 921   NORMALIZED FREE ENERGY PREDICTED BY IDOCK:   -4.45 KCAL/MOL
REMARK 922        TOTAL FREE ENERGY PREDICTED BY IDOCK:   -6.47 KCAL/MOL
REMARK 923 INTER-LIGAND FREE ENERGY PREDICTED BY IDOCK:   -6.26 KCAL/MOL
REMARK 924 INTRA-LIGAND FREE ENERGY PREDICTED BY IDOCK:   -0.21 KCAL/MOL
REMARK 927      BINDING AFFINITY PREDICTED BY RF-SCORE:    0.00 PKD
ROOT
HETATM    1  C   UNL     1     -10.874  15.792  67.795  1.00  0.00    -0.316 C  
HETATM    2  C   UNL     1     -10.087  15.169  66.627  1.00  0.00    -0.264 C  
HETATM    3  C   UNL     1      -8.710  15.854  66.553  1.00  0.00    -0.350 C  
HETATM    4  C   UNL     1     -10.825  15.422  65.301  1.00  0.00    -0.423 C  
HETATM    5  N   UNL     1      -9.841  13.728  66.825  1.00  0.00    -0.267 NA 
HETATM    6  H   UNL     1      -9.211  13.586  67.614  1.00  0.00     0.000 HD 
ENDROOT
BRANCH   5   7
HETATM    7  C   UNL     1     -11.044  12.904  66.984  1.00  0.00    -0.275 C  
BRANCH   7   8
HETATM    8  C   UNL     1     -10.919  11.952  68.189  1.00  0.00    -0.227 C  
HETATM    9  H   UNL     1     -12.027  10.567  69.049  1.00  0.00     0.000 HD 
HETATM   10  O   UNL     1     -12.104  11.154  68.306  1.00  0.00    -0.620 OA 
BRANCH   8  11
HETATM   11  C   UNL     1      -9.688  11.049  68.021  1.00  0.00    -0.172 C  
BRANCH  11  12
HETATM   12  O   UNL     1      -9.581  10.146  69.141  1.00  0.00    -0.189 OA 
BRANCH  12  13
HETATM   13  C   UNL     1      -9.990   8.860  68.869  1.00  0.00    -0.190 A  
HETATM   14  C   UNL     1     -10.309   8.437  67.573  1.00  0.00    -0.333 A  
HETATM   15  C   UNL     1     -10.670   7.117  67.329  1.00  0.00    -0.399 A  
HETATM   16  C   UNL     1     -10.721   6.207  68.378  1.00  0.00    -0.361 A  
HETATM   17  C   UNL     1     -10.442   6.616  69.689  1.00  0.00    -0.249 A  
HETATM   18  C   UNL     1     -10.121   7.968  69.951  1.00  0.00    -0.198 A  
HETATM   19  C   UNL     1      -9.872   8.438  71.370  1.00  0.00    -0.259 C  
HETATM   20  C   UNL     1     -10.337   7.438  72.435  1.00  0.00    -0.222 C  
HETATM   21  C   UNL     1      -9.880   6.011  72.093  1.00  0.00    -0.161 C  
HETATM   22  O   UNL     1      -9.839   7.817  73.720  1.00  0.00    -0.332 OA 
HETATM   23  H   UNL     1     -10.127   7.197  74.380  1.00  0.00     0.000 HD 
HETATM   24  O   UNL     1      -8.454   5.895  71.991  1.00  0.00    -0.124 OA 
HETATM   25  C   UNL     1     -10.531   5.571  70.782  1.00  0.00    -0.330 C  
HETATM   26  H   UNL     1      -8.172   5.013  71.779  1.00  0.00     0.000 HD 
ENDBRANCH  12  13
ENDBRANCH  11  12
ENDBRANCH   8  11
ENDBRANCH   7   8
ENDBRANCH   5   7
TORSDOF 5
ENDMDL
MODEL      164
REMARK 921   NORMALIZED FREE ENERGY PREDICTED BY IDOCK:   -4.45 KCAL/MOL
REMARK 922        TOTAL FREE ENERGY PREDICTED BY IDOCK:   -6.47 KCAL/MOL
REMARK 923 INTER-LIGAND FREE ENERGY PREDICTED BY IDOCK:   -5.50 KCAL/MOL
REMARK 924 INTRA-LIGAND FREE ENERGY PREDICTED BY IDOCK:   -0.97 KCAL/MOL
REMARK 927      BINDING AFFINITY PREDICTED BY RF-SCORE:    0.00 PKD
ROOT
HETATM    1  C   UNL     1      -7.380   6.835  70.015  1.00  0.00    -0.085 C  
HETATM    2  C   UNL     1      -7.184   6.105  71.357  1.00  0.00    -0.079 C  
HETATM    3  C   UNL     1      -6.347   7.010  72.281  1.00  0.00    -0.048 C  
HETATM    4  C   UNL     1      -6.411   4.793  71.135  1.00  0.00    -0.019 C  
HETATM    5  N   UNL     1      -8.463   5.852  72.047  1.00  0.00    -0.125 NA 
HETATM    6  H   UNL     1      -8.886   6.733  72.336  1.00  0.00     0.000 HD 
ENDROOT
BRANCH   5   7
HETATM    7  C   UNL     1      -9.433   5.051  71.291  1.00  0.00    -0.154 C  
BRANCH   7   8
HETATM    8  C   UNL     1     -10.880   5.462  71.620  1.00  0.00    -0.162 C  
HETATM    9  H   UNL     1     -11.841   6.240  73.156  1.00  0.00     0.000 HD 
HETATM   10  O   UNL     1     -10.948   5.986  72.953  1.00  0.00    -0.246 OA 
BRANCH   8  11
HETATM   11  C   UNL     1     -11.371   6.514  70.613  1.00  0.00    -0.351 C  
BRANCH  11  12
HETATM   12  O   UNL     1     -10.597   7.724  70.745  1.00  0.00    -0.213 OA 
BRANCH  12  13
HETATM   13  C   UNL     1     -11.355   8.866  70.866  1.00  0.00    -0.283 A  
HETATM   14  C   UNL     1     -12.290   9.036  71.894  1.00  0.00    -0.455 A  
HETATM   15  C   UNL     1     -13.002  10.224  72.014  1.00  0.00    -0.503 A  
HETATM   16  C   UNL     1     -12.790  11.253  71.105  1.00  0.00    -0.452 A  
HETATM   17  C   UNL     1     -11.886  11.093  70.046  1.00  0.00    -0.441 A  
HETATM   18  C   UNL     1     -11.195   9.869  69.890  1.00  0.00    -0.298 A  
HETATM   19  C   UNL     1     -10.257   9.660  68.719  1.00  0.00    -0.213 C  
HETATM   20  C   UNL     1     -10.420  10.708  67.611  1.00  0.00    -0.227 C  
HETATM   21  C   UNL     1     -10.483  12.127  68.196  1.00  0.00    -0.211 C  
HETATM   22  O   UNL     1      -9.342  10.611  66.677  1.00  0.00    -0.161 OA 
HETATM   23  H   UNL     1      -9.443  11.260  65.991  1.00  0.00     0.000 HD 
HETATM   24  O   UNL     1      -9.308  12.473  68.942  1.00  0.00    -0.395 OA 
HETATM   25  C   UNL     1     -11.719  12.254  69.087  1.00  0.00    -0.377 C  
HETATM   26  H   UNL     1      -9.347  13.351  69.304  1.00  0.00     0.000 HD 
ENDBRANCH  12  13
ENDBRANCH  11  12
ENDBRANCH   8  11
ENDBRANCH   7   8
ENDBRANCH   5   7
TORSDOF 5
ENDMDL
MODEL      165
REMARK 921   NORMALIZED FREE ENERGY PREDICTED BY IDOCK:   -4.44 KCAL/MOL
REMARK 922        TOTAL FREE ENERGY PREDICTED BY IDOCK:   -6.47 KCAL/MOL
REMARK 923 INTER-LIGAND FREE ENERGY PREDICTED BY IDOCK:   -5.75 KCAL/MOL
REMARK 924 INTRA-LIGAND FREE ENERGY PREDICTED BY IDOCK:   -0.72 KCAL/MOL
REMARK 927      BINDING AFFINITY PREDICTED BY RF-SCORE:    0.00 PKD
ROOT
HETATM    1  C   UNL     1     -11.012  17.148  67.679  1.00  0.00    -0.148 C  
HETATM    2  C   UNL     1      -9.975  17.626  66.647  1.00  0.00    -0.328 C  
HETATM    3  C   UNL     1      -8.596  17.673  67.334  1.00  0.00    -0.229 C  
HETATM    4  C   UNL     1     -10.324  19.047  66.169  1.00  0.00    -0.537 C  
HETATM    5  N   UNL     1      -9.854  16.701  65.505  1.00  0.00    -0.550 NA 
HETATM    6  H   UNL     1      -9.462  15.812  65.814  1.00  0.00     0.000 HD 
ENDROOT
BRANCH   5   7
HETATM    7  C   UNL     1     -11.093  16.472  64.753  1.00  0.00    -0.186 C  
BRANCH   7   8
HETATM    8  C   UNL     1     -11.552  15.005  64.857  1.00  0.00    -0.374 C  
HETATM    9  H   UNL     1     -12.637  13.757  63.784  1.00  0.00     0.000 HD 
HETATM   10  O   UNL     1     -12.354  14.662  63.720  1.00  0.00    -0.720 OA 
BRANCH   8  11
HETATM   11  C   UNL     1     -10.331  14.076  64.943  1.00  0.00    -0.409 C  
BRANCH  11  12
HETATM   12  O   UNL     1      -9.887  13.969  66.312  1.00  0.00    -0.286 OA 
BRANCH  12  13
HETATM   13  C   UNL     1     -10.228  12.783  66.922  1.00  0.00    -0.236 A  
HETATM   14  C   UNL     1     -11.560  12.407  67.131  1.00  0.00    -0.435 A  
HETATM   15  C   UNL     1     -11.867  11.179  67.706  1.00  0.00    -0.098 A  
HETATM   16  C   UNL     1     -10.845  10.316  68.083  1.00  0.00    -0.312 A  
HETATM   17  C   UNL     1      -9.503  10.686  67.918  1.00  0.00    -0.168 A  
HETATM   18  C   UNL     1      -9.184  11.954  67.379  1.00  0.00    -0.177 A  
HETATM   19  C   UNL     1      -7.740  12.392  67.247  1.00  0.00    -0.158 C  
HETATM   20  C   UNL     1      -6.762  11.522  68.046  1.00  0.00    -0.059 C  
HETATM   21  C   UNL     1      -7.050  10.028  67.834  1.00  0.00    -0.085 C  
HETATM   22  O   UNL     1      -5.415  11.820  67.671  1.00  0.00    -0.051 OA 
HETATM   23  H   UNL     1      -4.810  11.281  68.166  1.00  0.00     0.000 HD 
HETATM   24  O   UNL     1      -6.948   9.632  66.459  1.00  0.00    -0.083 OA 
HETATM   25  C   UNL     1      -8.445   9.699  68.365  1.00  0.00    -0.118 C  
HETATM   26  H   UNL     1      -7.126   8.708  66.328  1.00  0.00     0.000 HD 
ENDBRANCH  12  13
ENDBRANCH  11  12
ENDBRANCH   8  11
ENDBRANCH   7   8
ENDBRANCH   5   7
TORSDOF 5
ENDMDL
MODEL      166
REMARK 921   NORMALIZED FREE ENERGY PREDICTED BY IDOCK:   -4.44 KCAL/MOL
REMARK 922        TOTAL FREE ENERGY PREDICTED BY IDOCK:   -6.47 KCAL/MOL
REMARK 923 INTER-LIGAND FREE ENERGY PREDICTED BY IDOCK:   -5.83 KCAL/MOL
REMARK 924 INTRA-LIGAND FREE ENERGY PREDICTED BY IDOCK:   -0.63 KCAL/MOL
REMARK 927      BINDING AFFINITY PREDICTED BY RF-SCORE:    0.00 PKD
ROOT
HETATM    1  C   UNL     1     -11.958  16.080  71.919  1.00  0.00    -0.606 C  
HETATM    2  C   UNL     1     -12.995  15.121  71.306  1.00  0.00    -0.407 C  
HETATM    3  C   UNL     1     -14.401  15.647  71.650  1.00  0.00    -0.334 C  
HETATM    4  C   UNL     1     -12.841  13.717  71.920  1.00  0.00    -0.400 C  
HETATM    5  N   UNL     1     -12.905  15.065  69.836  1.00  0.00    -0.612 NA 
HETATM    6  H   UNL     1     -13.173  15.962  69.434  1.00  0.00     0.000 HD 
ENDROOT
BRANCH   5   7
HETATM    7  C   UNL     1     -11.604  14.642  69.304  1.00  0.00    -0.302 C  
BRANCH   7   8
HETATM    8  C   UNL     1     -11.768  13.746  68.062  1.00  0.00    -0.355 C  
HETATM    9  H   UNL     1     -12.053  14.004  66.129  1.00  0.00     0.000 HD 
HETATM   10  O   UNL     1     -11.953  14.557  66.895  1.00  0.00    -0.403 OA 
BRANCH   8  11
HETATM   11  C   UNL     1     -10.531  12.850  67.893  1.00  0.00    -0.224 C  
BRANCH  11  12
HETATM   12  O   UNL     1      -9.604  13.456  66.968  1.00  0.00    -0.228 OA 
BRANCH  12  13
HETATM   13  C   UNL     1      -8.284  13.335  67.335  1.00  0.00    -0.183 A  
HETATM   14  C   UNL     1      -7.634  12.096  67.391  1.00  0.00    -0.155 A  
HETATM   15  C   UNL     1      -6.285  12.018  67.718  1.00  0.00    -0.081 A  
HETATM   16  C   UNL     1      -5.572  13.177  67.997  1.00  0.00    -0.110 A  
HETATM   17  C   UNL     1      -6.209  14.425  67.985  1.00  0.00    -0.162 A  
HETATM   18  C   UNL     1      -7.592  14.507  67.701  1.00  0.00    -0.198 A  
HETATM   19  C   UNL     1      -8.307  15.842  67.739  1.00  0.00    -0.163 C  
HETATM   20  C   UNL     1      -7.500  16.948  68.429  1.00  0.00    -0.206 C  
HETATM   21  C   UNL     1      -6.044  16.961  67.937  1.00  0.00    -0.134 C  
HETATM   22  O   UNL     1      -8.107  18.221  68.197  1.00  0.00    -0.268 OA 
HETATM   23  H   UNL     1      -7.607  18.906  68.624  1.00  0.00     0.000 HD 
HETATM   24  O   UNL     1      -5.938  17.174  66.522  1.00  0.00    -0.192 OA 
HETATM   25  C   UNL     1      -5.369  15.642  68.314  1.00  0.00    -0.108 C  
HETATM   26  H   UNL     1      -5.038  17.182  66.218  1.00  0.00     0.000 HD 
ENDBRANCH  12  13
ENDBRANCH  11  12
ENDBRANCH   8  11
ENDBRANCH   7   8
ENDBRANCH   5   7
TORSDOF 5
ENDMDL
MODEL      167
REMARK 921   NORMALIZED FREE ENERGY PREDICTED BY IDOCK:   -4.44 KCAL/MOL
REMARK 922        TOTAL FREE ENERGY PREDICTED BY IDOCK:   -6.46 KCAL/MOL
REMARK 923 INTER-LIGAND FREE ENERGY PREDICTED BY IDOCK:   -5.96 KCAL/MOL
REMARK 924 INTRA-LIGAND FREE ENERGY PREDICTED BY IDOCK:   -0.50 KCAL/MOL
REMARK 927      BINDING AFFINITY PREDICTED BY RF-SCORE:    0.00 PKD
ROOT
HETATM    1  C   UNL     1     -11.960  14.056  67.441  1.00  0.00    -0.439 C  
HETATM    2  C   UNL     1     -11.066  14.408  68.645  1.00  0.00    -0.251 C  
HETATM    3  C   UNL     1     -11.961  14.527  69.893  1.00  0.00    -0.382 C  
HETATM    4  C   UNL     1     -10.380  15.766  68.412  1.00  0.00    -0.233 C  
HETATM    5  N   UNL     1     -10.071  13.357  68.928  1.00  0.00    -0.431 NA 
HETATM    6  H   UNL     1     -10.538  12.508  69.243  1.00  0.00     0.000 HD 
ENDROOT
BRANCH   5   7
HETATM    7  C   UNL     1      -9.155  13.049  67.823  1.00  0.00    -0.200 C  
BRANCH   7   8
HETATM    8  C   UNL     1      -8.875  11.538  67.729  1.00  0.00    -0.153 C  
HETATM    9  H   UNL     1      -7.399  10.317  68.196  1.00  0.00     0.000 HD 
HETATM   10  O   UNL     1      -7.572  11.249  68.254  1.00  0.00    -0.101 OA 
BRANCH   8  11
HETATM   11  C   UNL     1      -9.943  10.754  68.507  1.00  0.00    -0.178 C  
BRANCH  11  12
HETATM   12  O   UNL     1     -10.419   9.647  67.714  1.00  0.00    -0.223 OA 
BRANCH  12  13
HETATM   13  C   UNL     1     -10.567   8.474  68.418  1.00  0.00    -0.111 A  
HETATM   14  C   UNL     1     -10.994   8.451  69.751  1.00  0.00    -0.130 A  
HETATM   15  C   UNL     1     -11.181   7.244  70.415  1.00  0.00    -0.302 A  
HETATM   16  C   UNL     1     -10.937   6.046  69.755  1.00  0.00    -0.471 A  
HETATM   17  C   UNL     1     -10.473   6.044  68.432  1.00  0.00    -0.290 A  
HETATM   18  C   UNL     1     -10.236   7.270  67.767  1.00  0.00    -0.247 A  
HETATM   19  C   UNL     1      -9.681   7.284  66.358  1.00  0.00    -0.148 C  
HETATM   20  C   UNL     1      -9.105   5.934  65.913  1.00  0.00    -0.122 C  
HETATM   21  C   UNL     1     -10.059   4.782  66.265  1.00  0.00    -0.264 C  
HETATM   22  O   UNL     1      -8.847   5.945  64.508  1.00  0.00    -0.357 OA 
HETATM   23  H   UNL     1      -8.490   5.109  64.232  1.00  0.00     0.000 HD 
HETATM   24  O   UNL     1     -11.347   4.921  65.649  1.00  0.00    -0.897 OA 
HETATM   25  C   UNL     1     -10.217   4.699  67.783  1.00  0.00    -0.027 C  
HETATM   26  H   UNL     1     -11.937   4.208  65.866  1.00  0.00     0.000 HD 
ENDBRANCH  12  13
ENDBRANCH  11  12
ENDBRANCH   8  11
ENDBRANCH   7   8
ENDBRANCH   5   7
TORSDOF 5
ENDMDL
MODEL      168
REMARK 921   NORMALIZED FREE ENERGY PREDICTED BY IDOCK:   -4.43 KCAL/MOL
REMARK 922        TOTAL FREE ENERGY PREDICTED BY IDOCK:   -6.45 KCAL/MOL
REMARK 923 INTER-LIGAND FREE ENERGY PREDICTED BY IDOCK:   -5.80 KCAL/MOL
REMARK 924 INTRA-LIGAND FREE ENERGY PREDICTED BY IDOCK:   -0.64 KCAL/MOL
REMARK 927      BINDING AFFINITY PREDICTED BY RF-SCORE:    0.00 PKD
ROOT
HETATM    1  C   UNL     1     -11.132  16.262  70.004  1.00  0.00    -0.351 C  
HETATM    2  C   UNL     1     -10.629  15.081  69.153  1.00  0.00    -0.251 C  
HETATM    3  C   UNL     1      -9.097  15.189  69.036  1.00  0.00    -0.218 C  
HETATM    4  C   UNL     1     -11.228  15.159  67.738  1.00  0.00    -0.327 C  
HETATM    5  N   UNL     1     -10.922  13.778  69.777  1.00  0.00    -0.458 NA 
HETATM    6  H   UNL     1     -10.385  13.672  70.637  1.00  0.00     0.000 HD 
ENDROOT
BRANCH   5   7
HETATM    7  C   UNL     1     -12.342  13.512  70.033  1.00  0.00    -0.249 C  
BRANCH   7   8
HETATM    8  C   UNL     1     -12.544  12.774  71.370  1.00  0.00    -0.207 C  
HETATM    9  H   UNL     1     -13.739  12.927  72.931  1.00  0.00     0.000 HD 
HETATM   10  O   UNL     1     -13.614  13.382  72.106  1.00  0.00    -0.486 OA 
BRANCH   8  11
HETATM   11  C   UNL     1     -12.855  11.292  71.112  1.00  0.00    -0.352 C  
BRANCH  11  12
HETATM   12  O   UNL     1     -11.696  10.632  70.564  1.00  0.00    -0.308 OA 
BRANCH  12  13
HETATM   13  C   UNL     1     -11.334   9.484  71.231  1.00  0.00    -0.376 A  
HETATM   14  C   UNL     1     -12.220   8.797  72.070  1.00  0.00    -0.447 A  
HETATM   15  C   UNL     1     -11.836   7.612  72.688  1.00  0.00    -0.269 A  
HETATM   16  C   UNL     1     -10.560   7.104  72.478  1.00  0.00    -0.273 A  
HETATM   17  C   UNL     1      -9.642   7.794  71.674  1.00  0.00    -0.191 A  
HETATM   18  C   UNL     1     -10.011   9.024  71.081  1.00  0.00    -0.365 A  
HETATM   19  C   UNL     1      -9.013   9.808  70.255  1.00  0.00    -0.198 C  
HETATM   20  C   UNL     1      -7.565   9.335  70.433  1.00  0.00    -0.127 C  
HETATM   21  C   UNL     1      -7.470   7.803  70.354  1.00  0.00    -0.078 C  
HETATM   22  O   UNL     1      -6.725   9.930  69.442  1.00  0.00    -0.051 OA 
HETATM   23  H   UNL     1      -5.828   9.636  69.552  1.00  0.00     0.000 HD 
HETATM   24  O   UNL     1      -7.940   7.282  69.103  1.00  0.00    -0.115 OA 
HETATM   25  C   UNL     1      -8.265   7.185  71.504  1.00  0.00    -0.107 C  
HETATM   26  H   UNL     1      -7.881   6.334  69.054  1.00  0.00     0.000 HD 
ENDBRANCH  12  13
ENDBRANCH  11  12
ENDBRANCH   8  11
ENDBRANCH   7   8
ENDBRANCH   5   7
TORSDOF 5
ENDMDL
MODEL      169
REMARK 921   NORMALIZED FREE ENERGY PREDICTED BY IDOCK:   -4.43 KCAL/MOL
REMARK 922        TOTAL FREE ENERGY PREDICTED BY IDOCK:   -6.45 KCAL/MOL
REMARK 923 INTER-LIGAND FREE ENERGY PREDICTED BY IDOCK:   -5.95 KCAL/MOL
REMARK 924 INTRA-LIGAND FREE ENERGY PREDICTED BY IDOCK:   -0.50 KCAL/MOL
REMARK 927      BINDING AFFINITY PREDICTED BY RF-SCORE:    0.00 PKD
ROOT
HETATM    1  C   UNL     1     -12.034  15.950  71.366  1.00  0.00    -0.515 C  
HETATM    2  C   UNL     1     -12.917  14.723  71.070  1.00  0.00    -0.363 C  
HETATM    3  C   UNL     1     -14.390  15.133  71.256  1.00  0.00    -0.512 C  
HETATM    4  C   UNL     1     -12.600  13.594  72.066  1.00  0.00    -0.208 C  
HETATM    5  N   UNL     1     -12.774  14.254  69.679  1.00  0.00    -0.462 NA 
HETATM    6  H   UNL     1     -13.144  14.951  69.034  1.00  0.00     0.000 HD 
ENDROOT
BRANCH   5   7
HETATM    7  C   UNL     1     -11.413  13.874  69.284  1.00  0.00    -0.297 C  
BRANCH   7   8
HETATM    8  C   UNL     1     -11.426  12.798  68.182  1.00  0.00    -0.314 C  
HETATM    9  H   UNL     1     -10.316  12.321  66.624  1.00  0.00     0.000 HD 
HETATM   10  O   UNL     1     -10.308  12.985  67.304  1.00  0.00    -0.236 OA 
BRANCH   8  11
HETATM   11  C   UNL     1     -11.376  11.398  68.811  1.00  0.00    -0.271 C  
BRANCH  11  12
HETATM   12  O   UNL     1     -10.762  10.466  67.896  1.00  0.00    -0.220 OA 
BRANCH  12  13
HETATM   13  C   UNL     1      -9.717   9.752  68.437  1.00  0.00    -0.149 A  
HETATM   14  C   UNL     1      -8.728  10.355  69.222  1.00  0.00    -0.160 A  
HETATM   15  C   UNL     1      -7.715   9.594  69.793  1.00  0.00    -0.133 A  
HETATM   16  C   UNL     1      -7.677   8.221  69.581  1.00  0.00    -0.100 A  
HETATM   17  C   UNL     1      -8.635   7.600  68.768  1.00  0.00    -0.129 A  
HETATM   18  C   UNL     1      -9.640   8.376  68.145  1.00  0.00    -0.158 A  
HETATM   19  C   UNL     1     -10.648   7.728  67.219  1.00  0.00    -0.376 C  
HETATM   20  C   UNL     1     -10.254   6.312  66.781  1.00  0.00    -0.202 C  
HETATM   21  C   UNL     1      -9.781   5.473  67.978  1.00  0.00    -0.131 C  
HETATM   22  O   UNL     1     -11.356   5.669  66.137  1.00  0.00    -0.739 OA 
HETATM   23  H   UNL     1     -11.112   4.792  65.865  1.00  0.00     0.000 HD 
HETATM   24  O   UNL     1     -10.784   5.342  68.995  1.00  0.00    -0.160 OA 
HETATM   25  C   UNL     1      -8.521   6.102  68.572  1.00  0.00    -0.114 C  
HETATM   26  H   UNL     1     -10.492   4.823  69.735  1.00  0.00     0.000 HD 
ENDBRANCH  12  13
ENDBRANCH  11  12
ENDBRANCH   8  11
ENDBRANCH   7   8
ENDBRANCH   5   7
TORSDOF 5
ENDMDL
MODEL      170
REMARK 921   NORMALIZED FREE ENERGY PREDICTED BY IDOCK:   -4.41 KCAL/MOL
REMARK 922        TOTAL FREE ENERGY PREDICTED BY IDOCK:   -6.42 KCAL/MOL
REMARK 923 INTER-LIGAND FREE ENERGY PREDICTED BY IDOCK:   -6.11 KCAL/MOL
REMARK 924 INTRA-LIGAND FREE ENERGY PREDICTED BY IDOCK:   -0.32 KCAL/MOL
REMARK 927      BINDING AFFINITY PREDICTED BY RF-SCORE:    0.00 PKD
ROOT
HETATM    1  C   UNL     1     -10.600   7.449  67.149  1.00  0.00    -0.413 C  
HETATM    2  C   UNL     1      -9.751   6.165  67.196  1.00  0.00    -0.135 C  
HETATM    3  C   UNL     1      -8.435   6.429  66.439  1.00  0.00    -0.123 C  
HETATM    4  C   UNL     1     -10.493   5.017  66.489  1.00  0.00    -0.325 C  
HETATM    5  N   UNL     1      -9.386   5.786  68.573  1.00  0.00    -0.120 NA 
HETATM    6  H   UNL     1      -8.755   6.480  68.972  1.00  0.00     0.000 HD 
ENDROOT
BRANCH   5   7
HETATM    7  C   UNL     1     -10.517   5.552  69.478  1.00  0.00    -0.297 C  
BRANCH   7   8
HETATM    8  C   UNL     1     -10.348   6.323  70.801  1.00  0.00    -0.206 C  
HETATM    9  H   UNL     1     -10.012   5.879  72.692  1.00  0.00     0.000 HD 
HETATM   10  O   UNL     1     -10.117   5.404  71.876  1.00  0.00    -0.181 OA 
BRANCH   8  11
HETATM   11  C   UNL     1      -9.176   7.310  70.689  1.00  0.00    -0.157 C  
BRANCH  11  12
HETATM   12  O   UNL     1      -9.408   8.452  71.541  1.00  0.00    -0.162 OA 
BRANCH  12  13
HETATM   13  C   UNL     1     -10.577   9.125  71.273  1.00  0.00    -0.329 A  
HETATM   14  C   UNL     1     -11.742   8.928  72.024  1.00  0.00    -0.438 A  
HETATM   15  C   UNL     1     -12.891   9.663  71.756  1.00  0.00    -0.514 A  
HETATM   16  C   UNL     1     -12.889  10.600  70.730  1.00  0.00    -0.439 A  
HETATM   17  C   UNL     1     -11.747  10.790  69.940  1.00  0.00    -0.412 A  
HETATM   18  C   UNL     1     -10.591  10.010  70.177  1.00  0.00    -0.350 A  
HETATM   19  C   UNL     1      -9.368  10.163  69.296  1.00  0.00    -0.227 C  
HETATM   20  C   UNL     1      -9.642  10.930  67.997  1.00  0.00    -0.162 C  
HETATM   21  C   UNL     1     -10.458  12.204  68.267  1.00  0.00    -0.213 C  
HETATM   22  O   UNL     1      -8.412  11.264  67.351  1.00  0.00    -0.131 OA 
HETATM   23  H   UNL     1      -8.582  11.740  66.546  1.00  0.00     0.000 HD 
HETATM   24  O   UNL     1      -9.798  13.106  69.165  1.00  0.00    -0.391 OA 
HETATM   25  C   UNL     1     -11.826  11.820  68.832  1.00  0.00    -0.381 C  
HETATM   26  H   UNL     1     -10.302  13.894  69.332  1.00  0.00     0.000 HD 
ENDBRANCH  12  13
ENDBRANCH  11  12
ENDBRANCH   8  11
ENDBRANCH   7   8
ENDBRANCH   5   7
TORSDOF 5
ENDMDL
MODEL      171
REMARK 921   NORMALIZED FREE ENERGY PREDICTED BY IDOCK:   -4.38 KCAL/MOL
REMARK 922        TOTAL FREE ENERGY PREDICTED BY IDOCK:   -6.39 KCAL/MOL
REMARK 923 INTER-LIGAND FREE ENERGY PREDICTED BY IDOCK:   -5.46 KCAL/MOL
REMARK 924 INTRA-LIGAND FREE ENERGY PREDICTED BY IDOCK:   -0.92 KCAL/MOL
REMARK 927      BINDING AFFINITY PREDICTED BY RF-SCORE:    0.00 PKD
ROOT
HETATM    1  C   UNL     1     -10.559  17.199  68.247  1.00  0.00    -0.375 C  
HETATM    2  C   UNL     1     -10.712  15.729  68.680  1.00  0.00    -0.263 C  
HETATM    3  C   UNL     1     -11.331  15.703  70.090  1.00  0.00    -0.354 C  
HETATM    4  C   UNL     1      -9.331  15.053  68.746  1.00  0.00    -0.200 C  
HETATM    5  N   UNL     1     -11.623  14.978  67.796  1.00  0.00    -0.336 NA 
HETATM    6  H   UNL     1     -12.574  15.334  67.890  1.00  0.00     0.000 HD 
ENDROOT
BRANCH   5   7
HETATM    7  C   UNL     1     -11.235  14.943  66.382  1.00  0.00    -0.331 C  
BRANCH   7   8
HETATM    8  C   UNL     1     -12.187  14.054  65.559  1.00  0.00    -0.439 C  
HETATM    9  H   UNL     1     -12.569  13.736  63.651  1.00  0.00     0.000 HD 
HETATM   10  O   UNL     1     -11.982  14.285  64.159  1.00  0.00    -0.435 OA 
BRANCH   8  11
HETATM   11  C   UNL     1     -11.945  12.574  65.892  1.00  0.00    -0.409 C  
BRANCH  11  12
HETATM   12  O   UNL     1     -10.660  12.413  66.526  1.00  0.00    -0.231 OA 
BRANCH  12  13
HETATM   13  C   UNL     1      -9.905  11.383  66.013  1.00  0.00    -0.223 A  
HETATM   14  C   UNL     1      -9.716  11.208  64.637  1.00  0.00    -0.308 A  
HETATM   15  C   UNL     1      -8.905  10.186  64.158  1.00  0.00    -0.243 A  
HETATM   16  C   UNL     1      -8.280   9.322  65.049  1.00  0.00    -0.146 A  
HETATM   17  C   UNL     1      -8.484   9.453  66.429  1.00  0.00    -0.131 A  
HETATM   18  C   UNL     1      -9.345  10.462  66.921  1.00  0.00    -0.186 A  
HETATM   19  C   UNL     1      -9.621  10.581  68.405  1.00  0.00    -0.164 C  
HETATM   20  C   UNL     1      -9.186   9.349  69.209  1.00  0.00    -0.159 C  
HETATM   21  C   UNL     1      -7.775   8.894  68.805  1.00  0.00    -0.096 C  
HETATM   22  O   UNL     1      -9.228   9.632  70.609  1.00  0.00    -0.286 OA 
HETATM   23  H   UNL     1      -8.959   8.869  71.107  1.00  0.00     0.000 HD 
HETATM   24  O   UNL     1      -6.784   9.911  69.012  1.00  0.00    -0.052 OA 
HETATM   25  C   UNL     1      -7.779   8.467  67.338  1.00  0.00    -0.098 C  
HETATM   26  H   UNL     1      -5.911   9.630  68.763  1.00  0.00     0.000 HD 
ENDBRANCH  12  13
ENDBRANCH  11  12
ENDBRANCH   8  11
ENDBRANCH   7   8
ENDBRANCH   5   7
TORSDOF 5
ENDMDL
MODEL      172
REMARK 921   NORMALIZED FREE ENERGY PREDICTED BY IDOCK:   -4.38 KCAL/MOL
REMARK 922        TOTAL FREE ENERGY PREDICTED BY IDOCK:   -6.38 KCAL/MOL
REMARK 923 INTER-LIGAND FREE ENERGY PREDICTED BY IDOCK:   -6.17 KCAL/MOL
REMARK 924 INTRA-LIGAND FREE ENERGY PREDICTED BY IDOCK:   -0.21 KCAL/MOL
REMARK 927      BINDING AFFINITY PREDICTED BY RF-SCORE:    0.00 PKD
ROOT
HETATM    1  C   UNL     1     -11.690  15.360  72.129  1.00  0.00    -0.551 C  
HETATM    2  C   UNL     1     -12.931  14.769  71.435  1.00  0.00    -0.342 C  
HETATM    3  C   UNL     1     -14.171  15.541  71.923  1.00  0.00    -0.586 C  
HETATM    4  C   UNL     1     -13.098  13.290  71.824  1.00  0.00    -0.472 C  
HETATM    5  N   UNL     1     -12.878  14.924  69.969  1.00  0.00    -0.601 NA 
HETATM    6  H   UNL     1     -12.936  15.911  69.719  1.00  0.00     0.000 HD 
ENDROOT
BRANCH   5   7
HETATM    7  C   UNL     1     -11.719  14.305  69.316  1.00  0.00    -0.321 C  
BRANCH   7   8
HETATM    8  C   UNL     1     -12.070  13.804  67.903  1.00  0.00    -0.287 C  
HETATM    9  H   UNL     1     -11.529  14.218  66.053  1.00  0.00     0.000 HD 
HETATM   10  O   UNL     1     -11.312  14.528  66.925  1.00  0.00    -0.326 OA 
BRANCH   8  11
HETATM   11  C   UNL     1     -11.779  12.300  67.790  1.00  0.00    -0.337 C  
BRANCH  11  12
HETATM   12  O   UNL     1     -11.284  11.796  69.048  1.00  0.00    -0.230 OA 
BRANCH  12  13
HETATM   13  C   UNL     1     -10.577  10.620  68.945  1.00  0.00    -0.212 A  
HETATM   14  C   UNL     1     -11.067   9.408  69.446  1.00  0.00    -0.098 A  
HETATM   15  C   UNL     1     -10.348   8.230  69.278  1.00  0.00    -0.223 A  
HETATM   16  C   UNL     1      -9.129   8.252  68.612  1.00  0.00    -0.140 A  
HETATM   17  C   UNL     1      -8.600   9.459  68.135  1.00  0.00    -0.120 A  
HETATM   18  C   UNL     1      -9.304  10.667  68.344  1.00  0.00    -0.163 A  
HETATM   19  C   UNL     1      -8.720  11.987  67.884  1.00  0.00    -0.170 C  
HETATM   20  C   UNL     1      -7.230  11.905  67.528  1.00  0.00    -0.125 C  
HETATM   21  C   UNL     1      -6.937  10.679  66.650  1.00  0.00    -0.119 C  
HETATM   22  O   UNL     1      -6.815  13.098  66.860  1.00  0.00    -0.411 OA 
HETATM   23  H   UNL     1      -5.892  13.047  66.639  1.00  0.00     0.000 HD 
HETATM   24  O   UNL     1      -7.670  10.692  65.417  1.00  0.00    -0.247 OA 
HETATM   25  C   UNL     1      -7.259   9.406  67.431  1.00  0.00    -0.087 C  
HETATM   26  H   UNL     1      -7.489   9.934  64.873  1.00  0.00     0.000 HD 
ENDBRANCH  12  13
ENDBRANCH  11  12
ENDBRANCH   8  11
ENDBRANCH   7   8
ENDBRANCH   5   7
TORSDOF 5
ENDMDL
MODEL      173
REMARK 921   NORMALIZED FREE ENERGY PREDICTED BY IDOCK:   -4.38 KCAL/MOL
REMARK 922        TOTAL FREE ENERGY PREDICTED BY IDOCK:   -6.38 KCAL/MOL
REMARK 923 INTER-LIGAND FREE ENERGY PREDICTED BY IDOCK:   -4.95 KCAL/MOL
REMARK 924 INTRA-LIGAND FREE ENERGY PREDICTED BY IDOCK:   -1.43 KCAL/MOL
REMARK 927      BINDING AFFINITY PREDICTED BY RF-SCORE:    0.00 PKD
ROOT
HETATM    1  C   UNL     1     -10.450   6.240  67.406  1.00  0.00    -0.308 C  
HETATM    2  C   UNL     1      -8.913   6.282  67.320  1.00  0.00    -0.113 C  
HETATM    3  C   UNL     1      -8.424   7.552  68.041  1.00  0.00    -0.123 C  
HETATM    4  C   UNL     1      -8.470   6.361  65.848  1.00  0.00    -0.147 C  
HETATM    5  N   UNL     1      -8.284   5.134  67.998  1.00  0.00    -0.098 NA 
HETATM    6  H   UNL     1      -8.449   5.187  69.003  1.00  0.00     0.000 HD 
ENDROOT
BRANCH   5   7
HETATM    7  C   UNL     1      -8.679   3.815  67.491  1.00  0.00    -0.109 C  
BRANCH   7   8
HETATM    8  C   UNL     1      -9.466   3.018  68.548  1.00  0.00    -0.138 C  
HETATM    9  H   UNL     1      -9.795   1.120  68.969  1.00  0.00     0.000 HD 
HETATM   10  O   UNL     1      -9.310   1.612  68.317  1.00  0.00    -0.160 OA 
BRANCH   8  11
HETATM   11  C   UNL     1      -8.972   3.380  69.957  1.00  0.00    -0.104 C  
BRANCH  11  12
HETATM   12  O   UNL     1      -9.946   4.209  70.624  1.00  0.00    -0.197 OA 
BRANCH  12  13
HETATM   13  C   UNL     1      -9.429   5.371  71.150  1.00  0.00    -0.156 A  
HETATM   14  C   UNL     1      -8.098   5.474  71.569  1.00  0.00    -0.118 A  
HETATM   15  C   UNL     1      -7.597   6.679  72.049  1.00  0.00    -0.096 A  
HETATM   16  C   UNL     1      -8.424   7.793  72.121  1.00  0.00    -0.159 A  
HETATM   17  C   UNL     1      -9.771   7.705  71.743  1.00  0.00    -0.196 A  
HETATM   18  C   UNL     1     -10.298   6.470  71.299  1.00  0.00    -0.234 A  
HETATM   19  C   UNL     1     -11.765   6.345  70.941  1.00  0.00    -0.366 C  
HETATM   20  C   UNL     1     -12.617   7.522  71.432  1.00  0.00    -0.351 C  
HETATM   21  C   UNL     1     -11.943   8.865  71.111  1.00  0.00    -0.293 C  
HETATM   22  O   UNL     1     -13.916   7.472  70.839  1.00  0.00    -0.639 OA 
HETATM   23  H   UNL     1     -14.444   8.201  71.143  1.00  0.00     0.000 HD 
HETATM   24  O   UNL     1     -11.721   9.054  69.707  1.00  0.00    -0.427 OA 
HETATM   25  C   UNL     1     -10.614   8.958  71.862  1.00  0.00    -0.419 C  
HETATM   26  H   UNL     1     -11.305   9.884  69.508  1.00  0.00     0.000 HD 
ENDBRANCH  12  13
ENDBRANCH  11  12
ENDBRANCH   8  11
ENDBRANCH   7   8
ENDBRANCH   5   7
TORSDOF 5
ENDMDL
MODEL      174
REMARK 921   NORMALIZED FREE ENERGY PREDICTED BY IDOCK:   -4.37 KCAL/MOL
REMARK 922        TOTAL FREE ENERGY PREDICTED BY IDOCK:   -6.37 KCAL/MOL
REMARK 923 INTER-LIGAND FREE ENERGY PREDICTED BY IDOCK:   -5.95 KCAL/MOL
REMARK 924 INTRA-LIGAND FREE ENERGY PREDICTED BY IDOCK:   -0.41 KCAL/MOL
REMARK 927      BINDING AFFINITY PREDICTED BY RF-SCORE:    0.00 PKD
ROOT
HETATM    1  C   UNL     1      -9.488  16.263  66.441  1.00  0.00    -0.322 C  
HETATM    2  C   UNL     1      -8.792  15.690  67.689  1.00  0.00    -0.175 C  
HETATM    3  C   UNL     1      -8.431  16.861  68.622  1.00  0.00    -0.260 C  
HETATM    4  C   UNL     1      -7.490  14.976  67.284  1.00  0.00    -0.215 C  
HETATM    5  N   UNL     1      -9.671  14.786  68.453  1.00  0.00    -0.208 NA 
HETATM    6  H   UNL     1     -10.447  15.310  68.857  1.00  0.00     0.000 HD 
ENDROOT
BRANCH   5   7
HETATM    7  C   UNL     1     -10.179  13.628  67.708  1.00  0.00    -0.242 C  
BRANCH   7   8
HETATM    8  C   UNL     1     -11.658  13.352  68.035  1.00  0.00    -0.334 C  
HETATM    9  H   UNL     1     -13.232  12.634  67.090  1.00  0.00     0.000 HD 
HETATM   10  O   UNL     1     -12.319  12.804  66.887  1.00  0.00    -0.412 OA 
BRANCH   8  11
HETATM   11  C   UNL     1     -11.763  12.379  69.220  1.00  0.00    -0.329 C  
BRANCH  11  12
HETATM   12  O   UNL     1     -12.222  11.090  68.762  1.00  0.00    -0.546 OA 
BRANCH  12  13
HETATM   13  C   UNL     1     -11.237  10.132  68.697  1.00  0.00    -0.168 A  
HETATM   14  C   UNL     1     -10.390  10.005  67.590  1.00  0.00    -0.272 A  
HETATM   15  C   UNL     1      -9.373   9.058  67.580  1.00  0.00    -0.154 A  
HETATM   16  C   UNL     1      -9.195   8.223  68.677  1.00  0.00    -0.143 A  
HETATM   17  C   UNL     1     -10.053   8.305  69.782  1.00  0.00    -0.197 A  
HETATM   18  C   UNL     1     -11.119   9.235  69.777  1.00  0.00    -0.168 A  
HETATM   19  C   UNL     1     -12.089   9.297  70.938  1.00  0.00    -0.297 C  
HETATM   20  C   UNL     1     -12.006   8.083  71.871  1.00  0.00    -0.314 C  
HETATM   21  C   UNL     1     -10.546   7.745  72.211  1.00  0.00    -0.259 C  
HETATM   22  O   UNL     1     -12.744   8.328  73.070  1.00  0.00    -0.694 OA 
HETATM   23  H   UNL     1     -12.693   7.576  73.648  1.00  0.00     0.000 HD 
HETATM   24  O   UNL     1      -9.862   8.828  72.858  1.00  0.00    -0.066 OA 
HETATM   25  C   UNL     1      -9.805   7.353  70.934  1.00  0.00    -0.177 C  
HETATM   26  H   UNL     1      -8.959   8.619  73.068  1.00  0.00     0.000 HD 
ENDBRANCH  12  13
ENDBRANCH  11  12
ENDBRANCH   8  11
ENDBRANCH   7   8
ENDBRANCH   5   7
TORSDOF 5
ENDMDL
MODEL      175
REMARK 921   NORMALIZED FREE ENERGY PREDICTED BY IDOCK:   -4.35 KCAL/MOL
REMARK 922        TOTAL FREE ENERGY PREDICTED BY IDOCK:   -6.34 KCAL/MOL
REMARK 923 INTER-LIGAND FREE ENERGY PREDICTED BY IDOCK:   -5.88 KCAL/MOL
REMARK 924 INTRA-LIGAND FREE ENERGY PREDICTED BY IDOCK:   -0.47 KCAL/MOL
REMARK 927      BINDING AFFINITY PREDICTED BY RF-SCORE:    0.00 PKD
ROOT
HETATM    1  C   UNL     1      -8.438  10.054  67.913  1.00  0.00    -0.118 C  
HETATM    2  C   UNL     1      -9.846   9.556  67.539  1.00  0.00    -0.167 C  
HETATM    3  C   UNL     1     -10.234   8.428  68.513  1.00  0.00    -0.228 C  
HETATM    4  C   UNL     1      -9.838   8.980  66.111  1.00  0.00    -0.349 C  
HETATM    5  N   UNL     1     -10.867  10.611  67.674  1.00  0.00    -0.270 NA 
HETATM    6  H   UNL     1     -10.978  10.867  68.655  1.00  0.00     0.000 HD 
ENDROOT
BRANCH   5   7
HETATM    7  C   UNL     1     -10.636  11.812  66.863  1.00  0.00    -0.235 C  
BRANCH   7   8
HETATM    8  C   UNL     1     -10.939  13.096  67.659  1.00  0.00    -0.262 C  
HETATM    9  H   UNL     1     -11.506  13.553  69.491  1.00  0.00     0.000 HD 
HETATM   10  O   UNL     1     -11.320  12.761  69.000  1.00  0.00    -0.264 OA 
BRANCH   8  11
HETATM   11  C   UNL     1      -9.705  14.010  67.673  1.00  0.00    -0.228 C  
BRANCH  11  12
HETATM   12  O   UNL     1      -9.922  15.121  68.567  1.00  0.00    -0.212 OA 
BRANCH  12  13
HETATM   13  C   UNL     1      -8.806  15.897  68.782  1.00  0.00    -0.213 A  
HETATM   14  C   UNL     1      -7.652  15.393  69.393  1.00  0.00    -0.224 A  
HETATM   15  C   UNL     1      -6.526  16.193  69.548  1.00  0.00    -0.199 A  
HETATM   16  C   UNL     1      -6.543  17.508  69.098  1.00  0.00    -0.246 A  
HETATM   17  C   UNL     1      -7.699  18.047  68.518  1.00  0.00    -0.308 A  
HETATM   18  C   UNL     1      -8.864  17.252  68.401  1.00  0.00    -0.269 A  
HETATM   19  C   UNL     1     -10.138  17.837  67.828  1.00  0.00    -0.345 C  
HETATM   20  C   UNL     1     -10.125  19.368  67.742  1.00  0.00    -0.401 C  
HETATM   21  C   UNL     1      -8.804  19.877  67.144  1.00  0.00    -0.330 C  
HETATM   22  O   UNL     1     -11.228  19.830  66.960  1.00  0.00    -0.276 OA 
HETATM   23  H   UNL     1     -11.219  20.778  66.907  1.00  0.00     0.000 HD 
HETATM   24  O   UNL     1      -8.563  19.373  65.823  1.00  0.00    -0.405 OA 
HETATM   25  C   UNL     1      -7.647  19.491  68.065  1.00  0.00    -0.331 C  
HETATM   26  H   UNL     1      -7.746  19.688  65.452  1.00  0.00     0.000 HD 
ENDBRANCH  12  13
ENDBRANCH  11  12
ENDBRANCH   8  11
ENDBRANCH   7   8
ENDBRANCH   5   7
TORSDOF 5
ENDMDL
MODEL      176
REMARK 921   NORMALIZED FREE ENERGY PREDICTED BY IDOCK:   -4.34 KCAL/MOL
REMARK 922        TOTAL FREE ENERGY PREDICTED BY IDOCK:   -6.34 KCAL/MOL
REMARK 923 INTER-LIGAND FREE ENERGY PREDICTED BY IDOCK:   -5.81 KCAL/MOL
REMARK 924 INTRA-LIGAND FREE ENERGY PREDICTED BY IDOCK:   -0.53 KCAL/MOL
REMARK 927      BINDING AFFINITY PREDICTED BY RF-SCORE:    0.00 PKD
ROOT
HETATM    1  C   UNL     1     -10.630  18.437  65.836  1.00  0.00    -0.313 C  
HETATM    2  C   UNL     1      -9.970  18.147  67.196  1.00  0.00    -0.336 C  
HETATM    3  C   UNL     1     -10.265  19.329  68.138  1.00  0.00    -0.515 C  
HETATM    4  C   UNL     1      -8.444  18.032  67.028  1.00  0.00    -0.247 C  
HETATM    5  N   UNL     1     -10.520  16.938  67.838  1.00  0.00    -0.331 NA 
HETATM    6  H   UNL     1     -11.495  17.091  68.096  1.00  0.00     0.000 HD 
ENDROOT
BRANCH   5   7
HETATM    7  C   UNL     1     -10.392  15.702  67.058  1.00  0.00    -0.289 C  
BRANCH   7   8
HETATM    8  C   UNL     1     -11.717  14.916  67.027  1.00  0.00    -0.261 C  
HETATM    9  H   UNL     1     -12.964  14.251  65.653  1.00  0.00     0.000 HD 
HETATM   10  O   UNL     1     -12.147  14.736  65.672  1.00  0.00    -0.249 OA 
BRANCH   8  11
HETATM   11  C   UNL     1     -11.536  13.553  67.711  1.00  0.00    -0.315 C  
BRANCH  11  12
HETATM   12  O   UNL     1     -11.889  12.492  66.799  1.00  0.00    -0.442 OA 
BRANCH  12  13
HETATM   13  C   UNL     1     -11.220  11.310  67.024  1.00  0.00    -0.255 A  
HETATM   14  C   UNL     1     -11.426  10.543  68.177  1.00  0.00    -0.255 A  
HETATM   15  C   UNL     1     -10.769   9.330  68.346  1.00  0.00    -0.192 A  
HETATM   16  C   UNL     1      -9.895   8.873  67.367  1.00  0.00    -0.247 A  
HETATM   17  C   UNL     1      -9.644   9.641  66.222  1.00  0.00    -0.281 A  
HETATM   18  C   UNL     1     -10.272  10.898  66.067  1.00  0.00    -0.311 A  
HETATM   19  C   UNL     1      -9.968  11.765  64.862  1.00  0.00    -0.280 C  
HETATM   20  C   UNL     1      -8.722  11.320  64.087  1.00  0.00     0.304 C  
HETATM   21  C   UNL     1      -8.726   9.801  63.857  1.00  0.00    -0.218 C  
HETATM   22  O   UNL     1      -8.648  12.005  62.835  1.00  0.00    -0.332 OA 
HETATM   23  H   UNL     1      -7.876  11.729  62.355  1.00  0.00     0.000 HD 
HETATM   24  O   UNL     1      -9.871   9.354  63.118  1.00  0.00    -0.220 OA 
HETATM   25  C   UNL     1      -8.669   9.083  65.206  1.00  0.00    -0.226 C  
HETATM   26  H   UNL     1      -9.874   8.415  62.976  1.00  0.00     0.000 HD 
ENDBRANCH  12  13
ENDBRANCH  11  12
ENDBRANCH   8  11
ENDBRANCH   7   8
ENDBRANCH   5   7
TORSDOF 5
ENDMDL
MODEL      177
REMARK 921   NORMALIZED FREE ENERGY PREDICTED BY IDOCK:   -4.32 KCAL/MOL
REMARK 922        TOTAL FREE ENERGY PREDICTED BY IDOCK:   -6.31 KCAL/MOL
REMARK 923 INTER-LIGAND FREE ENERGY PREDICTED BY IDOCK:   -5.79 KCAL/MOL
REMARK 924 INTRA-LIGAND FREE ENERGY PREDICTED BY IDOCK:   -0.53 KCAL/MOL
REMARK 927      BINDING AFFINITY PREDICTED BY RF-SCORE:    0.00 PKD
ROOT
HETATM    1  C   UNL     1     -12.179  12.821  65.799  1.00  0.00    -0.469 C  
HETATM    2  C   UNL     1     -10.893  13.055  64.985  1.00  0.00    -0.308 C  
HETATM    3  C   UNL     1     -10.818  14.549  64.619  1.00  0.00    -0.351 C  
HETATM    4  C   UNL     1     -10.941  12.239  63.680  1.00  0.00    -0.532 C  
HETATM    5  N   UNL     1      -9.677  12.740  65.757  1.00  0.00    -0.410 NA 
HETATM    6  H   UNL     1      -9.571  13.399  66.528  1.00  0.00     0.000 HD 
ENDROOT
BRANCH   5   7
HETATM    7  C   UNL     1      -9.592  11.363  66.257  1.00  0.00    -0.213 C  
BRANCH   7   8
HETATM    8  C   UNL     1      -8.165  10.800  66.115  1.00  0.00    -0.163 C  
HETATM    9  H   UNL     1      -6.400  11.133  66.928  1.00  0.00     0.000 HD 
HETATM   10  O   UNL     1      -7.281  11.480  67.015  1.00  0.00    -0.130 OA 
BRANCH   8  11
HETATM   11  C   UNL     1      -8.162   9.292  66.410  1.00  0.00    -0.111 C  
BRANCH  11  12
HETATM   12  O   UNL     1      -8.390   9.062  67.816  1.00  0.00    -0.116 OA 
BRANCH  12  13
HETATM   13  C   UNL     1      -9.349   8.112  68.082  1.00  0.00    -0.133 A  
HETATM   14  C   UNL     1     -10.093   7.497  67.069  1.00  0.00    -0.332 A  
HETATM   15  C   UNL     1     -11.018   6.505  67.371  1.00  0.00    -0.458 A  
HETATM   16  C   UNL     1     -11.214   6.121  68.692  1.00  0.00    -0.275 A  
HETATM   17  C   UNL     1     -10.509   6.749  69.728  1.00  0.00    -0.240 A  
HETATM   18  C   UNL     1      -9.602   7.792  69.431  1.00  0.00    -0.156 A  
HETATM   19  C   UNL     1      -8.875   8.518  70.543  1.00  0.00    -0.168 C  
HETATM   20  C   UNL     1      -9.470   8.261  71.933  1.00  0.00    -0.220 C  
HETATM   21  C   UNL     1      -9.741   6.765  72.151  1.00  0.00    -0.149 C  
HETATM   22  O   UNL     1      -8.590   8.753  72.946  1.00  0.00    -0.398 OA 
HETATM   23  H   UNL     1      -8.959   8.594  73.807  1.00  0.00     0.000 HD 
HETATM   24  O   UNL     1      -8.556   5.964  72.039  1.00  0.00    -0.135 OA 
HETATM   25  C   UNL     1     -10.787   6.286  71.144  1.00  0.00    -0.320 C  
HETATM   26  H   UNL     1      -8.724   5.038  72.174  1.00  0.00     0.000 HD 
ENDBRANCH  12  13
ENDBRANCH  11  12
ENDBRANCH   8  11
ENDBRANCH   7   8
ENDBRANCH   5   7
TORSDOF 5
ENDMDL
MODEL      178
REMARK 921   NORMALIZED FREE ENERGY PREDICTED BY IDOCK:   -4.32 KCAL/MOL
REMARK 922        TOTAL FREE ENERGY PREDICTED BY IDOCK:   -6.31 KCAL/MOL
REMARK 923 INTER-LIGAND FREE ENERGY PREDICTED BY IDOCK:   -5.64 KCAL/MOL
REMARK 924 INTRA-LIGAND FREE ENERGY PREDICTED BY IDOCK:   -0.67 KCAL/MOL
REMARK 927      BINDING AFFINITY PREDICTED BY RF-SCORE:    0.00 PKD
ROOT
HETATM    1  C   UNL     1      -8.098   8.583  65.220  1.00  0.00    -0.138 C  
HETATM    2  C   UNL     1      -8.175  10.030  64.700  1.00  0.00    -0.163 C  
HETATM    3  C   UNL     1      -9.504  10.200  63.941  1.00  0.00    -0.332 C  
HETATM    4  C   UNL     1      -7.020  10.299  63.718  1.00  0.00    -0.059 C  
HETATM    5  N   UNL     1      -8.176  11.018  65.795  1.00  0.00    -0.311 NA 
HETATM    6  H   UNL     1      -9.033  10.936  66.340  1.00  0.00     0.000 HD 
ENDROOT
BRANCH   5   7
HETATM    7  C   UNL     1      -7.007  10.971  66.680  1.00  0.00    -0.140 C  
BRANCH   7   8
HETATM    8  C   UNL     1      -7.406  11.188  68.152  1.00  0.00    -0.087 C  
HETATM    9  H   UNL     1      -8.699  12.299  69.143  1.00  0.00     0.000 HD 
HETATM   10  O   UNL     1      -8.453  12.165  68.235  1.00  0.00    -0.170 OA 
BRANCH   8  11
HETATM   11  C   UNL     1      -7.870   9.862  68.773  1.00  0.00    -0.091 C  
BRANCH  11  12
HETATM   12  O   UNL     1      -9.292   9.900  69.015  1.00  0.00    -0.157 OA 
BRANCH  12  13
HETATM   13  C   UNL     1      -9.872   8.660  69.157  1.00  0.00    -0.185 A  
HETATM   14  C   UNL     1      -9.419   7.539  68.451  1.00  0.00    -0.148 A  
HETATM   15  C   UNL     1      -9.997   6.292  68.657  1.00  0.00    -0.166 A  
HETATM   16  C   UNL     1     -11.038   6.153  69.567  1.00  0.00    -0.490 A  
HETATM   17  C   UNL     1     -11.534   7.267  70.257  1.00  0.00    -0.242 A  
HETATM   18  C   UNL     1     -10.982   8.547  70.016  1.00  0.00    -0.197 A  
HETATM   19  C   UNL     1     -11.544   9.769  70.712  1.00  0.00    -0.417 C  
HETATM   20  C   UNL     1     -12.909   9.526  71.369  1.00  0.00    -0.358 C  
HETATM   21  C   UNL     1     -12.912   8.216  72.171  1.00  0.00    -0.261 C  
HETATM   22  O   UNL     1     -13.251  10.622  72.219  1.00  0.00    -0.594 OA 
HETATM   23  H   UNL     1     -14.097  10.472  72.625  1.00  0.00     0.000 HD 
HETATM   24  O   UNL     1     -11.928   8.201  73.214  1.00  0.00    -0.532 OA 
HETATM   25  C   UNL     1     -12.679   7.040  71.223  1.00  0.00    -0.400 C  
HETATM   26  H   UNL     1     -11.930   7.391  73.710  1.00  0.00     0.000 HD 
ENDBRANCH  12  13
ENDBRANCH  11  12
ENDBRANCH   8  11
ENDBRANCH   7   8
ENDBRANCH   5   7
TORSDOF 5
ENDMDL
MODEL      179
REMARK 921   NORMALIZED FREE ENERGY PREDICTED BY IDOCK:   -4.32 KCAL/MOL
REMARK 922        TOTAL FREE ENERGY PREDICTED BY IDOCK:   -6.31 KCAL/MOL
REMARK 923 INTER-LIGAND FREE ENERGY PREDICTED BY IDOCK:   -5.82 KCAL/MOL
REMARK 924 INTRA-LIGAND FREE ENERGY PREDICTED BY IDOCK:   -0.49 KCAL/MOL
REMARK 927      BINDING AFFINITY PREDICTED BY RF-SCORE:    0.00 PKD
ROOT
HETATM    1  C   UNL     1     -11.801  12.563  66.000  1.00  0.00    -0.478 C  
HETATM    2  C   UNL     1     -11.267  13.100  64.659  1.00  0.00    -0.340 C  
HETATM    3  C   UNL     1     -10.848  14.568  64.860  1.00  0.00    -0.436 C  
HETATM    4  C   UNL     1     -12.378  13.055  63.595  1.00  0.00    -0.499 C  
HETATM    5  N   UNL     1     -10.071  12.370  64.201  1.00  0.00    -0.514 NA 
HETATM    6  H   UNL     1      -9.290  12.545  64.833  1.00  0.00     0.000 HD 
ENDROOT
BRANCH   5   7
HETATM    7  C   UNL     1     -10.253  10.926  64.012  1.00  0.00    -0.357 C  
BRANCH   7   8
HETATM    8  C   UNL     1      -8.941  10.245  63.580  1.00  0.00    -0.242 C  
HETATM    9  H   UNL     1      -7.252  10.790  62.720  1.00  0.00     0.000 HD 
HETATM   10  O   UNL     1      -8.062  11.210  62.986  1.00  0.00     0.075 OA 
BRANCH   8  11
HETATM   11  C   UNL     1      -8.264   9.589  64.793  1.00  0.00    -0.143 C  
BRANCH  11  12
HETATM   12  O   UNL     1      -8.896  10.030  66.012  1.00  0.00    -0.140 OA 
BRANCH  12  13
HETATM   13  C   UNL     1      -8.409   9.428  67.149  1.00  0.00    -0.124 A  
HETATM   14  C   UNL     1      -7.408  10.013  67.933  1.00  0.00    -0.088 A  
HETATM   15  C   UNL     1      -6.976   9.400  69.103  1.00  0.00    -0.058 A  
HETATM   16  C   UNL     1      -7.535   8.191  69.498  1.00  0.00    -0.087 A  
HETATM   17  C   UNL     1      -8.511   7.566  68.710  1.00  0.00    -0.129 A  
HETATM   18  C   UNL     1      -8.920   8.162  67.494  1.00  0.00    -0.143 A  
HETATM   19  C   UNL     1      -9.933   7.472  66.604  1.00  0.00    -0.270 C  
HETATM   20  C   UNL     1     -10.162   5.999  66.964  1.00  0.00    -0.205 C  
HETATM   21  C   UNL     1     -10.345   5.822  68.480  1.00  0.00    -0.215 C  
HETATM   22  O   UNL     1     -11.303   5.491  66.270  1.00  0.00    -0.712 OA 
HETATM   23  H   UNL     1     -11.444   4.579  66.493  1.00  0.00     0.000 HD 
HETATM   24  O   UNL     1     -11.458   6.566  68.994  1.00  0.00    -0.587 OA 
HETATM   25  C   UNL     1      -9.064   6.243  69.199  1.00  0.00    -0.130 C  
HETATM   26  H   UNL     1     -11.572   6.456  69.931  1.00  0.00     0.000 HD 
ENDBRANCH  12  13
ENDBRANCH  11  12
ENDBRANCH   8  11
ENDBRANCH   7   8
ENDBRANCH   5   7
TORSDOF 5
ENDMDL
MODEL      180
REMARK 921   NORMALIZED FREE ENERGY PREDICTED BY IDOCK:   -4.32 KCAL/MOL
REMARK 922        TOTAL FREE ENERGY PREDICTED BY IDOCK:   -6.30 KCAL/MOL
REMARK 923 INTER-LIGAND FREE ENERGY PREDICTED BY IDOCK:   -5.66 KCAL/MOL
REMARK 924 INTRA-LIGAND FREE ENERGY PREDICTED BY IDOCK:   -0.64 KCAL/MOL
REMARK 927      BINDING AFFINITY PREDICTED BY RF-SCORE:    0.00 PKD
ROOT
HETATM    1  C   UNL     1     -11.740  15.507  71.407  1.00  0.00    -0.470 C  
HETATM    2  C   UNL     1     -12.739  14.490  70.826  1.00  0.00    -0.360 C  
HETATM    3  C   UNL     1     -14.137  15.137  70.816  1.00  0.00    -0.017 C  
HETATM    4  C   UNL     1     -12.794  13.237  71.719  1.00  0.00    -0.367 C  
HETATM    5  N   UNL     1     -12.422  14.129  69.432  1.00  0.00    -0.491 NA 
HETATM    6  H   UNL     1     -12.553  14.936  68.823  1.00  0.00     0.000 HD 
ENDROOT
BRANCH   5   7
HETATM    7  C   UNL     1     -11.091  13.549  69.223  1.00  0.00    -0.179 C  
BRANCH   7   8
HETATM    8  C   UNL     1     -11.104  12.499  68.097  1.00  0.00    -0.243 C  
HETATM    9  H   UNL     1     -12.274  11.019  67.523  1.00  0.00     0.000 HD 
HETATM   10  O   UNL     1     -12.265  11.667  68.218  1.00  0.00    -0.525 OA 
BRANCH   8  11
HETATM   11  C   UNL     1     -11.094  13.195  66.727  1.00  0.00    -0.289 C  
BRANCH  11  12
HETATM   12  O   UNL     1      -9.767  13.676  66.427  1.00  0.00    -0.282 OA 
BRANCH  12  13
HETATM   13  C   UNL     1      -9.654  15.047  66.422  1.00  0.00    -0.289 A  
HETATM   14  C   UNL     1     -10.618  15.874  65.834  1.00  0.00    -0.348 A  
HETATM   15  C   UNL     1     -10.495  17.258  65.892  1.00  0.00    -0.267 A  
HETATM   16  C   UNL     1      -9.403  17.829  66.534  1.00  0.00    -0.291 A  
HETATM   17  C   UNL     1      -8.405  17.022  67.097  1.00  0.00    -0.213 A  
HETATM   18  C   UNL     1      -8.501  15.614  66.999  1.00  0.00    -0.257 A  
HETATM   19  C   UNL     1      -7.403  14.730  67.553  1.00  0.00    -0.225 C  
HETATM   20  C   UNL     1      -6.109  15.488  67.872  1.00  0.00    -0.147 C  
HETATM   21  C   UNL     1      -6.402  16.784  68.643  1.00  0.00    -0.154 C  
HETATM   22  O   UNL     1      -5.222  14.659  68.626  1.00  0.00    -0.087 OA 
HETATM   23  H   UNL     1      -4.421  15.129  68.824  1.00  0.00     0.000 HD 
HETATM   24  O   UNL     1      -7.077  16.549  69.886  1.00  0.00     0.047 OA 
HETATM   25  C   UNL     1      -7.239  17.717  67.768  1.00  0.00    -0.207 C  
HETATM   26  H   UNL     1      -7.259  17.351  70.364  1.00  0.00     0.000 HD 
ENDBRANCH  12  13
ENDBRANCH  11  12
ENDBRANCH   8  11
ENDBRANCH   7   8
ENDBRANCH   5   7
TORSDOF 5
ENDMDL
MODEL      181
REMARK 921   NORMALIZED FREE ENERGY PREDICTED BY IDOCK:   -4.29 KCAL/MOL
REMARK 922        TOTAL FREE ENERGY PREDICTED BY IDOCK:   -6.26 KCAL/MOL
REMARK 923 INTER-LIGAND FREE ENERGY PREDICTED BY IDOCK:   -5.90 KCAL/MOL
REMARK 924 INTRA-LIGAND FREE ENERGY PREDICTED BY IDOCK:   -0.37 KCAL/MOL
REMARK 927      BINDING AFFINITY PREDICTED BY RF-SCORE:    0.00 PKD
ROOT
HETATM    1  C   UNL     1     -10.737   3.508  73.755  1.00  0.00    -0.304 C  
HETATM    2  C   UNL     1      -9.882   3.573  72.476  1.00  0.00    -0.155 C  
HETATM    3  C   UNL     1      -9.978   2.212  71.761  1.00  0.00    -0.209 C  
HETATM    4  C   UNL     1      -8.408   3.825  72.839  1.00  0.00    -0.094 C  
HETATM    5  N   UNL     1     -10.372   4.592  71.528  1.00  0.00    -0.124 NA 
HETATM    6  H   UNL     1     -11.287   4.323  71.167  1.00  0.00     0.000 HD 
ENDROOT
BRANCH   5   7
HETATM    7  C   UNL     1     -10.418   5.962  72.051  1.00  0.00    -0.214 C  
BRANCH   7   8
HETATM    8  C   UNL     1     -11.191   6.900  71.105  1.00  0.00    -0.274 C  
HETATM    9  H   UNL     1     -12.882   7.911  71.146  1.00  0.00     0.000 HD 
HETATM   10  O   UNL     1     -12.406   7.332  71.730  1.00  0.00    -0.313 OA 
BRANCH   8  11
HETATM   11  C   UNL     1     -10.322   8.114  70.741  1.00  0.00    -0.196 C  
BRANCH  11  12
HETATM   12  O   UNL     1     -10.655   8.581  69.417  1.00  0.00    -0.221 OA 
BRANCH  12  13
HETATM   13  C   UNL     1     -11.110   9.879  69.376  1.00  0.00    -0.199 A  
HETATM   14  C   UNL     1     -11.744  10.483  70.469  1.00  0.00    -0.443 A  
HETATM   15  C   UNL     1     -12.145  11.812  70.409  1.00  0.00    -0.440 A  
HETATM   16  C   UNL     1     -11.923  12.551  69.253  1.00  0.00    -0.304 A  
HETATM   17  C   UNL     1     -11.324  11.958  68.133  1.00  0.00    -0.350 A  
HETATM   18  C   UNL     1     -10.957  10.592  68.171  1.00  0.00    -0.321 A  
HETATM   19  C   UNL     1     -10.361   9.922  66.951  1.00  0.00    -0.300 C  
HETATM   20  C   UNL     1     -10.535  10.735  65.661  1.00  0.00    -0.186 C  
HETATM   21  C   UNL     1     -10.169  12.210  65.883  1.00  0.00    -0.244 C  
HETATM   22  O   UNL     1      -9.731  10.182  64.617  1.00  0.00    -0.297 OA 
HETATM   23  H   UNL     1      -9.838  10.685  63.818  1.00  0.00     0.000 HD 
HETATM   24  O   UNL     1      -8.815  12.387  66.320  1.00  0.00    -0.402 OA 
HETATM   25  C   UNL     1     -11.127  12.823  66.905  1.00  0.00    -0.308 C  
HETATM   26  H   UNL     1      -8.588  13.299  66.457  1.00  0.00     0.000 HD 
ENDBRANCH  12  13
ENDBRANCH  11  12
ENDBRANCH   8  11
ENDBRANCH   7   8
ENDBRANCH   5   7
TORSDOF 5
ENDMDL
MODEL      182
REMARK 921   NORMALIZED FREE ENERGY PREDICTED BY IDOCK:   -4.28 KCAL/MOL
REMARK 922        TOTAL FREE ENERGY PREDICTED BY IDOCK:   -6.25 KCAL/MOL
REMARK 923 INTER-LIGAND FREE ENERGY PREDICTED BY IDOCK:   -5.40 KCAL/MOL
REMARK 924 INTRA-LIGAND FREE ENERGY PREDICTED BY IDOCK:   -0.85 KCAL/MOL
REMARK 927      BINDING AFFINITY PREDICTED BY RF-SCORE:    0.00 PKD
ROOT
HETATM    1  C   UNL     1      -7.022   8.149  68.219  1.00  0.00    -0.076 C  
HETATM    2  C   UNL     1      -7.039   7.073  67.117  1.00  0.00    -0.083 C  
HETATM    3  C   UNL     1      -6.100   5.929  67.544  1.00  0.00    -0.022 C  
HETATM    4  C   UNL     1      -6.512   7.663  65.797  1.00  0.00    -0.042 C  
HETATM    5  N   UNL     1      -8.378   6.483  66.932  1.00  0.00    -0.112 NA 
HETATM    6  H   UNL     1      -8.645   5.952  67.761  1.00  0.00     0.000 HD 
ENDROOT
BRANCH   5   7
HETATM    7  C   UNL     1      -9.438   7.436  66.581  1.00  0.00    -0.187 C  
BRANCH   7   8
HETATM    8  C   UNL     1     -10.815   6.952  67.072  1.00  0.00    -0.366 C  
HETATM    9  H   UNL     1     -11.877   5.293  66.974  1.00  0.00     0.000 HD 
HETATM   10  O   UNL     1     -11.027   5.592  66.671  1.00  0.00    -0.244 OA 
BRANCH   8  11
HETATM   11  C   UNL     1     -10.901   7.071  68.601  1.00  0.00    -0.147 C  
BRANCH  11  12
HETATM   12  O   UNL     1     -10.169   8.231  69.049  1.00  0.00    -0.208 OA 
BRANCH  12  13
HETATM   13  C   UNL     1     -10.936   9.159  69.714  1.00  0.00    -0.181 A  
HETATM   14  C   UNL     1     -11.564   8.873  70.932  1.00  0.00    -0.331 A  
HETATM   15  C   UNL     1     -12.291   9.852  71.601  1.00  0.00    -0.496 A  
HETATM   16  C   UNL     1     -12.402  11.125  71.056  1.00  0.00    -0.487 A  
HETATM   17  C   UNL     1     -11.814  11.425  69.820  1.00  0.00    -0.435 A  
HETATM   18  C   UNL     1     -11.114  10.420  69.112  1.00  0.00    -0.296 A  
HETATM   19  C   UNL     1     -10.522  10.712  67.749  1.00  0.00    -0.258 C  
HETATM   20  C   UNL     1     -11.048  12.007  67.118  1.00  0.00    -0.290 C  
HETATM   21  C   UNL     1     -11.040  13.161  68.132  1.00  0.00    -0.255 C  
HETATM   22  O   UNL     1     -10.264  12.354  65.975  1.00  0.00    -0.236 OA 
HETATM   23  H   UNL     1     -10.590  13.156  65.584  1.00  0.00     0.000 HD 
HETATM   24  O   UNL     1      -9.731  13.438  68.647  1.00  0.00    -0.350 OA 
HETATM   25  C   UNL     1     -11.990  12.830  69.283  1.00  0.00    -0.300 C  
HETATM   26  H   UNL     1      -9.726  14.151  69.275  1.00  0.00     0.000 HD 
ENDBRANCH  12  13
ENDBRANCH  11  12
ENDBRANCH   8  11
ENDBRANCH   7   8
ENDBRANCH   5   7
TORSDOF 5
ENDMDL
MODEL      183
REMARK 921   NORMALIZED FREE ENERGY PREDICTED BY IDOCK:   -4.27 KCAL/MOL
REMARK 922        TOTAL FREE ENERGY PREDICTED BY IDOCK:   -6.25 KCAL/MOL
REMARK 923 INTER-LIGAND FREE ENERGY PREDICTED BY IDOCK:   -5.72 KCAL/MOL
REMARK 924 INTRA-LIGAND FREE ENERGY PREDICTED BY IDOCK:   -0.52 KCAL/MOL
REMARK 927      BINDING AFFINITY PREDICTED BY RF-SCORE:    0.00 PKD
ROOT
HETATM    1  C   UNL     1      -5.179  18.900  65.226  1.00  0.00    -0.200 C  
HETATM    2  C   UNL     1      -6.253  20.003  65.225  1.00  0.00    -0.246 C  
HETATM    3  C   UNL     1      -6.363  20.569  63.796  1.00  0.00    -0.189 C  
HETATM    4  C   UNL     1      -5.835  21.146  66.167  1.00  0.00    -0.310 C  
HETATM    5  N   UNL     1      -7.586  19.485  65.586  1.00  0.00    -0.436 NA 
HETATM    6  H   UNL     1      -7.923  18.851  64.862  1.00  0.00     0.000 HD 
ENDROOT
BRANCH   5   7
HETATM    7  C   UNL     1      -7.672  18.841  66.902  1.00  0.00    -0.236 C  
BRANCH   7   8
HETATM    8  C   UNL     1      -8.242  17.415  66.794  1.00  0.00    -0.249 C  
HETATM    9  H   UNL     1      -7.547  15.613  66.399  1.00  0.00     0.000 HD 
HETATM   10  O   UNL     1      -7.195  16.493  66.465  1.00  0.00    -0.227 OA 
BRANCH   8  11
HETATM   11  C   UNL     1      -8.904  17.011  68.121  1.00  0.00    -0.227 C  
BRANCH  11  12
HETATM   12  O   UNL     1      -8.576  15.643  68.441  1.00  0.00    -0.164 OA 
BRANCH  12  13
HETATM   13  C   UNL     1      -9.646  14.780  68.385  1.00  0.00    -0.213 A  
HETATM   14  C   UNL     1     -10.887  15.090  68.955  1.00  0.00    -0.242 A  
HETATM   15  C   UNL     1     -11.960  14.215  68.835  1.00  0.00    -0.376 A  
HETATM   16  C   UNL     1     -11.803  13.017  68.148  1.00  0.00    -0.381 A  
HETATM   17  C   UNL     1     -10.562  12.667  67.601  1.00  0.00    -0.232 A  
HETATM   18  C   UNL     1      -9.453  13.532  67.761  1.00  0.00    -0.216 A  
HETATM   19  C   UNL     1      -8.091  13.142  67.225  1.00  0.00    -0.151 C  
HETATM   20  C   UNL     1      -7.983  11.659  66.848  1.00  0.00    -0.161 C  
HETATM   21  C   UNL     1      -9.201  11.206  66.028  1.00  0.00    -0.205 C  
HETATM   22  O   UNL     1      -6.781  11.422  66.113  1.00  0.00    -0.354 OA 
HETATM   23  H   UNL     1      -6.714  10.504  65.880  1.00  0.00     0.000 HD 
HETATM   24  O   UNL     1      -9.356  11.947  64.809  1.00  0.00    -0.424 OA 
HETATM   25  C   UNL     1     -10.464  11.340  66.878  1.00  0.00    -0.286 C  
HETATM   26  H   UNL     1     -10.108  11.667  64.301  1.00  0.00     0.000 HD 
ENDBRANCH  12  13
ENDBRANCH  11  12
ENDBRANCH   8  11
ENDBRANCH   7   8
ENDBRANCH   5   7
TORSDOF 5
ENDMDL
MODEL      184
REMARK 921   NORMALIZED FREE ENERGY PREDICTED BY IDOCK:   -4.24 KCAL/MOL
REMARK 922        TOTAL FREE ENERGY PREDICTED BY IDOCK:   -6.20 KCAL/MOL
REMARK 923 INTER-LIGAND FREE ENERGY PREDICTED BY IDOCK:   -5.43 KCAL/MOL
REMARK 924 INTRA-LIGAND FREE ENERGY PREDICTED BY IDOCK:   -0.77 KCAL/MOL
REMARK 927      BINDING AFFINITY PREDICTED BY RF-SCORE:    0.00 PKD
ROOT
HETATM    1  C   UNL     1     -11.614  12.539  66.589  1.00  0.00    -0.442 C  
HETATM    2  C   UNL     1     -11.048  12.718  65.168  1.00  0.00    -0.291 C  
HETATM    3  C   UNL     1     -10.547  14.168  65.028  1.00  0.00    -0.436 C  
HETATM    4  C   UNL     1     -12.158  12.489  64.126  1.00  0.00    -0.530 C  
HETATM    5  N   UNL     1      -9.894  11.837  64.910  1.00  0.00    -0.309 NA 
HETATM    6  H   UNL     1      -9.106  12.112  65.496  1.00  0.00     0.000 HD 
ENDROOT
BRANCH   5   7
HETATM    7  C   UNL     1     -10.158  10.402  65.059  1.00  0.00    -0.309 C  
BRANCH   7   8
HETATM    8  C   UNL     1      -8.882   9.569  64.832  1.00  0.00    -0.203 C  
HETATM    9  H   UNL     1      -7.180   9.779  63.859  1.00  0.00     0.000 HD 
HETATM   10  O   UNL     1      -7.968  10.293  63.999  1.00  0.00    -0.156 OA 
BRANCH   8  11
HETATM   11  C   UNL     1      -8.222   9.238  66.179  1.00  0.00    -0.111 C  
BRANCH  11  12
HETATM   12  O   UNL     1      -8.858   9.985  67.238  1.00  0.00    -0.134 OA 
BRANCH  12  13
HETATM   13  C   UNL     1      -8.280   9.811  68.474  1.00  0.00    -0.106 A  
HETATM   14  C   UNL     1      -7.013  10.320  68.785  1.00  0.00    -0.067 A  
HETATM   15  C   UNL     1      -6.482  10.168  70.061  1.00  0.00    -0.106 A  
HETATM   16  C   UNL     1      -7.210   9.500  71.038  1.00  0.00    -0.001 A  
HETATM   17  C   UNL     1      -8.463   8.949  70.741  1.00  0.00    -0.216 A  
HETATM   18  C   UNL     1      -8.988   9.058  69.432  1.00  0.00    -0.145 A  
HETATM   19  C   UNL     1     -10.315   8.419  69.080  1.00  0.00    -0.231 C  
HETATM   20  C   UNL     1     -10.802   7.407  70.124  1.00  0.00    -0.256 C  
HETATM   21  C   UNL     1     -10.666   7.970  71.547  1.00  0.00    -0.227 C  
HETATM   22  O   UNL     1     -12.161   7.047  69.867  1.00  0.00    -0.536 OA 
HETATM   23  H   UNL     1     -12.463   6.420  70.514  1.00  0.00     0.000 HD 
HETATM   24  O   UNL     1     -11.416   9.178  71.740  1.00  0.00    -0.347 OA 
HETATM   25  C   UNL     1      -9.190   8.223  71.854  1.00  0.00    -0.272 C  
HETATM   26  H   UNL     1     -11.332   9.527  72.620  1.00  0.00     0.000 HD 
ENDBRANCH  12  13
ENDBRANCH  11  12
ENDBRANCH   8  11
ENDBRANCH   7   8
ENDBRANCH   5   7
TORSDOF 5
ENDMDL
MODEL      185
REMARK 921   NORMALIZED FREE ENERGY PREDICTED BY IDOCK:   -4.23 KCAL/MOL
REMARK 922        TOTAL FREE ENERGY PREDICTED BY IDOCK:   -6.19 KCAL/MOL
REMARK 923 INTER-LIGAND FREE ENERGY PREDICTED BY IDOCK:   -5.24 KCAL/MOL
REMARK 924 INTRA-LIGAND FREE ENERGY PREDICTED BY IDOCK:   -0.94 KCAL/MOL
REMARK 927      BINDING AFFINITY PREDICTED BY RF-SCORE:    0.00 PKD
ROOT
HETATM    1  C   UNL     1      -9.798   8.866  66.269  1.00  0.00    -0.355 C  
HETATM    2  C   UNL     1      -8.463   8.501  66.944  1.00  0.00    -0.113 C  
HETATM    3  C   UNL     1      -8.454   9.114  68.357  1.00  0.00    -0.128 C  
HETATM    4  C   UNL     1      -7.290   9.102  66.149  1.00  0.00    -0.095 C  
HETATM    5  N   UNL     1      -8.297   7.045  67.106  1.00  0.00    -0.120 NA 
HETATM    6  H   UNL     1      -8.983   6.686  67.769  1.00  0.00     0.000 HD 
ENDROOT
BRANCH   5   7
HETATM    7  C   UNL     1      -8.344   6.268  65.862  1.00  0.00    -0.142 C  
BRANCH   7   8
HETATM    8  C   UNL     1      -9.505   5.256  65.873  1.00  0.00    -0.142 C  
HETATM    9  H   UNL     1     -10.067   3.699  64.802  1.00  0.00     0.000 HD 
HETATM   10  O   UNL     1      -9.350   4.324  64.795  1.00  0.00    -0.152 OA 
BRANCH   8  11
HETATM   11  C   UNL     1      -9.541   4.511  67.216  1.00  0.00    -0.185 C  
BRANCH  11  12
HETATM   12  O   UNL     1     -10.373   5.224  68.154  1.00  0.00    -0.169 OA 
BRANCH  12  13
HETATM   13  C   UNL     1     -10.158   4.881  69.470  1.00  0.00    -0.216 A  
HETATM   14  C   UNL     1      -9.454   3.727  69.835  1.00  0.00    -0.267 A  
HETATM   15  C   UNL     1      -9.213   3.439  71.173  1.00  0.00    -0.194 A  
HETATM   16  C   UNL     1      -9.679   4.298  72.161  1.00  0.00    -0.221 A  
HETATM   17  C   UNL     1     -10.419   5.438  71.822  1.00  0.00    -0.288 A  
HETATM   18  C   UNL     1     -10.709   5.712  70.465  1.00  0.00    -0.344 A  
HETATM   19  C   UNL     1     -11.555   6.909  70.086  1.00  0.00    -0.340 C  
HETATM   20  C   UNL     1     -12.308   7.526  71.271  1.00  0.00    -0.327 C  
HETATM   21  C   UNL     1     -11.384   7.694  72.488  1.00  0.00    -0.355 C  
HETATM   22  O   UNL     1     -12.865   8.789  70.900  1.00  0.00    -0.501 OA 
HETATM   23  H   UNL     1     -13.331   9.171  71.634  1.00  0.00     0.000 HD 
HETATM   24  O   UNL     1     -10.255   8.535  72.215  1.00  0.00    -0.304 OA 
HETATM   25  C   UNL     1     -10.906   6.319  72.955  1.00  0.00    -0.284 C  
HETATM   26  H   UNL     1      -9.684   8.639  72.967  1.00  0.00     0.000 HD 
ENDBRANCH  12  13
ENDBRANCH  11  12
ENDBRANCH   8  11
ENDBRANCH   7   8
ENDBRANCH   5   7
TORSDOF 5
ENDMDL
MODEL      186
REMARK 921   NORMALIZED FREE ENERGY PREDICTED BY IDOCK:   -4.22 KCAL/MOL
REMARK 922        TOTAL FREE ENERGY PREDICTED BY IDOCK:   -6.18 KCAL/MOL
REMARK 923 INTER-LIGAND FREE ENERGY PREDICTED BY IDOCK:   -5.69 KCAL/MOL
REMARK 924 INTRA-LIGAND FREE ENERGY PREDICTED BY IDOCK:   -0.49 KCAL/MOL
REMARK 927      BINDING AFFINITY PREDICTED BY RF-SCORE:    0.00 PKD
ROOT
HETATM    1  C   UNL     1      -7.437  19.447  68.210  1.00  0.00    -0.341 C  
HETATM    2  C   UNL     1      -8.938  19.575  67.896  1.00  0.00    -0.322 C  
HETATM    3  C   UNL     1      -9.177  20.943  67.229  1.00  0.00    -0.281 C  
HETATM    4  C   UNL     1      -9.756  19.525  69.199  1.00  0.00    -0.401 C  
HETATM    5  N   UNL     1      -9.400  18.547  66.945  1.00  0.00    -0.285 NA 
HETATM    6  H   UNL     1      -8.972  18.697  66.032  1.00  0.00     0.000 HD 
ENDROOT
BRANCH   5   7
HETATM    7  C   UNL     1      -9.197  17.160  67.377  1.00  0.00    -0.232 C  
BRANCH   7   8
HETATM    8  C   UNL     1      -8.514  16.323  66.279  1.00  0.00    -0.334 C  
HETATM    9  H   UNL     1      -6.741  15.515  65.979  1.00  0.00     0.000 HD 
HETATM   10  O   UNL     1      -7.163  16.031  66.657  1.00  0.00    -0.169 OA 
BRANCH   8  11
HETATM   11  C   UNL     1      -9.293  15.018  66.051  1.00  0.00    -0.269 C  
BRANCH  11  12
HETATM   12  O   UNL     1      -8.822  13.996  66.954  1.00  0.00    -0.226 OA 
BRANCH  12  13
HETATM   13  C   UNL     1      -9.784  13.084  67.323  1.00  0.00    -0.225 A  
HETATM   14  C   UNL     1     -10.920  13.451  68.054  1.00  0.00    -0.265 A  
HETATM   15  C   UNL     1     -11.896  12.512  68.365  1.00  0.00    -0.353 A  
HETATM   16  C   UNL     1     -11.744  11.193  67.953  1.00  0.00    -0.260 A  
HETATM   17  C   UNL     1     -10.598  10.794  67.253  1.00  0.00    -0.304 A  
HETATM   18  C   UNL     1      -9.579  11.735  66.975  1.00  0.00    -0.196 A  
HETATM   19  C   UNL     1      -8.309  11.306  66.268  1.00  0.00    -0.142 C  
HETATM   20  C   UNL     1      -8.116   9.786  66.227  1.00  0.00    -0.113 C  
HETATM   21  C   UNL     1      -9.411   9.074  65.806  1.00  0.00    -0.236 C  
HETATM   22  O   UNL     1      -7.056   9.446  65.330  1.00  0.00    -0.087 OA 
HETATM   23  H   UNL     1      -6.936   8.504  65.304  1.00  0.00     0.000 HD 
HETATM   24  O   UNL     1      -9.872   9.481  64.510  1.00  0.00    -0.361 OA 
HETATM   25  C   UNL     1     -10.497   9.337  66.849  1.00  0.00    -0.284 C  
HETATM   26  H   UNL     1     -10.673   9.041  64.249  1.00  0.00     0.000 HD 
ENDBRANCH  12  13
ENDBRANCH  11  12
ENDBRANCH   8  11
ENDBRANCH   7   8
ENDBRANCH   5   7
TORSDOF 5
ENDMDL
MODEL      187
REMARK 921   NORMALIZED FREE ENERGY PREDICTED BY IDOCK:   -4.21 KCAL/MOL
REMARK 922        TOTAL FREE ENERGY PREDICTED BY IDOCK:   -6.17 KCAL/MOL
REMARK 923 INTER-LIGAND FREE ENERGY PREDICTED BY IDOCK:   -5.49 KCAL/MOL
REMARK 924 INTRA-LIGAND FREE ENERGY PREDICTED BY IDOCK:   -0.68 KCAL/MOL
REMARK 927      BINDING AFFINITY PREDICTED BY RF-SCORE:    0.00 PKD
ROOT
HETATM    1  C   UNL     1     -12.655  14.278  64.854  1.00  0.00    -0.339 C  
HETATM    2  C   UNL     1     -11.208  14.145  65.364  1.00  0.00    -0.325 C  
HETATM    3  C   UNL     1     -10.462  15.454  65.045  1.00  0.00    -0.411 C  
HETATM    4  C   UNL     1     -10.496  12.993  64.633  1.00  0.00    -0.400 C  
HETATM    5  N   UNL     1     -11.145  13.959  66.825  1.00  0.00    -0.299 NA 
HETATM    6  H   UNL     1     -11.468  14.802  67.300  1.00  0.00     0.000 HD 
ENDROOT
BRANCH   5   7
HETATM    7  C   UNL     1     -11.861  12.786  67.338  1.00  0.00    -0.342 C  
BRANCH   7   8
HETATM    8  C   UNL     1     -11.088  12.112  68.488  1.00  0.00    -0.252 C  
HETATM    9  H   UNL     1     -11.181  12.076  70.457  1.00  0.00     0.000 HD 
HETATM   10  O   UNL     1     -11.658  12.491  69.747  1.00  0.00    -0.277 OA 
BRANCH   8  11
HETATM   11  C   UNL     1     -11.129  10.585  68.327  1.00  0.00    -0.284 C  
BRANCH  11  12
HETATM   12  O   UNL     1     -10.854  10.225  66.957  1.00  0.00    -0.248 OA 
BRANCH  12  13
HETATM   13  C   UNL     1     -10.336   8.960  66.802  1.00  0.00    -0.247 A  
HETATM   14  C   UNL     1     -10.892   7.841  67.434  1.00  0.00    -0.207 A  
HETATM   15  C   UNL     1     -10.372   6.571  67.213  1.00  0.00    -0.283 A  
HETATM   16  C   UNL     1      -9.286   6.406  66.363  1.00  0.00    -0.176 A  
HETATM   17  C   UNL     1      -8.688   7.515  65.748  1.00  0.00    -0.142 A  
HETATM   18  C   UNL     1      -9.182   8.814  66.006  1.00  0.00    -0.282 A  
HETATM   19  C   UNL     1      -8.512  10.027  65.395  1.00  0.00    -0.158 C  
HETATM   20  C   UNL     1      -7.124   9.730  64.813  1.00  0.00    -0.126 C  
HETATM   21  C   UNL     1      -7.143   8.452  63.961  1.00  0.00    -0.087 C  
HETATM   22  O   UNL     1      -6.670  10.835  64.028  1.00  0.00    -0.348 OA 
HETATM   23  H   UNL     1      -5.811  10.651  63.668  1.00  0.00     0.000 HD 
HETATM   24  O   UNL     1      -8.060   8.531  62.860  1.00  0.00    -0.161 OA 
HETATM   25  C   UNL     1      -7.499   7.257  64.845  1.00  0.00    -0.091 C  
HETATM   26  H   UNL     1      -8.071   7.741  62.333  1.00  0.00     0.000 HD 
ENDBRANCH  12  13
ENDBRANCH  11  12
ENDBRANCH   8  11
ENDBRANCH   7   8
ENDBRANCH   5   7
TORSDOF 5
ENDMDL
MODEL      188
REMARK 921   NORMALIZED FREE ENERGY PREDICTED BY IDOCK:   -4.21 KCAL/MOL
REMARK 922        TOTAL FREE ENERGY PREDICTED BY IDOCK:   -6.16 KCAL/MOL
REMARK 923 INTER-LIGAND FREE ENERGY PREDICTED BY IDOCK:   -6.08 KCAL/MOL
REMARK 924 INTRA-LIGAND FREE ENERGY PREDICTED BY IDOCK:   -0.09 KCAL/MOL
REMARK 927      BINDING AFFINITY PREDICTED BY RF-SCORE:    0.00 PKD
ROOT
HETATM    1  C   UNL     1     -12.418  12.752  65.651  1.00  0.00    -0.341 C  
HETATM    2  C   UNL     1     -11.554  13.313  64.506  1.00  0.00    -0.369 C  
HETATM    3  C   UNL     1     -11.591  14.851  64.582  1.00  0.00    -0.395 C  
HETATM    4  C   UNL     1     -12.136  12.882  63.148  1.00  0.00    -0.351 C  
HETATM    5  N   UNL     1     -10.140  12.910  64.624  1.00  0.00    -0.544 NA 
HETATM    6  H   UNL     1      -9.720  13.342  65.447  1.00  0.00     0.000 HD 
ENDROOT
BRANCH   5   7
HETATM    7  C   UNL     1      -9.901  11.462  64.636  1.00  0.00    -0.259 C  
BRANCH   7   8
HETATM    8  C   UNL     1      -9.052  11.042  65.851  1.00  0.00    -0.197 C  
HETATM    9  H   UNL     1      -7.425   9.977  66.171  1.00  0.00     0.000 HD 
HETATM   10  O   UNL     1      -7.949  10.235  65.421  1.00  0.00    -0.140 OA 
BRANCH   8  11
HETATM   11  C   UNL     1      -8.540  12.287  66.592  1.00  0.00    -0.099 C  
BRANCH  11  12
HETATM   12  O   UNL     1      -8.168  11.941  67.942  1.00  0.00    -0.133 OA 
BRANCH  12  13
HETATM   13  C   UNL     1      -9.154  11.292  68.649  1.00  0.00    -0.151 A  
HETATM   14  C   UNL     1      -9.059   9.938  68.992  1.00  0.00    -0.164 A  
HETATM   15  C   UNL     1     -10.051   9.328  69.750  1.00  0.00    -0.218 A  
HETATM   16  C   UNL     1     -11.153  10.064  70.169  1.00  0.00    -0.371 A  
HETATM   17  C   UNL     1     -11.290  11.410  69.806  1.00  0.00    -0.332 A  
HETATM   18  C   UNL     1     -10.307  12.024  68.994  1.00  0.00    -0.042 A  
HETATM   19  C   UNL     1     -10.468  13.462  68.547  1.00  0.00    -0.260 C  
HETATM   20  C   UNL     1     -11.885  14.011  68.752  1.00  0.00    -0.361 C  
HETATM   21  C   UNL     1     -12.418  13.662  70.150  1.00  0.00    -0.239 C  
HETATM   22  O   UNL     1     -11.899  15.427  68.562  1.00  0.00    -0.442 OA 
HETATM   23  H   UNL     1     -12.777  15.767  68.688  1.00  0.00     0.000 HD 
HETATM   24  O   UNL     1     -11.599  14.189  71.203  1.00  0.00    -0.504 OA 
HETATM   25  C   UNL     1     -12.525  12.143  70.288  1.00  0.00    -0.164 C  
HETATM   26  H   UNL     1     -11.929  13.974  72.068  1.00  0.00     0.000 HD 
ENDBRANCH  12  13
ENDBRANCH  11  12
ENDBRANCH   8  11
ENDBRANCH   7   8
ENDBRANCH   5   7
TORSDOF 5
ENDMDL
MODEL      189
REMARK 921   NORMALIZED FREE ENERGY PREDICTED BY IDOCK:   -4.20 KCAL/MOL
REMARK 922        TOTAL FREE ENERGY PREDICTED BY IDOCK:   -6.15 KCAL/MOL
REMARK 923 INTER-LIGAND FREE ENERGY PREDICTED BY IDOCK:   -5.66 KCAL/MOL
REMARK 924 INTRA-LIGAND FREE ENERGY PREDICTED BY IDOCK:   -0.49 KCAL/MOL
REMARK 927      BINDING AFFINITY PREDICTED BY RF-SCORE:    0.00 PKD
ROOT
HETATM    1  C   UNL     1     -11.468  15.227  72.364  1.00  0.00    -0.460 C  
HETATM    2  C   UNL     1     -12.619  14.400  71.763  1.00  0.00    -0.351 C  
HETATM    3  C   UNL     1     -13.882  15.281  71.731  1.00  0.00    -0.622 C  
HETATM    4  C   UNL     1     -12.906  13.175  72.650  1.00  0.00     0.108 C  
HETATM    5  N   UNL     1     -12.346  13.990  70.373  1.00  0.00    -0.342 NA 
HETATM    6  H   UNL     1     -12.323  14.807  69.765  1.00  0.00     0.000 HD 
ENDROOT
BRANCH   5   7
HETATM    7  C   UNL     1     -11.132  13.187  70.185  1.00  0.00     0.587 C  
BRANCH   7   8
HETATM    8  C   UNL     1     -11.391  11.984  69.258  1.00  0.00    -0.268 C  
HETATM    9  H   UNL     1     -12.637  10.458  69.193  1.00  0.00     0.000 HD 
HETATM   10  O   UNL     1     -12.478  11.200  69.766  1.00  0.00    -0.263 OA 
BRANCH   8  11
HETATM   11  C   UNL     1     -11.711  12.474  67.837  1.00  0.00    -0.359 C  
BRANCH  11  12
HETATM   12  O   UNL     1     -11.867  11.348  66.949  1.00  0.00    -0.489 OA 
BRANCH  12  13
HETATM   13  C   UNL     1     -11.375  11.559  65.682  1.00  0.00    -0.085 A  
HETATM   14  C   UNL     1     -11.971  12.457  64.788  1.00  0.00    -0.462 A  
HETATM   15  C   UNL     1     -11.416  12.681  63.534  1.00  0.00    -0.557 A  
HETATM   16  C   UNL     1     -10.262  12.006  63.156  1.00  0.00    -0.275 A  
HETATM   17  C   UNL     1      -9.668  11.074  64.018  1.00  0.00    -0.333 A  
HETATM   18  C   UNL     1     -10.255  10.806  65.277  1.00  0.00    -0.351 A  
HETATM   19  C   UNL     1      -9.658   9.761  66.196  1.00  0.00    -0.287 C  
HETATM   20  C   UNL     1      -8.645   8.842  65.502  1.00  0.00    -0.174 C  
HETATM   21  C   UNL     1      -7.658   9.651  64.647  1.00  0.00    -0.126 C  
HETATM   22  O   UNL     1      -7.935   8.067  66.470  1.00  0.00    -0.098 OA 
HETATM   23  H   UNL     1      -7.308   7.498  66.039  1.00  0.00     0.000 HD 
HETATM   24  O   UNL     1      -6.912  10.605  65.415  1.00  0.00    -0.283 OA 
HETATM   25  C   UNL     1      -8.420  10.367  63.532  1.00  0.00    -0.171 C  
HETATM   26  H   UNL     1      -6.301  11.106  64.887  1.00  0.00     0.000 HD 
ENDBRANCH  12  13
ENDBRANCH  11  12
ENDBRANCH   8  11
ENDBRANCH   7   8
ENDBRANCH   5   7
TORSDOF 5
ENDMDL
MODEL      190
REMARK 921   NORMALIZED FREE ENERGY PREDICTED BY IDOCK:   -4.19 KCAL/MOL
REMARK 922        TOTAL FREE ENERGY PREDICTED BY IDOCK:   -6.14 KCAL/MOL
REMARK 923 INTER-LIGAND FREE ENERGY PREDICTED BY IDOCK:   -6.04 KCAL/MOL
REMARK 924 INTRA-LIGAND FREE ENERGY PREDICTED BY IDOCK:   -0.10 KCAL/MOL
REMARK 927      BINDING AFFINITY PREDICTED BY RF-SCORE:    0.00 PKD
ROOT
HETATM    1  C   UNL     1      -8.451   7.139  68.160  1.00  0.00    -0.123 C  
HETATM    2  C   UNL     1      -9.476   7.406  69.277  1.00  0.00    -0.154 C  
HETATM    3  C   UNL     1      -8.745   7.335  70.631  1.00  0.00    -0.147 C  
HETATM    4  C   UNL     1     -10.567   6.320  69.261  1.00  0.00    -0.332 C  
HETATM    5  N   UNL     1     -10.072   8.751  69.180  1.00  0.00    -0.192 NA 
HETATM    6  H   UNL     1      -9.363   9.462  69.360  1.00  0.00     0.000 HD 
ENDROOT
BRANCH   5   7
HETATM    7  C   UNL     1     -10.766   9.038  67.920  1.00  0.00    -0.138 C  
BRANCH   7   8
HETATM    8  C   UNL     1     -11.237  10.504  67.858  1.00  0.00    -0.289 C  
HETATM    9  H   UNL     1     -12.379  11.696  68.936  1.00  0.00     0.000 HD 
HETATM   10  O   UNL     1     -12.089  10.791  68.974  1.00  0.00    -0.380 OA 
BRANCH   8  11
HETATM   11  C   UNL     1     -10.024  11.447  67.861  1.00  0.00    -0.177 C  
BRANCH  11  12
HETATM   12  O   UNL     1      -9.468  11.543  66.533  1.00  0.00    -0.193 OA 
BRANCH  12  13
HETATM   13  C   UNL     1     -10.217  12.303  65.664  1.00  0.00    -0.261 A  
HETATM   14  C   UNL     1     -11.105  11.731  64.746  1.00  0.00    -0.356 A  
HETATM   15  C   UNL     1     -11.882  12.533  63.918  1.00  0.00    -0.544 A  
HETATM   16  C   UNL     1     -11.775  13.916  63.994  1.00  0.00    -0.319 A  
HETATM   17  C   UNL     1     -10.865  14.512  64.878  1.00  0.00    -0.436 A  
HETATM   18  C   UNL     1     -10.038  13.700  65.689  1.00  0.00    -0.299 A  
HETATM   19  C   UNL     1      -9.010  14.328  66.609  1.00  0.00    -0.212 C  
HETATM   20  C   UNL     1      -8.740  15.806  66.305  1.00  0.00    -0.323 C  
HETATM   21  C   UNL     1     -10.052  16.581  66.111  1.00  0.00    -0.348 C  
HETATM   22  O   UNL     1      -7.974  16.395  67.359  1.00  0.00    -0.143 OA 
HETATM   23  H   UNL     1      -7.807  17.311  67.171  1.00  0.00     0.000 HD 
HETATM   24  O   UNL     1     -10.903  16.530  67.265  1.00  0.00    -0.280 OA 
HETATM   25  C   UNL     1     -10.795  16.025  64.896  1.00  0.00    -0.391 C  
HETATM   26  H   UNL     1     -11.715  17.009  67.145  1.00  0.00     0.000 HD 
ENDBRANCH  12  13
ENDBRANCH  11  12
ENDBRANCH   8  11
ENDBRANCH   7   8
ENDBRANCH   5   7
TORSDOF 5
ENDMDL
MODEL      191
REMARK 921   NORMALIZED FREE ENERGY PREDICTED BY IDOCK:   -4.17 KCAL/MOL
REMARK 922        TOTAL FREE ENERGY PREDICTED BY IDOCK:   -6.12 KCAL/MOL
REMARK 923 INTER-LIGAND FREE ENERGY PREDICTED BY IDOCK:   -5.73 KCAL/MOL
REMARK 924 INTRA-LIGAND FREE ENERGY PREDICTED BY IDOCK:   -0.39 KCAL/MOL
REMARK 927      BINDING AFFINITY PREDICTED BY RF-SCORE:    0.00 PKD
ROOT
HETATM    1  C   UNL     1      -8.157   5.117  67.328  1.00  0.00    -0.104 C  
HETATM    2  C   UNL     1      -9.092   5.667  66.235  1.00  0.00    -0.148 C  
HETATM    3  C   UNL     1      -9.970   4.510  65.724  1.00  0.00    -0.253 C  
HETATM    4  C   UNL     1      -8.263   6.203  65.054  1.00  0.00    -0.132 C  
HETATM    5  N   UNL     1     -10.004   6.704  66.751  1.00  0.00    -0.218 NA 
HETATM    6  H   UNL     1     -10.661   6.295  67.415  1.00  0.00     0.000 HD 
ENDROOT
BRANCH   5   7
HETATM    7  C   UNL     1      -9.349   7.875  67.346  1.00  0.00    -0.141 C  
BRANCH   7   8
HETATM    8  C   UNL     1     -10.244   8.543  68.407  1.00  0.00    -0.203 C  
HETATM    9  H   UNL     1     -10.020   9.282  70.220  1.00  0.00     0.000 HD 
HETATM   10  O   UNL     1      -9.467   8.870  69.566  1.00  0.00    -0.155 OA 
BRANCH   8  11
HETATM   11  C   UNL     1     -10.890   9.810  67.828  1.00  0.00    -0.246 C  
BRANCH  11  12
HETATM   12  O   UNL     1     -10.083  10.330  66.751  1.00  0.00    -0.199 OA 
BRANCH  12  13
HETATM   13  C   UNL     1      -9.456  11.519  67.041  1.00  0.00    -0.183 A  
HETATM   14  C   UNL     1      -8.204  11.571  67.667  1.00  0.00    -0.131 A  
HETATM   15  C   UNL     1      -7.578  12.790  67.899  1.00  0.00    -0.138 A  
HETATM   16  C   UNL     1      -8.199  13.971  67.513  1.00  0.00    -0.195 A  
HETATM   17  C   UNL     1      -9.468  13.948  66.920  1.00  0.00    -0.263 A  
HETATM   18  C   UNL     1     -10.131  12.714  66.725  1.00  0.00    -0.243 A  
HETATM   19  C   UNL     1     -11.527  12.677  66.137  1.00  0.00    -0.413 C  
HETATM   20  C   UNL     1     -12.223  14.043  66.126  1.00  0.00    -0.465 C  
HETATM   21  C   UNL     1     -11.284  15.139  65.599  1.00  0.00    -0.296 C  
HETATM   22  O   UNL     1     -13.408  13.988  65.329  1.00  0.00    -0.741 OA 
HETATM   23  H   UNL     1     -13.839  14.834  65.322  1.00  0.00     0.000 HD 
HETATM   24  O   UNL     1     -10.826  14.882  64.264  1.00  0.00    -0.580 OA 
HETATM   25  C   UNL     1     -10.087  15.277  66.540  1.00  0.00    -0.280 C  
HETATM   26  H   UNL     1     -10.245  15.560  63.938  1.00  0.00     0.000 HD 
ENDBRANCH  12  13
ENDBRANCH  11  12
ENDBRANCH   8  11
ENDBRANCH   7   8
ENDBRANCH   5   7
TORSDOF 5
ENDMDL
MODEL      192
REMARK 921   NORMALIZED FREE ENERGY PREDICTED BY IDOCK:   -4.15 KCAL/MOL
REMARK 922        TOTAL FREE ENERGY PREDICTED BY IDOCK:   -6.09 KCAL/MOL
REMARK 923 INTER-LIGAND FREE ENERGY PREDICTED BY IDOCK:   -5.42 KCAL/MOL
REMARK 924 INTRA-LIGAND FREE ENERGY PREDICTED BY IDOCK:   -0.68 KCAL/MOL
REMARK 927      BINDING AFFINITY PREDICTED BY RF-SCORE:    0.00 PKD
ROOT
HETATM    1  C   UNL     1     -11.613  11.896  65.628  1.00  0.00    -0.275 C  
HETATM    2  C   UNL     1     -11.413  12.425  64.196  1.00  0.00    -0.381 C  
HETATM    3  C   UNL     1     -12.670  12.084  63.374  1.00  0.00    -0.527 C  
HETATM    4  C   UNL     1     -10.204  11.731  63.542  1.00  0.00    -0.483 C  
HETATM    5  N   UNL     1     -11.260  13.892  64.159  1.00  0.00    -0.598 NA 
HETATM    6  H   UNL     1     -12.131  14.342  64.439  1.00  0.00     0.000 HD 
ENDROOT
BRANCH   5   7
HETATM    7  C   UNL     1     -10.141  14.424  64.945  1.00  0.00    -0.218 C  
BRANCH   7   8
HETATM    8  C   UNL     1     -10.599  15.562  65.876  1.00  0.00    -0.339 C  
HETATM    9  H   UNL     1     -11.663  15.730  67.528  1.00  0.00     0.000 HD 
HETATM   10  O   UNL     1     -11.380  15.028  66.953  1.00  0.00    -0.341 OA 
BRANCH   8  11
HETATM   11  C   UNL     1      -9.379  16.313  66.430  1.00  0.00    -0.292 C  
BRANCH  11  12
HETATM   12  O   UNL     1      -8.216  15.461  66.394  1.00  0.00    -0.172 OA 
BRANCH  12  13
HETATM   13  C   UNL     1      -7.481  15.462  67.558  1.00  0.00    -0.189 A  
HETATM   14  C   UNL     1      -7.206  16.638  68.267  1.00  0.00    -0.169 A  
HETATM   15  C   UNL     1      -6.504  16.595  69.465  1.00  0.00    -0.224 A  
HETATM   16  C   UNL     1      -6.064  15.376  69.966  1.00  0.00    -0.146 A  
HETATM   17  C   UNL     1      -6.294  14.189  69.257  1.00  0.00    -0.112 A  
HETATM   18  C   UNL     1      -6.966  14.233  68.012  1.00  0.00    -0.149 A  
HETATM   19  C   UNL     1      -7.173  12.967  67.207  1.00  0.00    -0.075 C  
HETATM   20  C   UNL     1      -6.312  11.791  67.683  1.00  0.00    -0.082 C  
HETATM   21  C   UNL     1      -6.365  11.649  69.212  1.00  0.00    -0.098 C  
HETATM   22  O   UNL     1      -6.744  10.578  67.063  1.00  0.00    -0.076 OA 
HETATM   23  H   UNL     1      -6.211   9.850  67.358  1.00  0.00     0.000 HD 
HETATM   24  O   UNL     1      -7.695  11.431  69.703  1.00  0.00    -0.351 OA 
HETATM   25  C   UNL     1      -5.773  12.901  69.859  1.00  0.00    -0.122 C  
HETATM   26  H   UNL     1      -7.728  11.343  70.649  1.00  0.00     0.000 HD 
ENDBRANCH  12  13
ENDBRANCH  11  12
ENDBRANCH   8  11
ENDBRANCH   7   8
ENDBRANCH   5   7
TORSDOF 5
ENDMDL
MODEL      193
REMARK 921   NORMALIZED FREE ENERGY PREDICTED BY IDOCK:   -4.15 KCAL/MOL
REMARK 922        TOTAL FREE ENERGY PREDICTED BY IDOCK:   -6.08 KCAL/MOL
REMARK 923 INTER-LIGAND FREE ENERGY PREDICTED BY IDOCK:   -5.26 KCAL/MOL
REMARK 924 INTRA-LIGAND FREE ENERGY PREDICTED BY IDOCK:   -0.83 KCAL/MOL
REMARK 927      BINDING AFFINITY PREDICTED BY RF-SCORE:    0.00 PKD
ROOT
HETATM    1  C   UNL     1     -14.140   8.029  71.404  1.00  0.00    -0.413 C  
HETATM    2  C   UNL     1     -12.989   8.963  71.824  1.00  0.00    -0.367 C  
HETATM    3  C   UNL     1     -13.598  10.287  72.321  1.00  0.00    -0.165 C  
HETATM    4  C   UNL     1     -12.091   9.269  70.612  1.00  0.00    -0.154 C  
HETATM    5  N   UNL     1     -12.198   8.408  72.938  1.00  0.00    -0.561 NA 
HETATM    6  H   UNL     1     -12.765   8.366  73.784  1.00  0.00     0.000 HD 
ENDROOT
BRANCH   5   7
HETATM    7  C   UNL     1     -11.582   7.102  72.678  1.00  0.00    -0.188 C  
BRANCH   7   8
HETATM    8  C   UNL     1     -10.328   6.888  73.548  1.00  0.00    -0.338 C  
HETATM    9  H   UNL     1      -9.675   5.532  74.822  1.00  0.00     0.000 HD 
HETATM   10  O   UNL     1     -10.449   5.665  74.286  1.00  0.00    -0.274 OA 
BRANCH   8  11
HETATM   11  C   UNL     1      -9.073   6.850  72.663  1.00  0.00    -0.134 C  
BRANCH  11  12
HETATM   12  O   UNL     1      -9.450   6.806  71.271  1.00  0.00    -0.165 OA 
BRANCH  12  13
HETATM   13  C   UNL     1      -8.907   7.814  70.508  1.00  0.00    -0.145 A  
HETATM   14  C   UNL     1      -8.115   8.826  71.063  1.00  0.00    -0.186 A  
HETATM   15  C   UNL     1      -7.542   9.801  70.255  1.00  0.00    -0.184 A  
HETATM   16  C   UNL     1      -7.759   9.777  68.882  1.00  0.00    -0.082 A  
HETATM   17  C   UNL     1      -8.579   8.796  68.308  1.00  0.00    -0.134 A  
HETATM   18  C   UNL     1      -9.204   7.831  69.132  1.00  0.00    -0.144 A  
HETATM   19  C   UNL     1     -10.138   6.799  68.533  1.00  0.00    -0.166 C  
HETATM   20  C   UNL     1     -10.579   7.131  67.102  1.00  0.00    -0.347 C  
HETATM   21  C   UNL     1      -9.383   7.559  66.239  1.00  0.00    -0.120 C  
HETATM   22  O   UNL     1     -11.232   6.004  66.513  1.00  0.00    -0.741 OA 
HETATM   23  H   UNL     1     -11.505   6.210  65.626  1.00  0.00     0.000 HD 
HETATM   24  O   UNL     1      -8.372   6.545  66.149  1.00  0.00    -0.117 OA 
HETATM   25  C   UNL     1      -8.780   8.843  66.807  1.00  0.00    -0.130 C  
HETATM   26  H   UNL     1      -7.632   6.809  65.615  1.00  0.00     0.000 HD 
ENDBRANCH  12  13
ENDBRANCH  11  12
ENDBRANCH   8  11
ENDBRANCH   7   8
ENDBRANCH   5   7
TORSDOF 5
ENDMDL
MODEL      194
REMARK 921   NORMALIZED FREE ENERGY PREDICTED BY IDOCK:   -4.14 KCAL/MOL
REMARK 922        TOTAL FREE ENERGY PREDICTED BY IDOCK:   -6.07 KCAL/MOL
REMARK 923 INTER-LIGAND FREE ENERGY PREDICTED BY IDOCK:   -5.51 KCAL/MOL
REMARK 924 INTRA-LIGAND FREE ENERGY PREDICTED BY IDOCK:   -0.57 KCAL/MOL
REMARK 927      BINDING AFFINITY PREDICTED BY RF-SCORE:    0.00 PKD
ROOT
HETATM    1  C   UNL     1     -10.609   9.703  67.875  1.00  0.00    -0.308 C  
HETATM    2  C   UNL     1     -10.688   9.922  69.397  1.00  0.00    -0.232 C  
HETATM    3  C   UNL     1     -11.195  11.353  69.654  1.00  0.00    -0.301 C  
HETATM    4  C   UNL     1      -9.288   9.786  70.022  1.00  0.00    -0.274 C  
HETATM    5  N   UNL     1     -11.644   9.004  70.044  1.00  0.00    -0.453 NA 
HETATM    6  H   UNL     1     -12.594   9.218  69.743  1.00  0.00     0.000 HD 
ENDROOT
BRANCH   5   7
HETATM    7  C   UNL     1     -11.365   7.576  69.857  1.00  0.00    -0.037 C  
BRANCH   7   8
HETATM    8  C   UNL     1     -11.180   6.857  71.207  1.00  0.00    -0.268 C  
HETATM    9  H   UNL     1     -12.224   6.611  72.861  1.00  0.00     0.000 HD 
HETATM   10  O   UNL     1     -12.338   7.055  72.028  1.00  0.00    -0.310 OA 
BRANCH   8  11
HETATM   11  C   UNL     1     -10.946   5.356  70.976  1.00  0.00    -0.050 C  
BRANCH  11  12
HETATM   12  O   UNL     1      -9.603   5.132  70.501  1.00  0.00    -0.158 OA 
BRANCH  12  13
HETATM   13  C   UNL     1      -9.462   4.008  69.720  1.00  0.00    -0.195 A  
HETATM   14  C   UNL     1      -9.333   2.728  70.270  1.00  0.00    -0.210 A  
HETATM   15  C   UNL     1      -9.243   1.610  69.449  1.00  0.00    -0.170 A  
HETATM   16  C   UNL     1      -9.277   1.760  68.068  1.00  0.00    -0.223 A  
HETATM   17  C   UNL     1      -9.368   3.035  67.493  1.00  0.00    -0.229 A  
HETATM   18  C   UNL     1      -9.410   4.180  68.323  1.00  0.00    -0.214 A  
HETATM   19  C   UNL     1      -9.452   5.567  67.716  1.00  0.00    -0.125 C  
HETATM   20  C   UNL     1      -9.095   5.594  66.225  1.00  0.00    -0.148 C  
HETATM   21  C   UNL     1      -9.834   4.486  65.459  1.00  0.00    -0.208 C  
HETATM   22  O   UNL     1      -9.408   6.870  65.664  1.00  0.00    -0.382 OA 
HETATM   23  H   UNL     1      -9.187   6.886  64.740  1.00  0.00     0.000 HD 
HETATM   24  O   UNL     1     -11.260   4.599  65.558  1.00  0.00    -0.909 OA 
HETATM   25  C   UNL     1      -9.385   3.121  65.981  1.00  0.00    -0.104 C  
HETATM   26  H   UNL     1     -11.718   3.914  65.085  1.00  0.00     0.000 HD 
ENDBRANCH  12  13
ENDBRANCH  11  12
ENDBRANCH   8  11
ENDBRANCH   7   8
ENDBRANCH   5   7
TORSDOF 5
ENDMDL
MODEL      195
REMARK 921   NORMALIZED FREE ENERGY PREDICTED BY IDOCK:   -4.13 KCAL/MOL
REMARK 922        TOTAL FREE ENERGY PREDICTED BY IDOCK:   -6.07 KCAL/MOL
REMARK 923 INTER-LIGAND FREE ENERGY PREDICTED BY IDOCK:   -5.36 KCAL/MOL
REMARK 924 INTRA-LIGAND FREE ENERGY PREDICTED BY IDOCK:   -0.71 KCAL/MOL
REMARK 927      BINDING AFFINITY PREDICTED BY RF-SCORE:    0.00 PKD
ROOT
HETATM    1  C   UNL     1     -12.779  14.402  65.763  1.00  0.00    -0.267 C  
HETATM    2  C   UNL     1     -11.355  14.953  65.560  1.00  0.00    -0.339 C  
HETATM    3  C   UNL     1     -11.381  15.928  64.368  1.00  0.00    -0.276 C  
HETATM    4  C   UNL     1     -10.389  13.803  65.223  1.00  0.00    -0.378 C  
HETATM    5  N   UNL     1     -10.878  15.715  66.728  1.00  0.00    -0.307 NA 
HETATM    6  H   UNL     1     -11.429  16.566  66.840  1.00  0.00     0.000 HD 
ENDROOT
BRANCH   5   7
HETATM    7  C   UNL     1     -10.844  14.968  67.991  1.00  0.00    -0.270 C  
BRANCH   7   8
HETATM    8  C   UNL     1      -9.880  15.616  69.002  1.00  0.00    -0.236 C  
HETATM    9  H   UNL     1      -9.856  15.976  70.941  1.00  0.00     0.000 HD 
HETATM   10  O   UNL     1     -10.451  15.576  70.317  1.00  0.00    -0.310 OA 
BRANCH   8  11
HETATM   11  C   UNL     1      -8.531  14.883  68.989  1.00  0.00    -0.178 C  
BRANCH  11  12
HETATM   12  O   UNL     1      -8.478  13.964  67.878  1.00  0.00    -0.153 OA 
BRANCH  12  13
HETATM   13  C   UNL     1      -7.870  12.764  68.169  1.00  0.00    -0.146 A  
HETATM   14  C   UNL     1      -6.478  12.612  68.167  1.00  0.00    -0.080 A  
HETATM   15  C   UNL     1      -5.898  11.398  68.514  1.00  0.00    -0.042 A  
HETATM   16  C   UNL     1      -6.703  10.320  68.862  1.00  0.00    -0.057 A  
HETATM   17  C   UNL     1      -8.100  10.436  68.835  1.00  0.00    -0.129 A  
HETATM   18  C   UNL     1      -8.696  11.655  68.436  1.00  0.00    -0.158 A  
HETATM   19  C   UNL     1     -10.203  11.780  68.347  1.00  0.00    -0.208 C  
HETATM   20  C   UNL     1     -10.932  10.430  68.379  1.00  0.00    -0.264 C  
HETATM   21  C   UNL     1     -10.380   9.529  69.495  1.00  0.00    -0.217 C  
HETATM   22  O   UNL     1     -12.335  10.630  68.558  1.00  0.00    -0.814 OA 
HETATM   23  H   UNL     1     -12.786   9.794  68.578  1.00  0.00     0.000 HD 
HETATM   24  O   UNL     1     -10.512  10.116  70.797  1.00  0.00    -0.382 OA 
HETATM   25  C   UNL     1      -8.911   9.215  69.214  1.00  0.00    -0.145 C  
HETATM   26  H   UNL     1     -10.171   9.559  71.487  1.00  0.00     0.000 HD 
ENDBRANCH  12  13
ENDBRANCH  11  12
ENDBRANCH   8  11
ENDBRANCH   7   8
ENDBRANCH   5   7
TORSDOF 5
ENDMDL
MODEL      196
REMARK 921   NORMALIZED FREE ENERGY PREDICTED BY IDOCK:   -4.12 KCAL/MOL
REMARK 922        TOTAL FREE ENERGY PREDICTED BY IDOCK:   -6.05 KCAL/MOL
REMARK 923 INTER-LIGAND FREE ENERGY PREDICTED BY IDOCK:   -5.42 KCAL/MOL
REMARK 924 INTRA-LIGAND FREE ENERGY PREDICTED BY IDOCK:   -0.63 KCAL/MOL
REMARK 927      BINDING AFFINITY PREDICTED BY RF-SCORE:    0.00 PKD
ROOT
HETATM    1  C   UNL     1     -12.053  15.908  71.743  1.00  0.00    -0.567 C  
HETATM    2  C   UNL     1     -12.906  14.710  71.286  1.00  0.00    -0.335 C  
HETATM    3  C   UNL     1     -14.391  15.095  71.422  1.00  0.00    -0.601 C  
HETATM    4  C   UNL     1     -12.636  13.496  72.192  1.00  0.00    -0.117 C  
HETATM    5  N   UNL     1     -12.678  14.370  69.870  1.00  0.00    -0.515 NA 
HETATM    6  H   UNL     1     -13.017  15.122  69.270  1.00  0.00     0.000 HD 
ENDROOT
BRANCH   5   7
HETATM    7  C   UNL     1     -11.292  14.033  69.522  1.00  0.00    -0.245 C  
BRANCH   7   8
HETATM    8  C   UNL     1     -11.217  12.725  68.713  1.00  0.00    -0.283 C  
HETATM    9  H   UNL     1     -12.427  11.232  68.276  1.00  0.00     0.000 HD 
HETATM   10  O   UNL     1     -12.474  12.039  68.775  1.00  0.00    -0.085 OA 
BRANCH   8  11
HETATM   11  C   UNL     1     -10.853  13.030  67.252  1.00  0.00    -0.252 C  
BRANCH  11  12
HETATM   12  O   UNL     1     -10.406  11.827  66.592  1.00  0.00    -0.209 OA 
BRANCH  12  13
HETATM   13  C   UNL     1      -9.195  11.354  67.042  1.00  0.00    -0.169 A  
HETATM   14  C   UNL     1      -8.045  12.153  67.068  1.00  0.00    -0.154 A  
HETATM   15  C   UNL     1      -6.850  11.658  67.577  1.00  0.00    -0.104 A  
HETATM   16  C   UNL     1      -6.790  10.356  68.059  1.00  0.00    -0.069 A  
HETATM   17  C   UNL     1      -7.917   9.525  68.009  1.00  0.00    -0.091 A  
HETATM   18  C   UNL     1      -9.123  10.008  67.449  1.00  0.00    -0.146 A  
HETATM   19  C   UNL     1     -10.333   9.104  67.336  1.00  0.00    -0.330 C  
HETATM   20  C   UNL     1     -10.009   7.619  67.540  1.00  0.00    -0.178 C  
HETATM   21  C   UNL     1      -9.109   7.413  68.769  1.00  0.00    -0.131 C  
HETATM   22  O   UNL     1     -11.215   6.865  67.684  1.00  0.00    -0.548 OA 
HETATM   23  H   UNL     1     -11.014   5.945  67.811  1.00  0.00     0.000 HD 
HETATM   24  O   UNL     1      -9.708   7.891  69.981  1.00  0.00    -0.178 OA 
HETATM   25  C   UNL     1      -7.771   8.114  68.541  1.00  0.00    -0.112 C  
HETATM   26  H   UNL     1      -9.152   7.763  70.741  1.00  0.00     0.000 HD 
ENDBRANCH  12  13
ENDBRANCH  11  12
ENDBRANCH   8  11
ENDBRANCH   7   8
ENDBRANCH   5   7
TORSDOF 5
ENDMDL
MODEL      197
REMARK 921   NORMALIZED FREE ENERGY PREDICTED BY IDOCK:   -4.12 KCAL/MOL
REMARK 922        TOTAL FREE ENERGY PREDICTED BY IDOCK:   -6.05 KCAL/MOL
REMARK 923 INTER-LIGAND FREE ENERGY PREDICTED BY IDOCK:   -5.37 KCAL/MOL
REMARK 924 INTRA-LIGAND FREE ENERGY PREDICTED BY IDOCK:   -0.68 KCAL/MOL
REMARK 927      BINDING AFFINITY PREDICTED BY RF-SCORE:    0.00 PKD
ROOT
HETATM    1  C   UNL     1      -5.922   8.252  67.670  1.00  0.00    -0.047 C  
HETATM    2  C   UNL     1      -6.655   7.471  68.776  1.00  0.00    -0.049 C  
HETATM    3  C   UNL     1      -6.018   7.838  70.129  1.00  0.00    -0.023 C  
HETATM    4  C   UNL     1      -6.482   5.957  68.555  1.00  0.00    -0.046 C  
HETATM    5  N   UNL     1      -8.083   7.829  68.861  1.00  0.00    -0.124 NA 
HETATM    6  H   UNL     1      -8.183   8.795  69.172  1.00  0.00     0.000 HD 
ENDROOT
BRANCH   5   7
HETATM    7  C   UNL     1      -8.857   7.611  67.634  1.00  0.00    -0.125 C  
BRANCH   7   8
HETATM    8  C   UNL     1     -10.336   7.995  67.825  1.00  0.00    -0.231 C  
HETATM    9  H   UNL     1     -11.538   8.381  69.340  1.00  0.00     0.000 HD 
HETATM   10  O   UNL     1     -10.625   8.143  69.222  1.00  0.00    -0.222 OA 
BRANCH   8  11
HETATM   11  C   UNL     1     -10.642   9.303  67.080  1.00  0.00    -0.216 C  
BRANCH  11  12
HETATM   12  O   UNL     1     -10.853  10.373  68.025  1.00  0.00    -0.228 OA 
BRANCH  12  13
HETATM   13  C   UNL     1      -9.929  11.390  67.940  1.00  0.00    -0.177 A  
HETATM   14  C   UNL     1      -8.684  11.323  68.576  1.00  0.00    -0.156 A  
HETATM   15  C   UNL     1      -7.756  12.347  68.426  1.00  0.00    -0.144 A  
HETATM   16  C   UNL     1      -8.066  13.452  67.642  1.00  0.00    -0.175 A  
HETATM   17  C   UNL     1      -9.320  13.560  67.026  1.00  0.00    -0.247 A  
HETATM   18  C   UNL     1     -10.285  12.543  67.214  1.00  0.00    -0.222 A  
HETATM   19  C   UNL     1     -11.665  12.671  66.601  1.00  0.00    -0.464 C  
HETATM   20  C   UNL     1     -11.985  14.087  66.107  1.00  0.00    -0.420 C  
HETATM   21  C   UNL     1     -10.816  14.669  65.297  1.00  0.00    -0.377 C  
HETATM   22  O   UNL     1     -13.174  14.077  65.313  1.00  0.00    -0.782 OA 
HETATM   23  H   UNL     1     -13.372  14.954  65.007  1.00  0.00     0.000 HD 
HETATM   24  O   UNL     1     -10.490  13.877  64.146  1.00  0.00    -0.555 OA 
HETATM   25  C   UNL     1      -9.589  14.800  66.199  1.00  0.00    -0.338 C  
HETATM   26  H   UNL     1      -9.768  14.237  63.645  1.00  0.00     0.000 HD 
ENDBRANCH  12  13
ENDBRANCH  11  12
ENDBRANCH   8  11
ENDBRANCH   7   8
ENDBRANCH   5   7
TORSDOF 5
ENDMDL
MODEL      198
REMARK 921   NORMALIZED FREE ENERGY PREDICTED BY IDOCK:   -4.11 KCAL/MOL
REMARK 922        TOTAL FREE ENERGY PREDICTED BY IDOCK:   -6.04 KCAL/MOL
REMARK 923 INTER-LIGAND FREE ENERGY PREDICTED BY IDOCK:   -5.43 KCAL/MOL
REMARK 924 INTRA-LIGAND FREE ENERGY PREDICTED BY IDOCK:   -0.61 KCAL/MOL
REMARK 927      BINDING AFFINITY PREDICTED BY RF-SCORE:    0.00 PKD
ROOT
HETATM    1  C   UNL     1      -9.180  20.202  68.130  1.00  0.00    -0.259 C  
HETATM    2  C   UNL     1      -9.691  19.088  67.198  1.00  0.00    -0.320 C  
HETATM    3  C   UNL     1     -10.194  19.740  65.897  1.00  0.00    -0.556 C  
HETATM    4  C   UNL     1     -10.871  18.351  67.857  1.00  0.00    -0.234 C  
HETATM    5  N   UNL     1      -8.624  18.142  66.821  1.00  0.00    -0.252 NA 
HETATM    6  H   UNL     1      -7.929  18.612  66.241  1.00  0.00     0.000 HD 
ENDROOT
BRANCH   5   7
HETATM    7  C   UNL     1      -7.968  17.460  67.942  1.00  0.00    -0.218 C  
BRANCH   7   8
HETATM    8  C   UNL     1      -7.461  16.064  67.533  1.00  0.00    -0.160 C  
HETATM    9  H   UNL     1      -6.860  14.425  68.449  1.00  0.00     0.000 HD 
HETATM   10  O   UNL     1      -7.173  15.286  68.702  1.00  0.00    -0.113 OA 
BRANCH   8  11
HETATM   11  C   UNL     1      -8.515  15.353  66.671  1.00  0.00    -0.260 C  
BRANCH  11  12
HETATM   12  O   UNL     1      -8.653  13.980  67.091  1.00  0.00    -0.205 OA 
BRANCH  12  13
HETATM   13  C   UNL     1      -9.845  13.701  67.720  1.00  0.00    -0.232 A  
HETATM   14  C   UNL     1     -10.862  14.654  67.850  1.00  0.00    -0.261 A  
HETATM   15  C   UNL     1     -12.072  14.321  68.446  1.00  0.00    -0.297 A  
HETATM   16  C   UNL     1     -12.277  13.033  68.925  1.00  0.00    -0.072 A  
HETATM   17  C   UNL     1     -11.261  12.072  68.841  1.00  0.00    -0.315 A  
HETATM   18  C   UNL     1     -10.010  12.418  68.279  1.00  0.00    -0.224 A  
HETATM   19  C   UNL     1      -8.883  11.407  68.232  1.00  0.00    -0.167 C  
HETATM   20  C   UNL     1      -9.119  10.186  69.129  1.00  0.00    -0.183 C  
HETATM   21  C   UNL     1     -10.543   9.636  68.953  1.00  0.00    -0.217 C  
HETATM   22  O   UNL     1      -8.160   9.166  68.838  1.00  0.00    -0.097 OA 
HETATM   23  H   UNL     1      -8.306   8.410  69.393  1.00  0.00     0.000 HD 
HETATM   24  O   UNL     1     -10.820   9.236  67.604  1.00  0.00    -0.431 OA 
HETATM   25  C   UNL     1     -11.553  10.694  69.397  1.00  0.00    -0.352 C  
HETATM   26  H   UNL     1     -11.701   8.896  67.495  1.00  0.00     0.000 HD 
ENDBRANCH  12  13
ENDBRANCH  11  12
ENDBRANCH   8  11
ENDBRANCH   7   8
ENDBRANCH   5   7
TORSDOF 5
ENDMDL
MODEL      199
REMARK 921   NORMALIZED FREE ENERGY PREDICTED BY IDOCK:   -4.10 KCAL/MOL
REMARK 922        TOTAL FREE ENERGY PREDICTED BY IDOCK:   -6.03 KCAL/MOL
REMARK 923 INTER-LIGAND FREE ENERGY PREDICTED BY IDOCK:   -5.68 KCAL/MOL
REMARK 924 INTRA-LIGAND FREE ENERGY PREDICTED BY IDOCK:   -0.35 KCAL/MOL
REMARK 927      BINDING AFFINITY PREDICTED BY RF-SCORE:    0.00 PKD
ROOT
HETATM    1  C   UNL     1      -8.902   3.302  65.920  1.00  0.00    -0.137 C  
HETATM    2  C   UNL     1      -9.546   4.296  64.936  1.00  0.00    -0.173 C  
HETATM    3  C   UNL     1     -10.615   3.545  64.121  1.00  0.00    -0.207 C  
HETATM    4  C   UNL     1      -8.484   4.834  63.960  1.00  0.00    -0.132 C  
HETATM    5  N   UNL     1     -10.232   5.403  65.628  1.00  0.00    -0.407 NA 
HETATM    6  H   UNL     1     -11.039   5.048  66.141  1.00  0.00     0.000 HD 
ENDROOT
BRANCH   5   7
HETATM    7  C   UNL     1      -9.384   6.207  66.515  1.00  0.00    -0.153 C  
BRANCH   7   8
HETATM    8  C   UNL     1     -10.191   6.788  67.691  1.00  0.00    -0.179 C  
HETATM    9  H   UNL     1      -9.938   7.025  69.632  1.00  0.00     0.000 HD 
HETATM   10  O   UNL     1      -9.440   6.667  68.906  1.00  0.00    -0.132 OA 
BRANCH   8  11
HETATM   11  C   UNL     1     -10.526   8.263  67.422  1.00  0.00    -0.283 C  
BRANCH  11  12
HETATM   12  O   UNL     1      -9.831   9.108  68.362  1.00  0.00    -0.156 OA 
BRANCH  12  13
HETATM   13  C   UNL     1     -10.645   9.989  69.037  1.00  0.00    -0.214 A  
HETATM   14  C   UNL     1     -11.402   9.604  70.149  1.00  0.00    -0.275 A  
HETATM   15  C   UNL     1     -12.174  10.534  70.836  1.00  0.00    -0.490 A  
HETATM   16  C   UNL     1     -12.203  11.857  70.414  1.00  0.00    -0.399 A  
HETATM   17  C   UNL     1     -11.483  12.259  69.281  1.00  0.00    -0.352 A  
HETATM   18  C   UNL     1     -10.734  11.308  68.550  1.00  0.00    -0.235 A  
HETATM   19  C   UNL     1      -9.996  11.714  67.291  1.00  0.00    -0.210 C  
HETATM   20  C   UNL     1     -10.427  13.081  66.743  1.00  0.00    -0.259 C  
HETATM   21  C   UNL     1     -10.503  14.128  67.865  1.00  0.00    -0.237 C  
HETATM   22  O   UNL     1      -9.521  13.515  65.727  1.00  0.00    -0.490 OA 
HETATM   23  H   UNL     1      -9.789  14.361  65.388  1.00  0.00     0.000 HD 
HETATM   24  O   UNL     1      -9.248  14.313  68.536  1.00  0.00    -0.199 OA 
HETATM   25  C   UNL     1     -11.574  13.715  68.874  1.00  0.00    -0.362 C  
HETATM   26  H   UNL     1      -9.294  14.961  69.229  1.00  0.00     0.000 HD 
ENDBRANCH  12  13
ENDBRANCH  11  12
ENDBRANCH   8  11
ENDBRANCH   7   8
ENDBRANCH   5   7
TORSDOF 5
ENDMDL
MODEL      200
REMARK 921   NORMALIZED FREE ENERGY PREDICTED BY IDOCK:   -4.07 KCAL/MOL
REMARK 922        TOTAL FREE ENERGY PREDICTED BY IDOCK:   -5.99 KCAL/MOL
REMARK 923 INTER-LIGAND FREE ENERGY PREDICTED BY IDOCK:   -5.55 KCAL/MOL
REMARK 924 INTRA-LIGAND FREE ENERGY PREDICTED BY IDOCK:   -0.44 KCAL/MOL
REMARK 927      BINDING AFFINITY PREDICTED BY RF-SCORE:    0.00 PKD
ROOT
HETATM    1  C   UNL     1      -8.840   3.286  65.247  1.00  0.00    -0.132 C  
HETATM    2  C   UNL     1      -9.131   4.427  64.256  1.00  0.00    -0.151 C  
HETATM    3  C   UNL     1     -10.523   4.191  63.641  1.00  0.00    -0.055 C  
HETATM    4  C   UNL     1      -8.093   4.415  63.119  1.00  0.00    -0.085 C  
HETATM    5  N   UNL     1      -9.171   5.745  64.916  1.00  0.00    -0.327 NA 
HETATM    6  H   UNL     1      -9.969   5.795  65.549  1.00  0.00     0.000 HD 
ENDROOT
BRANCH   5   7
HETATM    7  C   UNL     1      -7.943   6.128  65.622  1.00  0.00    -0.114 C  
BRANCH   7   8
HETATM    8  C   UNL     1      -8.248   6.652  67.038  1.00  0.00    -0.113 C  
HETATM    9  H   UNL     1      -7.293   6.795  68.757  1.00  0.00     0.000 HD 
HETATM   10  O   UNL     1      -7.104   6.471  67.883  1.00  0.00    -0.080 OA 
BRANCH   8  11
HETATM   11  C   UNL     1      -8.631   8.139  66.979  1.00  0.00    -0.123 C  
BRANCH  11  12
HETATM   12  O   UNL     1     -10.067   8.279  66.947  1.00  0.00    -0.241 OA 
BRANCH  12  13
HETATM   13  C   UNL     1     -10.510   9.572  67.104  1.00  0.00    -0.253 A  
HETATM   14  C   UNL     1     -10.570  10.475  66.036  1.00  0.00    -0.164 A  
HETATM   15  C   UNL     1     -11.070  11.759  66.221  1.00  0.00    -0.364 A  
HETATM   16  C   UNL     1     -11.511  12.155  67.478  1.00  0.00    -0.410 A  
HETATM   17  C   UNL     1     -11.426  11.282  68.571  1.00  0.00    -0.372 A  
HETATM   18  C   UNL     1     -10.874   9.991  68.398  1.00  0.00    -0.277 A  
HETATM   19  C   UNL     1     -10.723   9.056  69.580  1.00  0.00    -0.228 C  
HETATM   20  C   UNL     1     -10.883   9.753  70.937  1.00  0.00    -0.328 C  
HETATM   21  C   UNL     1     -12.110  10.678  70.943  1.00  0.00    -0.385 C  
HETATM   22  O   UNL     1     -10.994   8.785  71.981  1.00  0.00    -0.339 OA 
HETATM   23  H   UNL     1     -11.093   9.217  72.821  1.00  0.00     0.000 HD 
HETATM   24  O   UNL     1     -13.333   9.978  70.676  1.00  0.00    -0.602 OA 
HETATM   25  C   UNL     1     -11.914  11.789  69.912  1.00  0.00    -0.405 C  
HETATM   26  H   UNL     1     -14.093  10.549  70.680  1.00  0.00     0.000 HD 
ENDBRANCH  12  13
ENDBRANCH  11  12
ENDBRANCH   8  11
ENDBRANCH   7   8
ENDBRANCH   5   7
TORSDOF 5
ENDMDL
MODEL      201
REMARK 921   NORMALIZED FREE ENERGY PREDICTED BY IDOCK:   -4.07 KCAL/MOL
REMARK 922        TOTAL FREE ENERGY PREDICTED BY IDOCK:   -5.98 KCAL/MOL
REMARK 923 INTER-LIGAND FREE ENERGY PREDICTED BY IDOCK:   -5.11 KCAL/MOL
REMARK 924 INTRA-LIGAND FREE ENERGY PREDICTED BY IDOCK:   -0.88 KCAL/MOL
REMARK 927      BINDING AFFINITY PREDICTED BY RF-SCORE:    0.00 PKD
ROOT
HETATM    1  C   UNL     1      -7.808   7.472  64.196  1.00  0.00    -0.130 C  
HETATM    2  C   UNL     1      -7.317   8.867  63.767  1.00  0.00    -0.101 C  
HETATM    3  C   UNL     1      -8.351   9.464  62.795  1.00  0.00    -0.181 C  
HETATM    4  C   UNL     1      -5.972   8.748  63.029  1.00  0.00    -0.086 C  
HETATM    5  N   UNL     1      -7.211   9.797  64.907  1.00  0.00    -0.122 NA 
HETATM    6  H   UNL     1      -8.137   9.997  65.283  1.00  0.00     0.000 HD 
ENDROOT
BRANCH   5   7
HETATM    7  C   UNL     1      -6.311   9.368  65.983  1.00  0.00    -0.068 C  
BRANCH   7   8
HETATM    8  C   UNL     1      -6.089  10.491  67.013  1.00  0.00    -0.058 C  
HETATM    9  H   UNL     1      -5.872  12.451  66.981  1.00  0.00     0.000 HD 
HETATM   10  O   UNL     1      -6.009  11.757  66.345  1.00  0.00    -0.170 OA 
BRANCH   8  11
HETATM   11  C   UNL     1      -7.236  10.504  68.035  1.00  0.00    -0.087 C  
BRANCH  11  12
HETATM   12  O   UNL     1      -8.445  10.002  67.427  1.00  0.00    -0.121 OA 
BRANCH  12  13
HETATM   13  C   UNL     1      -9.600  10.535  67.951  1.00  0.00    -0.150 A  
HETATM   14  C   UNL     1     -10.154  10.079  69.153  1.00  0.00    -0.219 A  
HETATM   15  C   UNL     1     -11.295  10.675  69.678  1.00  0.00    -0.360 A  
HETATM   16  C   UNL     1     -11.898  11.729  69.003  1.00  0.00    -0.379 A  
HETATM   17  C   UNL     1     -11.385  12.178  67.779  1.00  0.00    -0.371 A  
HETATM   18  C   UNL     1     -10.252  11.544  67.216  1.00  0.00    -0.229 A  
HETATM   19  C   UNL     1      -9.719  11.980  65.867  1.00  0.00    -0.256 C  
HETATM   20  C   UNL     1     -10.694  12.864  65.080  1.00  0.00    -0.305 C  
HETATM   21  C   UNL     1     -11.289  13.964  65.973  1.00  0.00    -0.324 C  
HETATM   22  O   UNL     1     -10.035  13.449  63.955  1.00  0.00    -0.764 OA 
HETATM   23  H   UNL     1     -10.639  13.996  63.468  1.00  0.00     0.000 HD 
HETATM   24  O   UNL     1     -10.287  14.826  66.532  1.00  0.00    -0.274 OA 
HETATM   25  C   UNL     1     -12.104  13.322  67.095  1.00  0.00    -0.352 C  
HETATM   26  H   UNL     1     -10.654  15.507  67.084  1.00  0.00     0.000 HD 
ENDBRANCH  12  13
ENDBRANCH  11  12
ENDBRANCH   8  11
ENDBRANCH   7   8
ENDBRANCH   5   7
TORSDOF 5
ENDMDL
MODEL      202
REMARK 921   NORMALIZED FREE ENERGY PREDICTED BY IDOCK:   -4.07 KCAL/MOL
REMARK 922        TOTAL FREE ENERGY PREDICTED BY IDOCK:   -5.98 KCAL/MOL
REMARK 923 INTER-LIGAND FREE ENERGY PREDICTED BY IDOCK:   -5.29 KCAL/MOL
REMARK 924 INTRA-LIGAND FREE ENERGY PREDICTED BY IDOCK:   -0.69 KCAL/MOL
REMARK 927      BINDING AFFINITY PREDICTED BY RF-SCORE:    0.00 PKD
ROOT
HETATM    1  C   UNL     1     -12.275  14.068  66.652  1.00  0.00    -0.463 C  
HETATM    2  C   UNL     1     -11.273  14.255  67.806  1.00  0.00    -0.291 C  
HETATM    3  C   UNL     1     -12.069  14.403  69.117  1.00  0.00    -0.316 C  
HETATM    4  C   UNL     1     -10.454  15.540  67.590  1.00  0.00    -0.279 C  
HETATM    5  N   UNL     1     -10.387  13.088  67.971  1.00  0.00    -0.228 NA 
HETATM    6  H   UNL     1     -10.926  12.279  68.278  1.00  0.00     0.000 HD 
ENDROOT
BRANCH   5   7
HETATM    7  C   UNL     1      -9.583  12.741  66.794  1.00  0.00    -0.244 C  
BRANCH   7   8
HETATM    8  C   UNL     1      -9.740  11.255  66.422  1.00  0.00    -0.209 C  
HETATM    9  H   UNL     1      -8.627   9.629  66.488  1.00  0.00     0.000 HD 
HETATM   10  O   UNL     1      -8.529  10.546  66.717  1.00  0.00    -0.124 OA 
BRANCH   8  11
HETATM   11  C   UNL     1     -10.915  10.640  67.198  1.00  0.00    -0.247 C  
BRANCH  11  12
HETATM   12  O   UNL     1     -10.562   9.322  67.668  1.00  0.00    -0.263 OA 
BRANCH  12  13
HETATM   13  C   UNL     1     -10.664   9.164  69.031  1.00  0.00    -0.153 A  
HETATM   14  C   UNL     1     -11.362  10.071  69.837  1.00  0.00    -0.306 A  
HETATM   15  C   UNL     1     -11.487   9.852  71.204  1.00  0.00    -0.459 A  
HETATM   16  C   UNL     1     -10.912   8.727  71.781  1.00  0.00    -0.415 A  
HETATM   17  C   UNL     1     -10.177   7.824  71.001  1.00  0.00    -0.210 A  
HETATM   18  C   UNL     1     -10.005   8.066  69.618  1.00  0.00    -0.188 A  
HETATM   19  C   UNL     1      -9.167   7.130  68.772  1.00  0.00    -0.136 C  
HETATM   20  C   UNL     1      -8.293   6.177  69.597  1.00  0.00    -0.124 C  
HETATM   21  C   UNL     1      -9.098   5.537  70.739  1.00  0.00    -0.146 C  
HETATM   22  O   UNL     1      -7.741   5.161  68.758  1.00  0.00    -0.077 OA 
HETATM   23  H   UNL     1      -7.200   4.571  69.269  1.00  0.00     0.000 HD 
HETATM   24  O   UNL     1     -10.226   4.785  70.270  1.00  0.00    -0.247 OA 
HETATM   25  C   UNL     1      -9.568   6.628  71.702  1.00  0.00    -0.167 C  
HETATM   26  H   UNL     1     -10.724   4.389  70.975  1.00  0.00     0.000 HD 
ENDBRANCH  12  13
ENDBRANCH  11  12
ENDBRANCH   8  11
ENDBRANCH   7   8
ENDBRANCH   5   7
TORSDOF 5
ENDMDL
MODEL      203
REMARK 921   NORMALIZED FREE ENERGY PREDICTED BY IDOCK:   -4.06 KCAL/MOL
REMARK 922        TOTAL FREE ENERGY PREDICTED BY IDOCK:   -5.98 KCAL/MOL
REMARK 923 INTER-LIGAND FREE ENERGY PREDICTED BY IDOCK:   -5.09 KCAL/MOL
REMARK 924 INTRA-LIGAND FREE ENERGY PREDICTED BY IDOCK:   -0.89 KCAL/MOL
REMARK 927      BINDING AFFINITY PREDICTED BY RF-SCORE:    0.00 PKD
ROOT
HETATM    1  C   UNL     1     -11.969  13.645  68.156  1.00  0.00    -0.390 C  
HETATM    2  C   UNL     1     -11.067  12.437  68.470  1.00  0.00    -0.258 C  
HETATM    3  C   UNL     1      -9.599  12.874  68.303  1.00  0.00    -0.212 C  
HETATM    4  C   UNL     1     -11.348  11.297  67.476  1.00  0.00    -0.360 C  
HETATM    5  N   UNL     1     -11.221  11.972  69.861  1.00  0.00    -0.493 NA 
HETATM    6  H   UNL     1     -10.873  12.679  70.508  1.00  0.00     0.000 HD 
ENDROOT
BRANCH   5   7
HETATM    7  C   UNL     1     -12.580  11.568  70.239  1.00  0.00    -0.115 C  
BRANCH   7   8
HETATM    8  C   UNL     1     -12.562  10.485  71.335  1.00  0.00    -0.434 C  
HETATM    9  H   UNL     1     -13.683   8.952  71.861  1.00  0.00     0.000 HD 
HETATM   10  O   UNL     1     -13.694   9.619  71.185  1.00  0.00    -0.304 OA 
BRANCH   8  11
HETATM   11  C   UNL     1     -11.260   9.673  71.251  1.00  0.00    -0.376 C  
BRANCH  11  12
HETATM   12  O   UNL     1     -11.034   9.241  69.894  1.00  0.00    -0.232 OA 
BRANCH  12  13
HETATM   13  C   UNL     1     -10.498   7.977  69.788  1.00  0.00    -0.227 A  
HETATM   14  C   UNL     1     -11.184   6.837  70.222  1.00  0.00    -0.385 A  
HETATM   15  C   UNL     1     -10.633   5.572  70.053  1.00  0.00    -0.384 A  
HETATM   16  C   UNL     1      -9.387   5.434  69.453  1.00  0.00    -0.164 A  
HETATM   17  C   UNL     1      -8.665   6.563  69.044  1.00  0.00    -0.128 A  
HETATM   18  C   UNL     1      -9.199   7.855  69.257  1.00  0.00    -0.148 A  
HETATM   19  C   UNL     1      -8.406   9.087  68.873  1.00  0.00    -0.125 C  
HETATM   20  C   UNL     1      -6.926   8.800  68.593  1.00  0.00    -0.064 C  
HETATM   21  C   UNL     1      -6.762   7.567  67.691  1.00  0.00    -0.067 C  
HETATM   22  O   UNL     1      -6.307   9.936  67.988  1.00  0.00    -0.054 OA 
HETATM   23  H   UNL     1      -5.390   9.758  67.815  1.00  0.00     0.000 HD 
HETATM   24  O   UNL     1      -7.415   7.718  66.422  1.00  0.00    -0.081 OA 
HETATM   25  C   UNL     1      -7.308   6.334  68.411  1.00  0.00    -0.086 C  
HETATM   26  H   UNL     1      -7.314   6.956  65.864  1.00  0.00     0.000 HD 
ENDBRANCH  12  13
ENDBRANCH  11  12
ENDBRANCH   8  11
ENDBRANCH   7   8
ENDBRANCH   5   7
TORSDOF 5
ENDMDL
MODEL      204
REMARK 921   NORMALIZED FREE ENERGY PREDICTED BY IDOCK:   -4.06 KCAL/MOL
REMARK 922        TOTAL FREE ENERGY PREDICTED BY IDOCK:   -5.97 KCAL/MOL
REMARK 923 INTER-LIGAND FREE ENERGY PREDICTED BY IDOCK:   -4.88 KCAL/MOL
REMARK 924 INTRA-LIGAND FREE ENERGY PREDICTED BY IDOCK:   -1.09 KCAL/MOL
REMARK 927      BINDING AFFINITY PREDICTED BY RF-SCORE:    0.00 PKD
ROOT
HETATM    1  C   UNL     1      -8.618   9.916  67.228  1.00  0.00    -0.125 C  
HETATM    2  C   UNL     1      -9.940   9.537  66.536  1.00  0.00    -0.261 C  
HETATM    3  C   UNL     1      -9.989   8.004  66.394  1.00  0.00    -0.215 C  
HETATM    4  C   UNL     1      -9.993  10.155  65.127  1.00  0.00    -0.379 C  
HETATM    5  N   UNL     1     -11.119   9.934  67.328  1.00  0.00    -0.286 NA 
HETATM    6  H   UNL     1     -11.160   9.391  68.190  1.00  0.00     0.000 HD 
ENDROOT
BRANCH   5   7
HETATM    7  C   UNL     1     -11.218  11.367  67.628  1.00  0.00    -0.283 C  
BRANCH   7   8
HETATM    8  C   UNL     1     -11.077  11.637  69.138  1.00  0.00    -0.245 C  
HETATM    9  H   UNL     1     -11.720  12.984  70.425  1.00  0.00     0.000 HD 
HETATM   10  O   UNL     1     -11.807  12.818  69.493  1.00  0.00    -0.308 OA 
BRANCH   8  11
HETATM   11  C   UNL     1     -11.595  10.433  69.939  1.00  0.00    -0.284 C  
BRANCH  11  12
HETATM   12  O   UNL     1     -10.530   9.482  70.147  1.00  0.00    -0.217 OA 
BRANCH  12  13
HETATM   13  C   UNL     1     -10.927   8.319  70.766  1.00  0.00    -0.243 A  
HETATM   14  C   UNL     1     -12.069   8.255  71.574  1.00  0.00    -0.335 A  
HETATM   15  C   UNL     1     -12.468   7.051  72.142  1.00  0.00    -0.193 A  
HETATM   16  C   UNL     1     -11.726   5.898  71.913  1.00  0.00    -0.208 A  
HETATM   17  C   UNL     1     -10.559   5.944  71.139  1.00  0.00    -0.306 A  
HETATM   18  C   UNL     1     -10.122   7.176  70.598  1.00  0.00    -0.198 A  
HETATM   19  C   UNL     1      -8.832   7.252  69.807  1.00  0.00    -0.142 C  
HETATM   20  C   UNL     1      -7.942   6.014  69.965  1.00  0.00    -0.109 C  
HETATM   21  C   UNL     1      -8.761   4.721  69.823  1.00  0.00    -0.081 C  
HETATM   22  O   UNL     1      -6.888   6.035  69.001  1.00  0.00    -0.058 OA 
HETATM   23  H   UNL     1      -6.337   5.268  69.099  1.00  0.00     0.000 HD 
HETATM   24  O   UNL     1      -9.416   4.617  68.551  1.00  0.00    -0.130 OA 
HETATM   25  C   UNL     1      -9.796   4.650  70.945  1.00  0.00    -0.272 C  
HETATM   26  H   UNL     1      -9.922   3.818  68.462  1.00  0.00     0.000 HD 
ENDBRANCH  12  13
ENDBRANCH  11  12
ENDBRANCH   8  11
ENDBRANCH   7   8
ENDBRANCH   5   7
TORSDOF 5
ENDMDL
MODEL      205
REMARK 921   NORMALIZED FREE ENERGY PREDICTED BY IDOCK:   -4.06 KCAL/MOL
REMARK 922        TOTAL FREE ENERGY PREDICTED BY IDOCK:   -5.97 KCAL/MOL
REMARK 923 INTER-LIGAND FREE ENERGY PREDICTED BY IDOCK:   -5.08 KCAL/MOL
REMARK 924 INTRA-LIGAND FREE ENERGY PREDICTED BY IDOCK:   -0.88 KCAL/MOL
REMARK 927      BINDING AFFINITY PREDICTED BY RF-SCORE:    0.00 PKD
ROOT
HETATM    1  C   UNL     1      -6.750  18.461  66.311  1.00  0.00    -0.262 C  
HETATM    2  C   UNL     1      -7.446  18.629  67.674  1.00  0.00    -0.229 C  
HETATM    3  C   UNL     1      -8.961  18.758  67.430  1.00  0.00    -0.288 C  
HETATM    4  C   UNL     1      -6.956  19.916  68.360  1.00  0.00    -0.335 C  
HETATM    5  N   UNL     1      -7.250  17.459  68.550  1.00  0.00    -0.220 NA 
HETATM    6  H   UNL     1      -7.726  16.646  68.160  1.00  0.00     0.000 HD 
ENDROOT
BRANCH   5   7
HETATM    7  C   UNL     1      -5.852  17.129  68.850  1.00  0.00    -0.152 C  
BRANCH   7   8
HETATM    8  C   UNL     1      -5.609  15.609  68.804  1.00  0.00    -0.096 C  
HETATM    9  H   UNL     1      -5.917  14.067  69.993  1.00  0.00     0.000 HD 
HETATM   10  O   UNL     1      -6.066  15.005  70.021  1.00  0.00    -0.132 OA 
BRANCH   8  11
HETATM   11  C   UNL     1      -6.342  14.994  67.602  1.00  0.00    -0.131 C  
BRANCH  11  12
HETATM   12  O   UNL     1      -7.576  14.384  68.033  1.00  0.00    -0.111 OA 
BRANCH  12  13
HETATM   13  C   UNL     1      -7.829  13.159  67.459  1.00  0.00    -0.172 A  
HETATM   14  C   UNL     1      -7.022  12.041  67.700  1.00  0.00    -0.118 A  
HETATM   15  C   UNL     1      -7.337  10.807  67.143  1.00  0.00    -0.101 A  
HETATM   16  C   UNL     1      -8.459  10.679  66.334  1.00  0.00    -0.152 A  
HETATM   17  C   UNL     1      -9.261  11.793  66.047  1.00  0.00    -0.202 A  
HETATM   18  C   UNL     1      -8.918  13.061  66.572  1.00  0.00    -0.076 A  
HETATM   19  C   UNL     1      -9.742  14.284  66.226  1.00  0.00    -0.321 C  
HETATM   20  C   UNL     1     -10.690  14.067  65.040  1.00  0.00    -0.396 C  
HETATM   21  C   UNL     1     -11.453  12.740  65.176  1.00  0.00    -0.321 C  
HETATM   22  O   UNL     1     -11.612  15.154  64.939  1.00  0.00    -0.376 OA 
HETATM   23  H   UNL     1     -12.200  15.020  64.205  1.00  0.00     0.000 HD 
HETATM   24  O   UNL     1     -12.242  12.674  66.372  1.00  0.00    -0.550 OA 
HETATM   25  C   UNL     1     -10.460  11.578  65.146  1.00  0.00    -0.340 C  
HETATM   26  H   UNL     1     -12.714  11.853  66.456  1.00  0.00     0.000 HD 
ENDBRANCH  12  13
ENDBRANCH  11  12
ENDBRANCH   8  11
ENDBRANCH   7   8
ENDBRANCH   5   7
TORSDOF 5
ENDMDL
MODEL      206
REMARK 921   NORMALIZED FREE ENERGY PREDICTED BY IDOCK:   -4.04 KCAL/MOL
REMARK 922        TOTAL FREE ENERGY PREDICTED BY IDOCK:   -5.95 KCAL/MOL
REMARK 923 INTER-LIGAND FREE ENERGY PREDICTED BY IDOCK:   -6.81 KCAL/MOL
REMARK 924 INTRA-LIGAND FREE ENERGY PREDICTED BY IDOCK:    0.86 KCAL/MOL
REMARK 927      BINDING AFFINITY PREDICTED BY RF-SCORE:    0.00 PKD
ROOT
HETATM    1  C   UNL     1      -5.175  18.867  64.338  1.00  0.00    -0.249 C  
HETATM    2  C   UNL     1      -6.096  19.975  64.879  1.00  0.00    -0.254 C  
HETATM    3  C   UNL     1      -6.638  20.780  63.682  1.00  0.00    -0.057 C  
HETATM    4  C   UNL     1      -5.296  20.932  65.781  1.00  0.00    -0.245 C  
HETATM    5  N   UNL     1      -7.264  19.431  65.595  1.00  0.00    -0.393 NA 
HETATM    6  H   UNL     1      -7.875  18.937  64.945  1.00  0.00     0.000 HD 
ENDROOT
BRANCH   5   7
HETATM    7  C   UNL     1      -6.950  18.574  66.744  1.00  0.00    -0.194 C  
BRANCH   7   8
HETATM    8  C   UNL     1      -7.250  17.094  66.440  1.00  0.00    -0.290 C  
HETATM    9  H   UNL     1      -6.669  15.338  67.124  1.00  0.00     0.000 HD 
HETATM   10  O   UNL     1      -6.484  16.251  67.312  1.00  0.00    -0.162 OA 
BRANCH   8  11
HETATM   11  C   UNL     1      -8.750  16.813  66.617  1.00  0.00    -0.248 C  
BRANCH  11  12
HETATM   12  O   UNL     1      -8.946  15.765  67.589  1.00  0.00    -0.184 OA 
BRANCH  12  13
HETATM   13  C   UNL     1      -9.036  14.504  67.047  1.00  0.00    -0.239 A  
HETATM   14  C   UNL     1      -8.240  13.441  67.491  1.00  0.00    -0.186 A  
HETATM   15  C   UNL     1      -8.395  12.168  66.954  1.00  0.00    -0.151 A  
HETATM   16  C   UNL     1      -9.343  11.945  65.964  1.00  0.00    -0.215 A  
HETATM   17  C   UNL     1     -10.126  13.000  65.477  1.00  0.00    -0.270 A  
HETATM   18  C   UNL     1      -9.940  14.307  65.985  1.00  0.00    -0.337 A  
HETATM   19  C   UNL     1     -10.739  15.468  65.429  1.00  0.00    -0.422 C  
HETATM   20  C   UNL     1     -11.444  15.148  64.105  1.00  0.00     0.006 C  
HETATM   21  C   UNL     1     -12.161  13.791  64.174  1.00  0.00    -0.433 C  
HETATM   22  O   UNL     1     -12.378  16.180  63.780  1.00  0.00    -1.147 OA 
HETATM   23  H   UNL     1     -12.814  15.981  62.960  1.00  0.00     0.000 HD 
HETATM   24  O   UNL     1     -13.152  13.738  65.209  1.00  0.00    -0.756 OA 
HETATM   25  C   UNL     1     -11.130  12.682  64.387  1.00  0.00    -0.385 C  
HETATM   26  H   UNL     1     -13.595  12.899  65.252  1.00  0.00     0.000 HD 
ENDBRANCH  12  13
ENDBRANCH  11  12
ENDBRANCH   8  11
ENDBRANCH   7   8
ENDBRANCH   5   7
TORSDOF 5
ENDMDL
MODEL      207
REMARK 921   NORMALIZED FREE ENERGY PREDICTED BY IDOCK:   -4.03 KCAL/MOL
REMARK 922        TOTAL FREE ENERGY PREDICTED BY IDOCK:   -5.93 KCAL/MOL
REMARK 923 INTER-LIGAND FREE ENERGY PREDICTED BY IDOCK:   -5.38 KCAL/MOL
REMARK 924 INTRA-LIGAND FREE ENERGY PREDICTED BY IDOCK:   -0.55 KCAL/MOL
REMARK 927      BINDING AFFINITY PREDICTED BY RF-SCORE:    0.00 PKD
ROOT
HETATM    1  C   UNL     1     -11.683  15.322  68.024  1.00  0.00    -0.268 C  
HETATM    2  C   UNL     1     -11.280  14.708  69.377  1.00  0.00    -0.279 C  
HETATM    3  C   UNL     1     -12.481  14.817  70.334  1.00  0.00    -0.405 C  
HETATM    4  C   UNL     1     -10.106  15.497  69.984  1.00  0.00    -0.241 C  
HETATM    5  N   UNL     1     -10.948  13.276  69.264  1.00  0.00    -0.429 NA 
HETATM    6  H   UNL     1     -11.782  12.741  69.021  1.00  0.00     0.000 HD 
ENDROOT
BRANCH   5   7
HETATM    7  C   UNL     1      -9.856  12.957  68.337  1.00  0.00    -0.197 C  
BRANCH   7   8
HETATM    8  C   UNL     1     -10.347  12.078  67.171  1.00  0.00    -0.213 C  
HETATM    9  H   UNL     1     -10.435  12.212  65.206  1.00  0.00     0.000 HD 
HETATM   10  O   UNL     1     -10.133  12.755  65.925  1.00  0.00    -0.269 OA 
BRANCH   8  11
HETATM   11  C   UNL     1      -9.604  10.734  67.177  1.00  0.00    -0.161 C  
BRANCH  11  12
HETATM   12  O   UNL     1      -9.637  10.156  68.498  1.00  0.00    -0.147 OA 
BRANCH  12  13
HETATM   13  C   UNL     1      -9.928   8.811  68.517  1.00  0.00    -0.182 A  
HETATM   14  C   UNL     1     -10.494   8.154  67.418  1.00  0.00    -0.356 A  
HETATM   15  C   UNL     1     -10.728   6.784  67.454  1.00  0.00    -0.405 A  
HETATM   16  C   UNL     1     -10.404   6.057  68.593  1.00  0.00    -0.264 A  
HETATM   17  C   UNL     1      -9.872   6.698  69.720  1.00  0.00    -0.174 A  
HETATM   18  C   UNL     1      -9.676   8.099  69.706  1.00  0.00    -0.173 A  
HETATM   19  C   UNL     1      -9.155   8.814  70.935  1.00  0.00    -0.256 C  
HETATM   20  C   UNL     1      -9.213   7.963  72.209  1.00  0.00    -0.165 C  
HETATM   21  C   UNL     1      -8.671   6.548  71.955  1.00  0.00    -0.132 C  
HETATM   22  O   UNL     1      -8.473   8.591  73.258  1.00  0.00    -0.372 OA 
HETATM   23  H   UNL     1      -8.509   8.063  74.047  1.00  0.00     0.000 HD 
HETATM   24  O   UNL     1      -7.310   6.548  71.504  1.00  0.00    -0.084 OA 
HETATM   25  C   UNL     1      -9.557   5.842  70.929  1.00  0.00    -0.205 C  
HETATM   26  H   UNL     1      -6.974   5.673  71.347  1.00  0.00     0.000 HD 
ENDBRANCH  12  13
ENDBRANCH  11  12
ENDBRANCH   8  11
ENDBRANCH   7   8
ENDBRANCH   5   7
TORSDOF 5
ENDMDL
MODEL      208
REMARK 921   NORMALIZED FREE ENERGY PREDICTED BY IDOCK:   -4.02 KCAL/MOL
REMARK 922        TOTAL FREE ENERGY PREDICTED BY IDOCK:   -5.93 KCAL/MOL
REMARK 923 INTER-LIGAND FREE ENERGY PREDICTED BY IDOCK:   -5.43 KCAL/MOL
REMARK 924 INTRA-LIGAND FREE ENERGY PREDICTED BY IDOCK:   -0.50 KCAL/MOL
REMARK 927      BINDING AFFINITY PREDICTED BY RF-SCORE:    0.00 PKD
ROOT
HETATM    1  C   UNL     1     -10.003  14.057  66.862  1.00  0.00    -0.263 C  
HETATM    2  C   UNL     1     -11.447  13.643  67.197  1.00  0.00    -0.342 C  
HETATM    3  C   UNL     1     -12.347  14.022  66.006  1.00  0.00    -0.504 C  
HETATM    4  C   UNL     1     -11.940  14.409  68.438  1.00  0.00    -0.328 C  
HETATM    5  N   UNL     1     -11.581  12.187  67.390  1.00  0.00    -0.428 NA 
HETATM    6  H   UNL     1     -11.412  11.700  66.511  1.00  0.00     0.000 HD 
ENDROOT
BRANCH   5   7
HETATM    7  C   UNL     1     -10.743  11.618  68.452  1.00  0.00    -0.217 C  
BRANCH   7   8
HETATM    8  C   UNL     1      -9.909  10.430  67.934  1.00  0.00    -0.154 C  
HETATM    9  H   UNL     1      -7.997  10.008  67.700  1.00  0.00     0.000 HD 
HETATM   10  O   UNL     1      -8.512  10.741  68.019  1.00  0.00    -0.119 OA 
BRANCH   8  11
HETATM   11  C   UNL     1     -10.221   9.170  68.755  1.00  0.00    -0.210 C  
BRANCH  11  12
HETATM   12  O   UNL     1     -10.382   9.513  70.147  1.00  0.00    -0.218 OA 
BRANCH  12  13
HETATM   13  C   UNL     1     -10.957   8.522  70.908  1.00  0.00    -0.251 A  
HETATM   14  C   UNL     1     -12.222   7.996  70.618  1.00  0.00     0.080 A  
HETATM   15  C   UNL     1     -12.750   6.960  71.379  1.00  0.00    -0.384 A  
HETATM   16  C   UNL     1     -12.022   6.441  72.443  1.00  0.00    -0.213 A  
HETATM   17  C   UNL     1     -10.770   6.976  72.776  1.00  0.00    -0.306 A  
HETATM   18  C   UNL     1     -10.248   8.062  72.035  1.00  0.00    -0.288 A  
HETATM   19  C   UNL     1      -8.923   8.687  72.418  1.00  0.00    -0.205 C  
HETATM   20  C   UNL     1      -8.434   8.279  73.814  1.00  0.00    -0.190 C  
HETATM   21  C   UNL     1      -8.566   6.763  74.025  1.00  0.00    -0.144 C  
HETATM   22  O   UNL     1      -7.077   8.684  74.000  1.00  0.00    -0.310 OA 
HETATM   23  H   UNL     1      -6.774   8.431  74.865  1.00  0.00     0.000 HD 
HETATM   24  O   UNL     1      -7.814   6.002  73.070  1.00  0.00    -0.104 OA 
HETATM   25  C   UNL     1     -10.041   6.367  73.957  1.00  0.00    -0.328 C  
HETATM   26  H   UNL     1      -7.895   5.064  73.201  1.00  0.00     0.000 HD 
ENDBRANCH  12  13
ENDBRANCH  11  12
ENDBRANCH   8  11
ENDBRANCH   7   8
ENDBRANCH   5   7
TORSDOF 5
ENDMDL
MODEL      209
REMARK 921   NORMALIZED FREE ENERGY PREDICTED BY IDOCK:   -4.02 KCAL/MOL
REMARK 922        TOTAL FREE ENERGY PREDICTED BY IDOCK:   -5.93 KCAL/MOL
REMARK 923 INTER-LIGAND FREE ENERGY PREDICTED BY IDOCK:   -5.38 KCAL/MOL
REMARK 924 INTRA-LIGAND FREE ENERGY PREDICTED BY IDOCK:   -0.55 KCAL/MOL
REMARK 927      BINDING AFFINITY PREDICTED BY RF-SCORE:    0.00 PKD
ROOT
HETATM    1  C   UNL     1     -11.080  15.183  67.277  1.00  0.00    -0.332 C  
HETATM    2  C   UNL     1     -11.547  13.804  66.774  1.00  0.00    -0.370 C  
HETATM    3  C   UNL     1     -12.741  14.015  65.825  1.00  0.00    -0.487 C  
HETATM    4  C   UNL     1     -12.018  12.944  67.960  1.00  0.00    -0.323 C  
HETATM    5  N   UNL     1     -10.502  13.108  66.002  1.00  0.00    -0.279 NA 
HETATM    6  H   UNL     1     -10.317  13.607  65.132  1.00  0.00     0.000 HD 
ENDROOT
BRANCH   5   7
HETATM    7  C   UNL     1      -9.246  12.869  66.723  1.00  0.00    -0.230 C  
BRANCH   7   8
HETATM    8  C   UNL     1      -9.044  11.372  67.021  1.00  0.00    -0.167 C  
HETATM    9  H   UNL     1      -8.655   9.738  65.988  1.00  0.00     0.000 HD 
HETATM   10  O   UNL     1      -8.780  10.662  65.804  1.00  0.00    -0.170 OA 
BRANCH   8  11
HETATM   11  C   UNL     1      -7.880  11.183  68.006  1.00  0.00    -0.114 C  
BRANCH  11  12
HETATM   12  O   UNL     1      -7.686   9.780  68.280  1.00  0.00    -0.084 OA 
BRANCH  12  13
HETATM   13  C   UNL     1      -8.638   9.232  69.109  1.00  0.00    -0.134 A  
HETATM   14  C   UNL     1      -9.065   9.870  70.280  1.00  0.00    -0.108 A  
HETATM   15  C   UNL     1     -10.065   9.311  71.067  1.00  0.00    -0.373 A  
HETATM   16  C   UNL     1     -10.646   8.104  70.694  1.00  0.00    -0.229 A  
HETATM   17  C   UNL     1     -10.209   7.428  69.547  1.00  0.00    -0.204 A  
HETATM   18  C   UNL     1      -9.159   7.968  68.769  1.00  0.00    -0.144 A  
HETATM   19  C   UNL     1      -8.638   7.222  67.558  1.00  0.00    -0.122 C  
HETATM   20  C   UNL     1      -9.093   5.759  67.499  1.00  0.00    -0.106 C  
HETATM   21  C   UNL     1     -10.596   5.634  67.789  1.00  0.00    -0.200 C  
HETATM   22  O   UNL     1      -8.792   5.199  66.219  1.00  0.00    -0.119 OA 
HETATM   23  H   UNL     1      -9.074   4.292  66.182  1.00  0.00     0.000 HD 
HETATM   24  O   UNL     1     -11.404   6.370  66.859  1.00  0.00    -0.663 OA 
HETATM   25  C   UNL     1     -10.880   6.112  69.212  1.00  0.00    -0.418 C  
HETATM   26  H   UNL     1     -12.334   6.293  67.038  1.00  0.00     0.000 HD 
ENDBRANCH  12  13
ENDBRANCH  11  12
ENDBRANCH   8  11
ENDBRANCH   7   8
ENDBRANCH   5   7
TORSDOF 5
ENDMDL
MODEL      210
REMARK 921   NORMALIZED FREE ENERGY PREDICTED BY IDOCK:   -4.01 KCAL/MOL
REMARK 922        TOTAL FREE ENERGY PREDICTED BY IDOCK:   -5.90 KCAL/MOL
REMARK 923 INTER-LIGAND FREE ENERGY PREDICTED BY IDOCK:   -5.34 KCAL/MOL
REMARK 924 INTRA-LIGAND FREE ENERGY PREDICTED BY IDOCK:   -0.56 KCAL/MOL
REMARK 927      BINDING AFFINITY PREDICTED BY RF-SCORE:    0.00 PKD
ROOT
HETATM    1  C   UNL     1     -10.084  12.021  64.275  1.00  0.00    -0.319 C  
HETATM    2  C   UNL     1     -11.116  13.112  64.617  1.00  0.00    -0.345 C  
HETATM    3  C   UNL     1     -12.388  12.849  63.790  1.00  0.00    -0.500 C  
HETATM    4  C   UNL     1     -10.566  14.496  64.231  1.00  0.00     0.372 C  
HETATM    5  N   UNL     1     -11.512  13.081  66.037  1.00  0.00    -0.321 NA 
HETATM    6  H   UNL     1     -12.025  12.223  66.239  1.00  0.00     0.000 HD 
ENDROOT
BRANCH   5   7
HETATM    7  C   UNL     1     -10.415  13.251  66.997  1.00  0.00    -0.249 C  
BRANCH   7   8
HETATM    8  C   UNL     1     -10.599  12.344  68.228  1.00  0.00    -0.222 C  
HETATM    9  H   UNL     1     -12.092  11.423  69.127  1.00  0.00     0.000 HD 
HETATM   10  O   UNL     1     -11.979  11.983  68.367  1.00  0.00    -0.377 OA 
BRANCH   8  11
HETATM   11  C   UNL     1      -9.734  11.083  68.087  1.00  0.00    -0.174 C  
BRANCH  11  12
HETATM   12  O   UNL     1     -10.136  10.096  69.059  1.00  0.00    -0.183 OA 
BRANCH  12  13
HETATM   13  C   UNL     1     -10.298   8.830  68.542  1.00  0.00    -0.199 A  
HETATM   14  C   UNL     1     -10.290   8.579  67.165  1.00  0.00    -0.377 A  
HETATM   15  C   UNL     1     -10.406   7.282  66.681  1.00  0.00    -0.229 A  
HETATM   16  C   UNL     1     -10.536   6.221  67.569  1.00  0.00    -0.295 A  
HETATM   17  C   UNL     1     -10.584   6.450  68.950  1.00  0.00    -0.298 A  
HETATM   18  C   UNL     1     -10.515   7.773  69.447  1.00  0.00    -0.221 A  
HETATM   19  C   UNL     1     -10.623   8.042  70.934  1.00  0.00    -0.233 C  
HETATM   20  C   UNL     1     -11.145   6.844  71.736  1.00  0.00    -0.244 C  
HETATM   21  C   UNL     1     -10.433   5.547  71.321  1.00  0.00    -0.239 C  
HETATM   22  O   UNL     1     -10.971   7.072  73.136  1.00  0.00    -0.355 OA 
HETATM   23  H   UNL     1     -11.295   6.330  73.633  1.00  0.00     0.000 HD 
HETATM   24  O   UNL     1      -9.014   5.606  71.518  1.00  0.00    -0.138 OA 
HETATM   25  C   UNL     1     -10.741   5.245  69.855  1.00  0.00    -0.196 C  
HETATM   26  H   UNL     1      -8.573   4.804  71.262  1.00  0.00     0.000 HD 
ENDBRANCH  12  13
ENDBRANCH  11  12
ENDBRANCH   8  11
ENDBRANCH   7   8
ENDBRANCH   5   7
TORSDOF 5
ENDMDL
MODEL      211
REMARK 921   NORMALIZED FREE ENERGY PREDICTED BY IDOCK:   -4.00 KCAL/MOL
REMARK 922        TOTAL FREE ENERGY PREDICTED BY IDOCK:   -5.90 KCAL/MOL
REMARK 923 INTER-LIGAND FREE ENERGY PREDICTED BY IDOCK:   -5.37 KCAL/MOL
REMARK 924 INTRA-LIGAND FREE ENERGY PREDICTED BY IDOCK:   -0.53 KCAL/MOL
REMARK 927      BINDING AFFINITY PREDICTED BY RF-SCORE:    0.00 PKD
ROOT
HETATM    1  C   UNL     1     -10.911  15.749  67.791  1.00  0.00    -0.314 C  
HETATM    2  C   UNL     1     -10.080  15.125  66.655  1.00  0.00    -0.264 C  
HETATM    3  C   UNL     1      -8.635  15.647  66.771  1.00  0.00    -0.309 C  
HETATM    4  C   UNL     1     -10.642  15.561  65.290  1.00  0.00    -0.446 C  
HETATM    5  N   UNL     1     -10.015  13.655  66.752  1.00  0.00    -0.263 NA 
HETATM    6  H   UNL     1      -9.491  13.382  67.582  1.00  0.00     0.000 HD 
ENDROOT
BRANCH   5   7
HETATM    7  C   UNL     1     -11.311  12.968  66.724  1.00  0.00    -0.324 C  
BRANCH   7   8
HETATM    8  C   UNL     1     -11.419  11.925  67.852  1.00  0.00    -0.316 C  
HETATM    9  H   UNL     1     -11.716   9.981  67.989  1.00  0.00     0.000 HD 
HETATM   10  O   UNL     1     -11.650  10.624  67.293  1.00  0.00    -0.392 OA 
BRANCH   8  11
HETATM   11  C   UNL     1     -10.132  11.920  68.690  1.00  0.00    -0.177 C  
BRANCH  11  12
HETATM   12  O   UNL     1     -10.249  10.969  69.769  1.00  0.00    -0.014 OA 
BRANCH  12  13
HETATM   13  C   UNL     1      -9.323   9.952  69.726  1.00  0.00    -0.221 A  
HETATM   14  C   UNL     1      -8.251   9.956  68.825  1.00  0.00    -0.114 A  
HETATM   15  C   UNL     1      -7.307   8.936  68.843  1.00  0.00    -0.075 A  
HETATM   16  C   UNL     1      -7.427   7.898  69.759  1.00  0.00    -0.088 A  
HETATM   17  C   UNL     1      -8.512   7.852  70.645  1.00  0.00    -0.125 A  
HETATM   18  C   UNL     1      -9.502   8.862  70.599  1.00  0.00    -0.259 A  
HETATM   19  C   UNL     1     -10.709   8.796  71.511  1.00  0.00    -0.371 C  
HETATM   20  C   UNL     1     -10.902   7.426  72.173  1.00  0.00    -0.235 C  
HETATM   21  C   UNL     1      -9.579   6.895  72.745  1.00  0.00    -0.146 C  
HETATM   22  O   UNL     1     -11.884   7.511  73.208  1.00  0.00    -0.554 OA 
HETATM   23  H   UNL     1     -12.004   6.662  73.617  1.00  0.00     0.000 HD 
HETATM   24  O   UNL     1      -9.010   7.769  73.730  1.00  0.00    -0.243 OA 
HETATM   25  C   UNL     1      -8.583   6.682  71.605  1.00  0.00    -0.123 C  
HETATM   26  H   UNL     1      -8.191   7.441  74.084  1.00  0.00     0.000 HD 
ENDBRANCH  12  13
ENDBRANCH  11  12
ENDBRANCH   8  11
ENDBRANCH   7   8
ENDBRANCH   5   7
TORSDOF 5
ENDMDL
MODEL      212
REMARK 921   NORMALIZED FREE ENERGY PREDICTED BY IDOCK:   -4.00 KCAL/MOL
REMARK 922        TOTAL FREE ENERGY PREDICTED BY IDOCK:   -5.90 KCAL/MOL
REMARK 923 INTER-LIGAND FREE ENERGY PREDICTED BY IDOCK:   -5.30 KCAL/MOL
REMARK 924 INTRA-LIGAND FREE ENERGY PREDICTED BY IDOCK:   -0.59 KCAL/MOL
REMARK 927      BINDING AFFINITY PREDICTED BY RF-SCORE:    0.00 PKD
ROOT
HETATM    1  C   UNL     1      -8.825  15.859  67.311  1.00  0.00    -0.213 C  
HETATM    2  C   UNL     1     -10.320  16.168  67.112  1.00  0.00    -0.291 C  
HETATM    3  C   UNL     1     -10.563  16.438  65.615  1.00  0.00    -0.337 C  
HETATM    4  C   UNL     1     -10.705  17.433  67.900  1.00  0.00    -0.351 C  
HETATM    5  N   UNL     1     -11.181  15.032  67.489  1.00  0.00    -0.322 NA 
HETATM    6  H   UNL     1     -11.032  14.252  66.849  1.00  0.00     0.000 HD 
ENDROOT
BRANCH   5   7
HETATM    7  C   UNL     1     -11.045  14.578  68.878  1.00  0.00    -0.256 C  
BRANCH   7   8
HETATM    8  C   UNL     1     -11.272  13.060  68.999  1.00  0.00    -0.264 C  
HETATM    9  H   UNL     1     -12.260  11.843  70.195  1.00  0.00     0.000 HD 
HETATM   10  O   UNL     1     -12.120  12.780  70.120  1.00  0.00    -0.342 OA 
BRANCH   8  11
HETATM   11  C   UNL     1     -11.907  12.518  67.709  1.00  0.00    -0.313 C  
BRANCH  11  12
HETATM   12  O   UNL     1     -11.731  11.088  67.634  1.00  0.00    -0.576 OA 
BRANCH  12  13
HETATM   13  C   UNL     1     -10.546  10.696  67.055  1.00  0.00    -0.262 A  
HETATM   14  C   UNL     1      -9.947  11.419  66.016  1.00  0.00    -0.269 A  
HETATM   15  C   UNL     1      -8.724  11.021  65.490  1.00  0.00    -0.144 A  
HETATM   16  C   UNL     1      -8.088   9.892  65.993  1.00  0.00    -0.120 A  
HETATM   17  C   UNL     1      -8.685   9.131  67.006  1.00  0.00    -0.131 A  
HETATM   18  C   UNL     1      -9.952   9.503  67.513  1.00  0.00    -0.235 A  
HETATM   19  C   UNL     1     -10.636   8.659  68.568  1.00  0.00    -0.162 C  
HETATM   20  C   UNL     1     -10.013   7.268  68.738  1.00  0.00    -0.166 C  
HETATM   21  C   UNL     1      -8.481   7.353  68.812  1.00  0.00    -0.129 C  
HETATM   22  O   UNL     1     -10.526   6.636  69.912  1.00  0.00    -0.192 OA 
HETATM   23  H   UNL     1     -10.140   5.774  70.017  1.00  0.00     0.000 HD 
HETATM   24  O   UNL     1      -8.022   8.163  69.903  1.00  0.00    -0.104 OA 
HETATM   25  C   UNL     1      -7.939   7.906  67.494  1.00  0.00    -0.123 C  
HETATM   26  H   UNL     1      -7.074   8.215  69.950  1.00  0.00     0.000 HD 
ENDBRANCH  12  13
ENDBRANCH  11  12
ENDBRANCH   8  11
ENDBRANCH   7   8
ENDBRANCH   5   7
TORSDOF 5
ENDMDL
MODEL      213
REMARK 921   NORMALIZED FREE ENERGY PREDICTED BY IDOCK:   -3.99 KCAL/MOL
REMARK 922        TOTAL FREE ENERGY PREDICTED BY IDOCK:   -5.89 KCAL/MOL
REMARK 923 INTER-LIGAND FREE ENERGY PREDICTED BY IDOCK:   -5.15 KCAL/MOL
REMARK 924 INTRA-LIGAND FREE ENERGY PREDICTED BY IDOCK:   -0.74 KCAL/MOL
REMARK 927      BINDING AFFINITY PREDICTED BY RF-SCORE:    0.00 PKD
ROOT
HETATM    1  C   UNL     1      -9.940  10.706  65.675  1.00  0.00    -0.327 C  
HETATM    2  C   UNL     1      -9.664  10.660  67.190  1.00  0.00    -0.171 C  
HETATM    3  C   UNL     1     -10.826  11.365  67.914  1.00  0.00    -0.274 C  
HETATM    4  C   UNL     1      -8.364  11.417  67.511  1.00  0.00    -0.137 C  
HETATM    5  N   UNL     1      -9.610   9.279  67.706  1.00  0.00    -0.140 NA 
HETATM    6  H   UNL     1     -10.529   8.843  67.638  1.00  0.00     0.000 HD 
ENDROOT
BRANCH   5   7
HETATM    7  C   UNL     1      -8.596   8.419  67.086  1.00  0.00    -0.123 C  
BRANCH   7   8
HETATM    8  C   UNL     1      -9.188   7.059  66.671  1.00  0.00    -0.158 C  
HETATM    9  H   UNL     1      -9.134   5.889  65.086  1.00  0.00     0.000 HD 
HETATM   10  O   UNL     1      -8.768   6.728  65.341  1.00  0.00    -0.099 OA 
BRANCH   8  11
HETATM   11  C   UNL     1      -8.741   5.967  67.655  1.00  0.00    -0.104 C  
BRANCH  11  12
HETATM   12  O   UNL     1      -9.745   5.776  68.673  1.00  0.00    -0.122 OA 
BRANCH  12  13
HETATM   13  C   UNL     1      -9.339   6.134  69.938  1.00  0.00    -0.149 A  
HETATM   14  C   UNL     1      -8.023   5.948  70.380  1.00  0.00    -0.106 A  
HETATM   15  C   UNL     1      -7.637   6.368  71.648  1.00  0.00    -0.095 A  
HETATM   16  C   UNL     1      -8.562   6.972  72.489  1.00  0.00    -0.132 A  
HETATM   17  C   UNL     1      -9.894   7.135  72.083  1.00  0.00    -0.171 A  
HETATM   18  C   UNL     1     -10.305   6.667  70.813  1.00  0.00    -0.232 A  
HETATM   19  C   UNL     1     -11.752   6.784  70.383  1.00  0.00    -0.418 C  
HETATM   20  C   UNL     1     -12.710   7.104  71.537  1.00  0.00    -0.393 C  
HETATM   21  C   UNL     1     -12.160   8.238  72.415  1.00  0.00    -0.369 C  
HETATM   22  O   UNL     1     -13.997   7.458  71.028  1.00  0.00    -0.631 OA 
HETATM   23  H   UNL     1     -14.590   7.657  71.743  1.00  0.00     0.000 HD 
HETATM   24  O   UNL     1     -11.951   9.454  71.684  1.00  0.00    -0.347 OA 
HETATM   25  C   UNL     1     -10.848   7.790  73.060  1.00  0.00    -0.451 C  
HETATM   26  H   UNL     1     -11.611  10.156  72.227  1.00  0.00     0.000 HD 
ENDBRANCH  12  13
ENDBRANCH  11  12
ENDBRANCH   8  11
ENDBRANCH   7   8
ENDBRANCH   5   7
TORSDOF 5
ENDMDL
MODEL      214
REMARK 921   NORMALIZED FREE ENERGY PREDICTED BY IDOCK:   -3.98 KCAL/MOL
REMARK 922        TOTAL FREE ENERGY PREDICTED BY IDOCK:   -5.87 KCAL/MOL
REMARK 923 INTER-LIGAND FREE ENERGY PREDICTED BY IDOCK:   -4.71 KCAL/MOL
REMARK 924 INTRA-LIGAND FREE ENERGY PREDICTED BY IDOCK:   -1.16 KCAL/MOL
REMARK 927      BINDING AFFINITY PREDICTED BY RF-SCORE:    0.00 PKD
ROOT
HETATM    1  C   UNL     1     -12.652  11.977  71.176  1.00  0.00    -0.372 C  
HETATM    2  C   UNL     1     -12.415  10.571  70.595  1.00  0.00    -0.366 C  
HETATM    3  C   UNL     1     -13.675   9.724  70.851  1.00  0.00     0.011 C  
HETATM    4  C   UNL     1     -11.228   9.900  71.310  1.00  0.00    -0.356 C  
HETATM    5  N   UNL     1     -12.203  10.597  69.136  1.00  0.00    -0.731 NA 
HETATM    6  H   UNL     1     -13.058  10.888  68.663  1.00  0.00     0.000 HD 
ENDROOT
BRANCH   5   7
HETATM    7  C   UNL     1     -11.073  11.416  68.682  1.00  0.00    -0.236 C  
BRANCH   7   8
HETATM    8  C   UNL     1     -10.479  10.877  67.367  1.00  0.00    -0.224 C  
HETATM    9  H   UNL     1      -8.720  10.873  66.477  1.00  0.00     0.000 HD 
HETATM   10  O   UNL     1      -9.087  11.206  67.288  1.00  0.00    -0.148 OA 
BRANCH   8  11
HETATM   11  C   UNL     1     -10.668   9.354  67.290  1.00  0.00    -0.188 C  
BRANCH  11  12
HETATM   12  O   UNL     1      -9.463   8.684  67.716  1.00  0.00    -0.139 OA 
BRANCH  12  13
HETATM   13  C   UNL     1      -9.659   7.752  68.710  1.00  0.00    -0.154 A  
HETATM   14  C   UNL     1     -10.653   6.770  68.627  1.00  0.00    -0.263 A  
HETATM   15  C   UNL     1     -10.789   5.814  69.626  1.00  0.00    -0.418 A  
HETATM   16  C   UNL     1      -9.936   5.833  70.723  1.00  0.00    -0.249 A  
HETATM   17  C   UNL     1      -8.958   6.829  70.848  1.00  0.00    -0.150 A  
HETATM   18  C   UNL     1      -8.847   7.833  69.857  1.00  0.00    -0.142 A  
HETATM   19  C   UNL     1      -7.833   8.948  70.006  1.00  0.00    -0.095 C  
HETATM   20  C   UNL     1      -7.247   9.059  71.419  1.00  0.00    -0.041 C  
HETATM   21  C   UNL     1      -6.837   7.680  71.958  1.00  0.00    -0.063 C  
HETATM   22  O   UNL     1      -6.123   9.941  71.421  1.00  0.00    -0.252 OA 
HETATM   23  H   UNL     1      -5.760  10.010  72.296  1.00  0.00     0.000 HD 
HETATM   24  O   UNL     1      -5.853   7.034  71.138  1.00  0.00    -0.034 OA 
HETATM   25  C   UNL     1      -8.075   6.793  72.078  1.00  0.00    -0.101 C  
HETATM   26  H   UNL     1      -5.599   6.182  71.472  1.00  0.00     0.000 HD 
ENDBRANCH  12  13
ENDBRANCH  11  12
ENDBRANCH   8  11
ENDBRANCH   7   8
ENDBRANCH   5   7
TORSDOF 5
ENDMDL
MODEL      215
REMARK 921   NORMALIZED FREE ENERGY PREDICTED BY IDOCK:   -3.96 KCAL/MOL
REMARK 922        TOTAL FREE ENERGY PREDICTED BY IDOCK:   -5.85 KCAL/MOL
REMARK 923 INTER-LIGAND FREE ENERGY PREDICTED BY IDOCK:   -5.11 KCAL/MOL
REMARK 924 INTRA-LIGAND FREE ENERGY PREDICTED BY IDOCK:   -0.74 KCAL/MOL
REMARK 927      BINDING AFFINITY PREDICTED BY RF-SCORE:    0.00 PKD
ROOT
HETATM    1  C   UNL     1     -14.163   7.673  71.330  1.00  0.00    -0.514 C  
HETATM    2  C   UNL     1     -12.818   8.294  71.750  1.00  0.00    -0.338 C  
HETATM    3  C   UNL     1     -13.101   9.663  72.398  1.00  0.00    -0.389 C  
HETATM    4  C   UNL     1     -11.933   8.520  70.512  1.00  0.00     0.055 C  
HETATM    5  N   UNL     1     -12.116   7.479  72.758  1.00  0.00    -0.560 NA 
HETATM    6  H   UNL     1     -12.639   7.476  73.633  1.00  0.00     0.000 HD 
ENDROOT
BRANCH   5   7
HETATM    7  C   UNL     1     -11.811   6.103  72.347  1.00  0.00    -0.238 C  
BRANCH   7   8
HETATM    8  C   UNL     1     -10.764   5.458  73.274  1.00  0.00    -0.276 C  
HETATM    9  H   UNL     1     -10.618   3.817  74.357  1.00  0.00     0.000 HD 
HETATM   10  O   UNL     1     -11.264   4.215  73.785  1.00  0.00    -0.245 OA 
BRANCH   8  11
HETATM   11  C   UNL     1      -9.454   5.225  72.508  1.00  0.00    -0.145 C  
BRANCH  11  12
HETATM   12  O   UNL     1      -9.611   5.619  71.129  1.00  0.00    -0.162 OA 
BRANCH  12  13
HETATM   13  C   UNL     1      -9.249   4.649  70.222  1.00  0.00    -0.132 A  
HETATM   14  C   UNL     1      -8.809   3.382  70.620  1.00  0.00    -0.143 A  
HETATM   15  C   UNL     1      -8.500   2.410  69.675  1.00  0.00    -0.087 A  
HETATM   16  C   UNL     1      -8.623   2.697  68.321  1.00  0.00    -0.109 A  
HETATM   17  C   UNL     1      -9.026   3.970  67.897  1.00  0.00    -0.152 A  
HETATM   18  C   UNL     1      -9.295   4.978  68.853  1.00  0.00    -0.174 A  
HETATM   19  C   UNL     1      -9.677   6.375  68.410  1.00  0.00    -0.131 C  
HETATM   20  C   UNL     1      -9.397   6.644  66.926  1.00  0.00    -0.148 C  
HETATM   21  C   UNL     1      -9.894   5.484  66.049  1.00  0.00    -0.059 C  
HETATM   22  O   UNL     1     -10.016   7.866  66.519  1.00  0.00    -0.345 OA 
HETATM   23  H   UNL     1      -9.842   8.033  65.600  1.00  0.00     0.000 HD 
HETATM   24  O   UNL     1     -11.303   5.253  66.183  1.00  0.00    -0.681 OA 
HETATM   25  C   UNL     1      -9.124   4.213  66.405  1.00  0.00    -0.136 C  
HETATM   26  H   UNL     1     -11.611   4.536  65.640  1.00  0.00     0.000 HD 
ENDBRANCH  12  13
ENDBRANCH  11  12
ENDBRANCH   8  11
ENDBRANCH   7   8
ENDBRANCH   5   7
TORSDOF 5
ENDMDL
MODEL      216
REMARK 921   NORMALIZED FREE ENERGY PREDICTED BY IDOCK:   -3.94 KCAL/MOL
REMARK 922        TOTAL FREE ENERGY PREDICTED BY IDOCK:   -5.82 KCAL/MOL
REMARK 923 INTER-LIGAND FREE ENERGY PREDICTED BY IDOCK:   -5.62 KCAL/MOL
REMARK 924 INTRA-LIGAND FREE ENERGY PREDICTED BY IDOCK:   -0.20 KCAL/MOL
REMARK 927      BINDING AFFINITY PREDICTED BY RF-SCORE:    0.00 PKD
ROOT
HETATM    1  C   UNL     1     -12.127  12.598  65.887  1.00  0.00    -0.459 C  
HETATM    2  C   UNL     1     -11.626  12.895  64.462  1.00  0.00    -0.350 C  
HETATM    3  C   UNL     1     -11.700  14.417  64.232  1.00  0.00    -0.328 C  
HETATM    4  C   UNL     1     -12.535  12.206  63.429  1.00  0.00    -0.625 C  
HETATM    5  N   UNL     1     -10.218  12.500  64.270  1.00  0.00    -0.471 NA 
HETATM    6  H   UNL     1      -9.609  13.084  64.843  1.00  0.00     0.000 HD 
ENDROOT
BRANCH   5   7
HETATM    7  C   UNL     1      -9.929  11.081  64.510  1.00  0.00    -0.310 C  
BRANCH   7   8
HETATM    8  C   UNL     1      -9.964  10.746  66.013  1.00  0.00    -0.242 C  
HETATM    9  H   UNL     1     -10.176   9.130  67.121  1.00  0.00     0.000 HD 
HETATM   10  O   UNL     1     -10.154   9.337  66.194  1.00  0.00    -0.288 OA 
BRANCH   8  11
HETATM   11  C   UNL     1      -8.657  11.194  66.683  1.00  0.00    -0.165 C  
BRANCH  11  12
HETATM   12  O   UNL     1      -8.601  12.634  66.746  1.00  0.00    -0.183 OA 
BRANCH  12  13
HETATM   13  C   UNL     1      -7.767  13.123  67.724  1.00  0.00    -0.153 A  
HETATM   14  C   UNL     1      -7.253  12.311  68.742  1.00  0.00    -0.098 A  
HETATM   15  C   UNL     1      -6.373  12.828  69.685  1.00  0.00    -0.091 A  
HETATM   16  C   UNL     1      -6.000  14.165  69.624  1.00  0.00    -0.114 A  
HETATM   17  C   UNL     1      -6.530  15.008  68.637  1.00  0.00    -0.087 A  
HETATM   18  C   UNL     1      -7.463  14.499  67.704  1.00  0.00    -0.195 A  
HETATM   19  C   UNL     1      -8.088  15.409  66.667  1.00  0.00    -0.133 C  
HETATM   20  C   UNL     1      -7.887  16.901  66.962  1.00  0.00    -0.199 C  
HETATM   21  C   UNL     1      -6.430  17.197  67.350  1.00  0.00    -0.147 C  
HETATM   22  O   UNL     1      -8.261  17.684  65.827  1.00  0.00    -0.543 OA 
HETATM   23  H   UNL     1      -8.137  18.608  66.010  1.00  0.00     0.000 HD 
HETATM   24  O   UNL     1      -5.498  16.836  66.322  1.00  0.00    -0.314 OA 
HETATM   25  C   UNL     1      -6.088  16.457  68.643  1.00  0.00    -0.126 C  
HETATM   26  H   UNL     1      -4.597  17.019  66.561  1.00  0.00     0.000 HD 
ENDBRANCH  12  13
ENDBRANCH  11  12
ENDBRANCH   8  11
ENDBRANCH   7   8
ENDBRANCH   5   7
TORSDOF 5
ENDMDL
MODEL      217
REMARK 921   NORMALIZED FREE ENERGY PREDICTED BY IDOCK:   -3.94 KCAL/MOL
REMARK 922        TOTAL FREE ENERGY PREDICTED BY IDOCK:   -5.82 KCAL/MOL
REMARK 923 INTER-LIGAND FREE ENERGY PREDICTED BY IDOCK:   -5.19 KCAL/MOL
REMARK 924 INTRA-LIGAND FREE ENERGY PREDICTED BY IDOCK:   -0.63 KCAL/MOL
REMARK 927      BINDING AFFINITY PREDICTED BY RF-SCORE:    0.00 PKD
ROOT
HETATM    1  C   UNL     1     -12.783   7.078  71.048  1.00  0.00    -0.300 C  
HETATM    2  C   UNL     1     -12.474   8.221  72.034  1.00  0.00    -0.351 C  
HETATM    3  C   UNL     1     -13.794   8.654  72.699  1.00  0.00    -0.295 C  
HETATM    4  C   UNL     1     -11.897   9.429  71.275  1.00  0.00    -0.435 C  
HETATM    5  N   UNL     1     -11.567   7.796  73.115  1.00  0.00    -0.634 NA 
HETATM    6  H   UNL     1     -12.029   7.111  73.712  1.00  0.00     0.000 HD 
ENDROOT
BRANCH   5   7
HETATM    7  C   UNL     1     -10.264   7.283  72.674  1.00  0.00    -0.212 C  
BRANCH   7   8
HETATM    8  C   UNL     1      -9.152   8.332  72.866  1.00  0.00    -0.262 C  
HETATM    9  H   UNL     1      -7.498   8.497  73.925  1.00  0.00     0.000 HD 
HETATM   10  O   UNL     1      -8.184   7.850  73.807  1.00  0.00    -0.177 OA 
BRANCH   8  11
HETATM   11  C   UNL     1      -8.476   8.635  71.520  1.00  0.00    -0.181 C  
BRANCH  11  12
HETATM   12  O   UNL     1      -8.499   7.463  70.680  1.00  0.00    -0.132 OA 
BRANCH  12  13
HETATM   13  C   UNL     1      -9.151   7.642  69.482  1.00  0.00    -0.146 A  
HETATM   14  C   UNL     1      -9.504   8.911  69.006  1.00  0.00    -0.156 A  
HETATM   15  C   UNL     1     -10.118   9.057  67.767  1.00  0.00    -0.260 A  
HETATM   16  C   UNL     1     -10.390   7.936  66.993  1.00  0.00    -0.411 A  
HETATM   17  C   UNL     1     -10.081   6.653  67.464  1.00  0.00    -0.202 A  
HETATM   18  C   UNL     1      -9.501   6.494  68.744  1.00  0.00    -0.128 A  
HETATM   19  C   UNL     1      -9.213   5.111  69.290  1.00  0.00    -0.151 C  
HETATM   20  C   UNL     1      -9.910   3.989  68.512  1.00  0.00     0.026 C  
HETATM   21  C   UNL     1      -9.742   4.178  66.997  1.00  0.00    -0.197 C  
HETATM   22  O   UNL     1      -9.391   2.717  68.908  1.00  0.00    -0.156 OA 
HETATM   23  H   UNL     1      -9.823   2.022  68.426  1.00  0.00     0.000 HD 
HETATM   24  O   UNL     1      -8.367   4.191  66.589  1.00  0.00    -0.101 OA 
HETATM   25  C   UNL     1     -10.421   5.479  66.569  1.00  0.00    -0.331 C  
HETATM   26  H   UNL     1      -8.262   4.308  65.651  1.00  0.00     0.000 HD 
ENDBRANCH  12  13
ENDBRANCH  11  12
ENDBRANCH   8  11
ENDBRANCH   7   8
ENDBRANCH   5   7
TORSDOF 5
ENDMDL
MODEL      218
REMARK 921   NORMALIZED FREE ENERGY PREDICTED BY IDOCK:   -3.94 KCAL/MOL
REMARK 922        TOTAL FREE ENERGY PREDICTED BY IDOCK:   -5.82 KCAL/MOL
REMARK 923 INTER-LIGAND FREE ENERGY PREDICTED BY IDOCK:   -4.69 KCAL/MOL
REMARK 924 INTRA-LIGAND FREE ENERGY PREDICTED BY IDOCK:   -1.12 KCAL/MOL
REMARK 927      BINDING AFFINITY PREDICTED BY RF-SCORE:    0.00 PKD
ROOT
HETATM    1  C   UNL     1      -9.360  16.700  67.264  1.00  0.00    -0.234 C  
HETATM    2  C   UNL     1      -9.933  15.463  67.979  1.00  0.00    -0.221 C  
HETATM    3  C   UNL     1     -10.423  15.895  69.374  1.00  0.00    -0.265 C  
HETATM    4  C   UNL     1      -8.831  14.403  68.162  1.00  0.00    -0.180 C  
HETATM    5  N   UNL     1     -11.095  14.895  67.271  1.00  0.00    -0.327 NA 
HETATM    6  H   UNL     1     -11.877  15.548  67.303  1.00  0.00     0.000 HD 
ENDROOT
BRANCH   5   7
HETATM    7  C   UNL     1     -10.842  14.479  65.887  1.00  0.00    -0.308 C  
BRANCH   7   8
HETATM    8  C   UNL     1     -11.972  13.578  65.355  1.00  0.00    -0.379 C  
HETATM    9  H   UNL     1     -12.244  12.361  63.828  1.00  0.00     0.000 HD 
HETATM   10  O   UNL     1     -11.547  12.917  64.156  1.00  0.00    -0.349 OA 
BRANCH   8  11
HETATM   11  C   UNL     1     -12.365  12.542  66.419  1.00  0.00     0.209 C  
BRANCH  11  12
HETATM   12  O   UNL     1     -11.488  11.399  66.344  1.00  0.00    -0.349 OA 
BRANCH  12  13
HETATM   13  C   UNL     1     -10.880  11.078  67.537  1.00  0.00    -0.263 A  
HETATM   14  C   UNL     1     -11.594  10.982  68.737  1.00  0.00    -0.386 A  
HETATM   15  C   UNL     1     -10.955  10.606  69.913  1.00  0.00    -0.337 A  
HETATM   16  C   UNL     1      -9.594  10.328  69.903  1.00  0.00    -0.082 A  
HETATM   17  C   UNL     1      -8.850  10.454  68.722  1.00  0.00    -0.157 A  
HETATM   18  C   UNL     1      -9.485  10.883  67.532  1.00  0.00    -0.168 A  
HETATM   19  C   UNL     1      -8.685  11.078  66.262  1.00  0.00    -0.178 C  
HETATM   20  C   UNL     1      -7.169  11.113  66.493  1.00  0.00    -0.124 C  
HETATM   21  C   UNL     1      -6.723   9.970  67.417  1.00  0.00    -0.073 C  
HETATM   22  O   UNL     1      -6.476  11.033  65.245  1.00  0.00    -0.368 OA 
HETATM   23  H   UNL     1      -5.537  11.055  65.389  1.00  0.00     0.000 HD 
HETATM   24  O   UNL     1      -7.045   8.675  66.893  1.00  0.00    -0.073 OA 
HETATM   25  C   UNL     1      -7.368  10.147  68.792  1.00  0.00    -0.084 C  
HETATM   26  H   UNL     1      -6.769   7.967  67.464  1.00  0.00     0.000 HD 
ENDBRANCH  12  13
ENDBRANCH  11  12
ENDBRANCH   8  11
ENDBRANCH   7   8
ENDBRANCH   5   7
TORSDOF 5
ENDMDL
MODEL      219
REMARK 921   NORMALIZED FREE ENERGY PREDICTED BY IDOCK:   -3.94 KCAL/MOL
REMARK 922        TOTAL FREE ENERGY PREDICTED BY IDOCK:   -5.81 KCAL/MOL
REMARK 923 INTER-LIGAND FREE ENERGY PREDICTED BY IDOCK:   -5.30 KCAL/MOL
REMARK 924 INTRA-LIGAND FREE ENERGY PREDICTED BY IDOCK:   -0.51 KCAL/MOL
REMARK 927      BINDING AFFINITY PREDICTED BY RF-SCORE:    0.00 PKD
ROOT
HETATM    1  C   UNL     1      -6.114   7.772  66.417  1.00  0.00    -0.045 C  
HETATM    2  C   UNL     1      -6.634   7.373  67.810  1.00  0.00    -0.057 C  
HETATM    3  C   UNL     1      -5.612   7.846  68.861  1.00  0.00    -0.030 C  
HETATM    4  C   UNL     1      -6.754   5.842  67.909  1.00  0.00    -0.058 C  
HETATM    5  N   UNL     1      -7.917   8.023  68.135  1.00  0.00    -0.126 NA 
HETATM    6  H   UNL     1      -7.786   9.030  68.231  1.00  0.00     0.000 HD 
ENDROOT
BRANCH   5   7
HETATM    7  C   UNL     1      -9.014   7.743  67.202  1.00  0.00    -0.126 C  
BRANCH   7   8
HETATM    8  C   UNL     1     -10.082   8.853  67.239  1.00  0.00    -0.239 C  
HETATM    9  H   UNL     1     -10.553  10.357  68.424  1.00  0.00     0.000 HD 
HETATM   10  O   UNL     1      -9.894   9.673  68.400  1.00  0.00    -0.148 OA 
BRANCH   8  11
HETATM   11  C   UNL     1      -9.997   9.710  65.967  1.00  0.00    -0.274 C  
BRANCH  11  12
HETATM   12  O   UNL     1      -9.522  11.033  66.293  1.00  0.00    -0.182 OA 
BRANCH  12  13
HETATM   13  C   UNL     1     -10.470  12.021  66.152  1.00  0.00    -0.236 A  
HETATM   14  C   UNL     1     -11.453  11.976  65.156  1.00  0.00    -0.344 A  
HETATM   15  C   UNL     1     -12.424  12.967  65.075  1.00  0.00    -0.553 A  
HETATM   16  C   UNL     1     -12.421  14.016  65.986  1.00  0.00    -0.489 A  
HETATM   17  C   UNL     1     -11.425  14.103  66.968  1.00  0.00    -0.370 A  
HETATM   18  C   UNL     1     -10.405  13.124  67.025  1.00  0.00    -0.249 A  
HETATM   19  C   UNL     1      -9.290  13.235  68.044  1.00  0.00    -0.218 C  
HETATM   20  C   UNL     1      -9.200  14.616  68.705  1.00  0.00    -0.194 C  
HETATM   21  C   UNL     1     -10.586  15.111  69.145  1.00  0.00    -0.256 C  
HETATM   22  O   UNL     1      -8.316  14.571  69.827  1.00  0.00    -0.342 OA 
HETATM   23  H   UNL     1      -8.260  15.426  70.236  1.00  0.00     0.000 HD 
HETATM   24  O   UNL     1     -11.218  14.229  70.084  1.00  0.00    -0.440 OA 
HETATM   25  C   UNL     1     -11.478  15.283  67.916  1.00  0.00    -0.325 C  
HETATM   26  H   UNL     1     -12.075  14.535  70.357  1.00  0.00     0.000 HD 
ENDBRANCH  12  13
ENDBRANCH  11  12
ENDBRANCH   8  11
ENDBRANCH   7   8
ENDBRANCH   5   7
TORSDOF 5
ENDMDL
MODEL      220
REMARK 921   NORMALIZED FREE ENERGY PREDICTED BY IDOCK:   -3.94 KCAL/MOL
REMARK 922        TOTAL FREE ENERGY PREDICTED BY IDOCK:   -5.81 KCAL/MOL
REMARK 923 INTER-LIGAND FREE ENERGY PREDICTED BY IDOCK:   -4.75 KCAL/MOL
REMARK 924 INTRA-LIGAND FREE ENERGY PREDICTED BY IDOCK:   -1.06 KCAL/MOL
REMARK 927      BINDING AFFINITY PREDICTED BY RF-SCORE:    0.00 PKD
ROOT
HETATM    1  C   UNL     1     -11.730  12.790  66.249  1.00  0.00    -0.460 C  
HETATM    2  C   UNL     1     -11.189  13.057  64.832  1.00  0.00    -0.302 C  
HETATM    3  C   UNL     1     -10.664  14.504  64.781  1.00  0.00    -0.414 C  
HETATM    4  C   UNL     1     -12.322  12.917  63.800  1.00  0.00    -0.500 C  
HETATM    5  N   UNL     1     -10.056  12.177  64.491  1.00  0.00    -0.365 NA 
HETATM    6  H   UNL     1      -9.252  12.397  65.078  1.00  0.00     0.000 HD 
ENDROOT
BRANCH   5   7
HETATM    7  C   UNL     1     -10.342  10.739  64.547  1.00  0.00    -0.331 C  
BRANCH   7   8
HETATM    8  C   UNL     1      -9.059   9.903  64.384  1.00  0.00    -0.254 C  
HETATM    9  H   UNL     1      -7.425   9.975  63.284  1.00  0.00     0.000 HD 
HETATM   10  O   UNL     1      -8.216  10.491  63.384  1.00  0.00    -0.157 OA 
BRANCH   8  11
HETATM   11  C   UNL     1      -8.311   9.818  65.723  1.00  0.00    -0.129 C  
BRANCH  11  12
HETATM   12  O   UNL     1      -8.788  10.841  66.621  1.00  0.00    -0.140 OA 
BRANCH  12  13
HETATM   13  C   UNL     1      -7.975  11.057  67.710  1.00  0.00    -0.115 A  
HETATM   14  C   UNL     1      -7.466  10.006  68.482  1.00  0.00    -0.086 A  
HETATM   15  C   UNL     1      -6.607  10.259  69.545  1.00  0.00    -0.066 A  
HETATM   16  C   UNL     1      -6.252  11.567  69.852  1.00  0.00    -0.147 A  
HETATM   17  C   UNL     1      -6.778  12.639  69.117  1.00  0.00    -0.086 A  
HETATM   18  C   UNL     1      -7.690  12.390  68.065  1.00  0.00    -0.135 A  
HETATM   19  C   UNL     1      -8.310  13.540  67.299  1.00  0.00    -0.188 C  
HETATM   20  C   UNL     1      -8.134  14.899  67.986  1.00  0.00    -0.136 C  
HETATM   21  C   UNL     1      -6.687  15.094  68.465  1.00  0.00    -0.108 C  
HETATM   22  O   UNL     1      -8.501  15.955  67.096  1.00  0.00    -0.171 OA 
HETATM   23  H   UNL     1      -8.392  16.797  67.521  1.00  0.00     0.000 HD 
HETATM   24  O   UNL     1      -5.734  15.029  67.395  1.00  0.00    -0.341 OA 
HETATM   25  C   UNL     1      -6.355  14.037  69.518  1.00  0.00    -0.121 C  
HETATM   26  H   UNL     1      -4.839  15.150  67.691  1.00  0.00     0.000 HD 
ENDBRANCH  12  13
ENDBRANCH  11  12
ENDBRANCH   8  11
ENDBRANCH   7   8
ENDBRANCH   5   7
TORSDOF 5
ENDMDL
MODEL      221
REMARK 921   NORMALIZED FREE ENERGY PREDICTED BY IDOCK:   -3.94 KCAL/MOL
REMARK 922        TOTAL FREE ENERGY PREDICTED BY IDOCK:   -5.81 KCAL/MOL
REMARK 923 INTER-LIGAND FREE ENERGY PREDICTED BY IDOCK:   -5.73 KCAL/MOL
REMARK 924 INTRA-LIGAND FREE ENERGY PREDICTED BY IDOCK:   -0.08 KCAL/MOL
REMARK 927      BINDING AFFINITY PREDICTED BY RF-SCORE:    0.00 PKD
ROOT
HETATM    1  C   UNL     1      -7.674   9.154  63.557  1.00  0.00    -0.121 C  
HETATM    2  C   UNL     1      -6.679   9.629  64.632  1.00  0.00    -0.101 C  
HETATM    3  C   UNL     1      -5.334   9.931  63.945  1.00  0.00    -0.086 C  
HETATM    4  C   UNL     1      -6.453   8.515  65.669  1.00  0.00    -0.056 C  
HETATM    5  N   UNL     1      -7.117  10.876  65.287  1.00  0.00    -0.361 NA 
HETATM    6  H   UNL     1      -7.102  11.646  64.619  1.00  0.00     0.000 HD 
ENDROOT
BRANCH   5   7
HETATM    7  C   UNL     1      -8.424  10.808  65.950  1.00  0.00    -0.166 C  
BRANCH   7   8
HETATM    8  C   UNL     1      -9.518  11.495  65.111  1.00  0.00    -0.168 C  
HETATM    9  H   UNL     1     -11.297  11.024  64.403  1.00  0.00     0.000 HD 
HETATM   10  O   UNL     1     -10.622  10.600  64.921  1.00  0.00    -0.279 OA 
BRANCH   8  11
HETATM   11  C   UNL     1      -9.991  12.778  65.810  1.00  0.00    -0.251 C  
BRANCH  11  12
HETATM   12  O   UNL     1     -11.384  12.662  66.167  1.00  0.00    -0.298 OA 
BRANCH  12  13
HETATM   13  C   UNL     1     -11.607  12.494  67.514  1.00  0.00    -0.361 A  
HETATM   14  C   UNL     1     -11.906  11.245  68.072  1.00  0.00    -0.244 A  
HETATM   15  C   UNL     1     -12.076  11.104  69.444  1.00  0.00    -0.396 A  
HETATM   16  C   UNL     1     -11.955  12.212  70.274  1.00  0.00    -0.389 A  
HETATM   17  C   UNL     1     -11.693  13.479  69.736  1.00  0.00    -0.363 A  
HETATM   18  C   UNL     1     -11.567  13.637  68.336  1.00  0.00    -0.377 A  
HETATM   19  C   UNL     1     -11.341  15.009  67.735  1.00  0.00    -0.340 C  
HETATM   20  C   UNL     1     -11.615  16.158  68.713  1.00  0.00    -0.297 C  
HETATM   21  C   UNL     1     -10.964  15.890  70.079  1.00  0.00    -0.358 C  
HETATM   22  O   UNL     1     -11.134  17.391  68.174  1.00  0.00    -0.259 OA 
HETATM   23  H   UNL     1     -11.303  18.103  68.780  1.00  0.00     0.000 HD 
HETATM   24  O   UNL     1      -9.541  15.731  69.994  1.00  0.00    -0.155 OA 
HETATM   25  C   UNL     1     -11.588  14.642  70.702  1.00  0.00    -0.305 C  
HETATM   26  H   UNL     1      -9.139  15.566  70.839  1.00  0.00     0.000 HD 
ENDBRANCH  12  13
ENDBRANCH  11  12
ENDBRANCH   8  11
ENDBRANCH   7   8
ENDBRANCH   5   7
TORSDOF 5
ENDMDL
MODEL      222
REMARK 921   NORMALIZED FREE ENERGY PREDICTED BY IDOCK:   -3.93 KCAL/MOL
REMARK 922        TOTAL FREE ENERGY PREDICTED BY IDOCK:   -5.80 KCAL/MOL
REMARK 923 INTER-LIGAND FREE ENERGY PREDICTED BY IDOCK:   -5.38 KCAL/MOL
REMARK 924 INTRA-LIGAND FREE ENERGY PREDICTED BY IDOCK:   -0.42 KCAL/MOL
REMARK 927      BINDING AFFINITY PREDICTED BY RF-SCORE:    0.00 PKD
ROOT
HETATM    1  C   UNL     1     -10.307  10.487  65.170  1.00  0.00    -0.310 C  
HETATM    2  C   UNL     1      -9.573   9.917  66.398  1.00  0.00    -0.200 C  
HETATM    3  C   UNL     1      -8.645   8.784  65.922  1.00  0.00    -0.174 C  
HETATM    4  C   UNL     1     -10.590   9.324  67.390  1.00  0.00    -0.324 C  
HETATM    5  N   UNL     1      -8.721  10.924  67.057  1.00  0.00    -0.139 NA 
HETATM    6  H   UNL     1      -7.950  11.186  66.443  1.00  0.00     0.000 HD 
ENDROOT
BRANCH   5   7
HETATM    7  C   UNL     1      -9.421  12.124  67.529  1.00  0.00    -0.180 C  
BRANCH   7   8
HETATM    8  C   UNL     1      -8.951  13.382  66.775  1.00  0.00    -0.179 C  
HETATM    9  H   UNL     1      -9.745  14.704  65.547  1.00  0.00     0.000 HD 
HETATM   10  O   UNL     1     -10.035  13.928  66.012  1.00  0.00    -0.298 OA 
BRANCH   8  11
HETATM   11  C   UNL     1      -8.427  14.428  67.771  1.00  0.00    -0.173 C  
BRANCH  11  12
HETATM   12  O   UNL     1      -7.906  15.570  67.060  1.00  0.00    -0.205 OA 
BRANCH  12  13
HETATM   13  C   UNL     1      -8.454  16.772  67.447  1.00  0.00    -0.189 A  
HETATM   14  C   UNL     1      -9.538  16.848  68.329  1.00  0.00    -0.258 A  
HETATM   15  C   UNL     1     -10.033  18.081  68.738  1.00  0.00    -0.380 A  
HETATM   16  C   UNL     1      -9.452  19.252  68.264  1.00  0.00    -0.421 A  
HETATM   17  C   UNL     1      -8.390  19.201  67.351  1.00  0.00    -0.307 A  
HETATM   18  C   UNL     1      -7.914  17.950  66.895  1.00  0.00    -0.249 A  
HETATM   19  C   UNL     1      -6.804  17.879  65.866  1.00  0.00    -0.315 C  
HETATM   20  C   UNL     1      -6.538  19.215  65.161  1.00  0.00    -0.195 C  
HETATM   21  C   UNL     1      -6.467  20.370  66.171  1.00  0.00    -0.218 C  
HETATM   22  O   UNL     1      -5.325  19.144  64.410  1.00  0.00    -0.188 OA 
HETATM   23  H   UNL     1      -5.160  19.971  63.973  1.00  0.00     0.000 HD 
HETATM   24  O   UNL     1      -5.432  20.189  67.148  1.00  0.00    -0.164 OA 
HETATM   25  C   UNL     1      -7.818  20.518  66.869  1.00  0.00    -0.311 C  
HETATM   26  H   UNL     1      -5.387  20.904  67.773  1.00  0.00     0.000 HD 
ENDBRANCH  12  13
ENDBRANCH  11  12
ENDBRANCH   8  11
ENDBRANCH   7   8
ENDBRANCH   5   7
TORSDOF 5
ENDMDL
MODEL      223
REMARK 921   NORMALIZED FREE ENERGY PREDICTED BY IDOCK:   -3.92 KCAL/MOL
REMARK 922        TOTAL FREE ENERGY PREDICTED BY IDOCK:   -5.79 KCAL/MOL
REMARK 923 INTER-LIGAND FREE ENERGY PREDICTED BY IDOCK:   -5.38 KCAL/MOL
REMARK 924 INTRA-LIGAND FREE ENERGY PREDICTED BY IDOCK:   -0.41 KCAL/MOL
REMARK 927      BINDING AFFINITY PREDICTED BY RF-SCORE:    0.00 PKD
ROOT
HETATM    1  C   UNL     1     -12.559  14.104  64.706  1.00  0.00    -0.326 C  
HETATM    2  C   UNL     1     -11.472  13.792  65.751  1.00  0.00    -0.318 C  
HETATM    3  C   UNL     1     -12.105  13.901  67.152  1.00  0.00    -0.422 C  
HETATM    4  C   UNL     1     -10.335  14.824  65.653  1.00  0.00    -0.369 C  
HETATM    5  N   UNL     1     -10.950  12.419  65.621  1.00  0.00    -0.277 NA 
HETATM    6  H   UNL     1     -11.677  11.744  65.853  1.00  0.00     0.000 HD 
ENDROOT
BRANCH   5   7
HETATM    7  C   UNL     1     -10.358  12.096  64.318  1.00  0.00    -0.334 C  
BRANCH   7   8
HETATM    8  C   UNL     1      -9.926  10.620  64.246  1.00  0.00    -0.349 C  
HETATM    9  H   UNL     1      -8.284   9.620  63.808  1.00  0.00     0.000 HD 
HETATM   10  O   UNL     1      -8.550  10.531  63.852  1.00  0.00    -0.171 OA 
BRANCH   8  11
HETATM   11  C   UNL     1     -10.129   9.944  65.611  1.00  0.00    -0.237 C  
BRANCH  11  12
HETATM   12  O   UNL     1      -9.372   8.718  65.674  1.00  0.00    -0.214 OA 
BRANCH  12  13
HETATM   13  C   UNL     1      -9.719   7.896  66.722  1.00  0.00    -0.234 A  
HETATM   14  C   UNL     1     -10.347   8.381  67.875  1.00  0.00    -0.279 A  
HETATM   15  C   UNL     1     -10.728   7.513  68.892  1.00  0.00    -0.135 A  
HETATM   16  C   UNL     1     -10.481   6.151  68.769  1.00  0.00    -0.295 A  
HETATM   17  C   UNL     1      -9.820   5.646  67.641  1.00  0.00    -0.154 A  
HETATM   18  C   UNL     1      -9.387   6.531  66.625  1.00  0.00    -0.184 A  
HETATM   19  C   UNL     1      -8.622   6.008  65.427  1.00  0.00    -0.127 C  
HETATM   20  C   UNL     1      -8.093   4.581  65.614  1.00  0.00    -0.106 C  
HETATM   21  C   UNL     1      -9.177   3.659  66.192  1.00  0.00    -0.167 C  
HETATM   22  O   UNL     1      -7.621   4.061  64.369  1.00  0.00    -0.074 OA 
HETATM   23  H   UNL     1      -7.293   3.177  64.485  1.00  0.00     0.000 HD 
HETATM   24  O   UNL     1     -10.340   3.577  65.356  1.00  0.00    -0.399 OA 
HETATM   25  C   UNL     1      -9.574   4.153  67.584  1.00  0.00    -0.213 C  
HETATM   26  H   UNL     1     -11.011   3.007  65.714  1.00  0.00     0.000 HD 
ENDBRANCH  12  13
ENDBRANCH  11  12
ENDBRANCH   8  11
ENDBRANCH   7   8
ENDBRANCH   5   7
TORSDOF 5
ENDMDL
MODEL      224
REMARK 921   NORMALIZED FREE ENERGY PREDICTED BY IDOCK:   -3.92 KCAL/MOL
REMARK 922        TOTAL FREE ENERGY PREDICTED BY IDOCK:   -5.78 KCAL/MOL
REMARK 923 INTER-LIGAND FREE ENERGY PREDICTED BY IDOCK:   -5.33 KCAL/MOL
REMARK 924 INTRA-LIGAND FREE ENERGY PREDICTED BY IDOCK:   -0.45 KCAL/MOL
REMARK 927      BINDING AFFINITY PREDICTED BY RF-SCORE:    0.00 PKD
ROOT
HETATM    1  C   UNL     1      -7.798   8.536  72.424  1.00  0.00    -0.112 C  
HETATM    2  C   UNL     1      -9.097   8.343  71.621  1.00  0.00    -0.205 C  
HETATM    3  C   UNL     1     -10.289   8.632  72.553  1.00  0.00    -0.229 C  
HETATM    4  C   UNL     1      -9.205   6.885  71.137  1.00  0.00    -0.154 C  
HETATM    5  N   UNL     1      -9.200   9.281  70.488  1.00  0.00    -0.243 NA 
HETATM    6  H   UNL     1      -9.296  10.236  70.832  1.00  0.00     0.000 HD 
ENDROOT
BRANCH   5   7
HETATM    7  C   UNL     1      -8.108   9.204  69.511  1.00  0.00    -0.107 C  
BRANCH   7   8
HETATM    8  C   UNL     1      -7.446  10.578  69.298  1.00  0.00    -0.122 C  
HETATM    9  H   UNL     1      -5.669  11.253  68.773  1.00  0.00     0.000 HD 
HETATM   10  O   UNL     1      -6.078  10.406  68.905  1.00  0.00    -0.041 OA 
BRANCH   8  11
HETATM   11  C   UNL     1      -8.208  11.370  68.224  1.00  0.00    -0.150 C  
BRANCH  11  12
HETATM   12  O   UNL     1      -9.607  11.017  68.249  1.00  0.00    -0.158 OA 
BRANCH  12  13
HETATM   13  C   UNL     1     -10.459  12.096  68.281  1.00  0.00    -0.213 A  
HETATM   14  C   UNL     1     -11.120  12.492  69.450  1.00  0.00    -0.145 A  
HETATM   15  C   UNL     1     -11.935  13.618  69.456  1.00  0.00    -0.397 A  
HETATM   16  C   UNL     1     -12.103  14.358  68.292  1.00  0.00    -0.260 A  
HETATM   17  C   UNL     1     -11.482  13.960  67.100  1.00  0.00    -0.370 A  
HETATM   18  C   UNL     1     -10.690  12.788  67.076  1.00  0.00    -0.272 A  
HETATM   19  C   UNL     1     -10.059  12.314  65.783  1.00  0.00    -0.274 C  
HETATM   20  C   UNL     1     -10.638  12.992  64.535  1.00  0.00    -0.393 C  
HETATM   21  C   UNL     1     -10.747  14.512  64.730  1.00  0.00    -0.393 C  
HETATM   22  O   UNL     1      -9.829  12.701  63.394  1.00  0.00    -0.641 OA 
HETATM   23  H   UNL     1     -10.187  13.120  62.621  1.00  0.00     0.000 HD 
HETATM   24  O   UNL     1      -9.481  15.128  65.003  1.00  0.00    -0.205 OA 
HETATM   25  C   UNL     1     -11.723  14.809  65.869  1.00  0.00    -0.248 C  
HETATM   26  H   UNL     1      -9.548  16.068  65.123  1.00  0.00     0.000 HD 
ENDBRANCH  12  13
ENDBRANCH  11  12
ENDBRANCH   8  11
ENDBRANCH   7   8
ENDBRANCH   5   7
TORSDOF 5
ENDMDL
MODEL      225
REMARK 921   NORMALIZED FREE ENERGY PREDICTED BY IDOCK:   -3.91 KCAL/MOL
REMARK 922        TOTAL FREE ENERGY PREDICTED BY IDOCK:   -5.78 KCAL/MOL
REMARK 923 INTER-LIGAND FREE ENERGY PREDICTED BY IDOCK:   -5.20 KCAL/MOL
REMARK 924 INTRA-LIGAND FREE ENERGY PREDICTED BY IDOCK:   -0.58 KCAL/MOL
REMARK 927      BINDING AFFINITY PREDICTED BY RF-SCORE:    0.00 PKD
ROOT
HETATM    1  C   UNL     1      -7.351   9.242  66.313  1.00  0.00    -0.092 C  
HETATM    2  C   UNL     1      -8.793   9.327  65.780  1.00  0.00    -0.177 C  
HETATM    3  C   UNL     1      -8.765  10.055  64.423  1.00  0.00    -0.217 C  
HETATM    4  C   UNL     1      -9.665  10.146  66.749  1.00  0.00    -0.235 C  
HETATM    5  N   UNL     1      -9.380   7.996  65.542  1.00  0.00    -0.397 NA 
HETATM    6  H   UNL     1      -8.892   7.529  64.778  1.00  0.00     0.000 HD 
ENDROOT
BRANCH   5   7
HETATM    7  C   UNL     1      -9.436   7.117  66.716  1.00  0.00    -0.169 C  
BRANCH   7   8
HETATM    8  C   UNL     1     -10.822   6.462  66.863  1.00  0.00    -0.357 C  
HETATM    9  H   UNL     1     -11.719   4.831  66.213  1.00  0.00     0.000 HD 
HETATM   10  O   UNL     1     -10.864   5.235  66.122  1.00  0.00    -0.257 OA 
BRANCH   8  11
HETATM   11  C   UNL     1     -11.124   6.195  68.345  1.00  0.00    -0.248 C  
BRANCH  11  12
HETATM   12  O   UNL     1      -9.896   6.157  69.101  1.00  0.00    -0.139 OA 
BRANCH  12  13
HETATM   13  C   UNL     1      -9.939   6.867  70.280  1.00  0.00    -0.179 A  
HETATM   14  C   UNL     1      -9.870   8.265  70.313  1.00  0.00    -0.186 A  
HETATM   15  C   UNL     1      -9.967   8.950  71.518  1.00  0.00    -0.391 A  
HETATM   16  C   UNL     1     -10.129   8.245  72.705  1.00  0.00    -0.365 A  
HETATM   17  C   UNL     1     -10.163   6.844  72.701  1.00  0.00    -0.210 A  
HETATM   18  C   UNL     1     -10.016   6.139  71.484  1.00  0.00    -0.211 A  
HETATM   19  C   UNL     1      -9.994   4.625  71.470  1.00  0.00    -0.265 C  
HETATM   20  C   UNL     1      -9.791   4.004  72.858  1.00  0.00    -0.138 C  
HETATM   21  C   UNL     1     -10.703   4.669  73.901  1.00  0.00    -0.294 C  
HETATM   22  O   UNL     1     -10.044   2.598  72.812  1.00  0.00    -0.131 OA 
HETATM   23  H   UNL     1      -9.918   2.213  73.671  1.00  0.00     0.000 HD 
HETATM   24  O   UNL     1     -12.095   4.549  73.578  1.00  0.00    -0.237 OA 
HETATM   25  C   UNL     1     -10.327   6.145  74.035  1.00  0.00    -0.311 C  
HETATM   26  H   UNL     1     -12.659   4.960  74.223  1.00  0.00     0.000 HD 
ENDBRANCH  12  13
ENDBRANCH  11  12
ENDBRANCH   8  11
ENDBRANCH   7   8
ENDBRANCH   5   7
TORSDOF 5
ENDMDL
MODEL      226
REMARK 921   NORMALIZED FREE ENERGY PREDICTED BY IDOCK:   -3.90 KCAL/MOL
REMARK 922        TOTAL FREE ENERGY PREDICTED BY IDOCK:   -5.77 KCAL/MOL
REMARK 923 INTER-LIGAND FREE ENERGY PREDICTED BY IDOCK:   -5.05 KCAL/MOL
REMARK 924 INTRA-LIGAND FREE ENERGY PREDICTED BY IDOCK:   -0.72 KCAL/MOL
REMARK 927      BINDING AFFINITY PREDICTED BY RF-SCORE:    0.00 PKD
ROOT
HETATM    1  C   UNL     1      -7.207   4.674  65.715  1.00  0.00    -0.076 C  
HETATM    2  C   UNL     1      -8.277   5.254  64.771  1.00  0.00    -0.130 C  
HETATM    3  C   UNL     1      -9.451   4.259  64.703  1.00  0.00    -0.163 C  
HETATM    4  C   UNL     1      -7.698   5.415  63.354  1.00  0.00    -0.085 C  
HETATM    5  N   UNL     1      -8.824   6.531  65.263  1.00  0.00    -0.363 NA 
HETATM    6  H   UNL     1      -9.350   6.379  66.123  1.00  0.00     0.000 HD 
ENDROOT
BRANCH   5   7
HETATM    7  C   UNL     1      -7.838   7.601  65.458  1.00  0.00    -0.112 C  
BRANCH   7   8
HETATM    8  C   UNL     1      -8.284   8.585  66.556  1.00  0.00    -0.108 C  
HETATM    9  H   UNL     1      -7.838  10.424  67.107  1.00  0.00     0.000 HD 
HETATM   10  O   UNL     1      -7.562   9.817  66.430  1.00  0.00    -0.097 OA 
BRANCH   8  11
HETATM   11  C   UNL     1      -9.795   8.844  66.449  1.00  0.00    -0.283 C  
BRANCH  11  12
HETATM   12  O   UNL     1     -10.490   8.156  67.509  1.00  0.00    -0.244 OA 
BRANCH  12  13
HETATM   13  C   UNL     1     -10.728   8.930  68.621  1.00  0.00    -0.078 A  
HETATM   14  C   UNL     1     -10.814  10.326  68.555  1.00  0.00    -0.281 A  
HETATM   15  C   UNL     1     -11.106  11.072  69.691  1.00  0.00    -0.320 A  
HETATM   16  C   UNL     1     -11.310  10.432  70.907  1.00  0.00    -0.307 A  
HETATM   17  C   UNL     1     -11.192   9.039  71.006  1.00  0.00    -0.361 A  
HETATM   18  C   UNL     1     -10.848   8.278  69.864  1.00  0.00    -0.213 A  
HETATM   19  C   UNL     1     -10.662   6.779  69.967  1.00  0.00    -0.287 C  
HETATM   20  C   UNL     1     -10.535   6.276  71.411  1.00  0.00    -0.219 C  
HETATM   21  C   UNL     1     -11.613   6.899  72.311  1.00  0.00    -0.270 C  
HETATM   22  O   UNL     1     -10.629   4.850  71.448  1.00  0.00    -0.148 OA 
HETATM   23  H   UNL     1     -10.550   4.539  72.342  1.00  0.00     0.000 HD 
HETATM   24  O   UNL     1     -12.945   6.599  71.870  1.00  0.00    -0.459 OA 
HETATM   25  C   UNL     1     -11.415   8.413  72.368  1.00  0.00    -0.451 C  
HETATM   26  H   UNL     1     -13.612   6.984  72.426  1.00  0.00     0.000 HD 
ENDBRANCH  12  13
ENDBRANCH  11  12
ENDBRANCH   8  11
ENDBRANCH   7   8
ENDBRANCH   5   7
TORSDOF 5
ENDMDL
MODEL      227
REMARK 921   NORMALIZED FREE ENERGY PREDICTED BY IDOCK:   -3.90 KCAL/MOL
REMARK 922        TOTAL FREE ENERGY PREDICTED BY IDOCK:   -5.77 KCAL/MOL
REMARK 923 INTER-LIGAND FREE ENERGY PREDICTED BY IDOCK:   -5.32 KCAL/MOL
REMARK 924 INTRA-LIGAND FREE ENERGY PREDICTED BY IDOCK:   -0.45 KCAL/MOL
REMARK 927      BINDING AFFINITY PREDICTED BY RF-SCORE:    0.00 PKD
ROOT
HETATM    1  C   UNL     1     -11.893  12.390  65.731  1.00  0.00    -0.467 C  
HETATM    2  C   UNL     1     -10.602  12.778  64.987  1.00  0.00    -0.308 C  
HETATM    3  C   UNL     1     -10.611  14.303  64.766  1.00  0.00    -0.434 C  
HETATM    4  C   UNL     1     -10.561  12.091  63.610  1.00  0.00    -0.503 C  
HETATM    5  N   UNL     1      -9.391  12.464  65.767  1.00  0.00    -0.440 NA 
HETATM    6  H   UNL     1      -9.348  13.051  66.600  1.00  0.00     0.000 HD 
ENDROOT
BRANCH   5   7
HETATM    7  C   UNL     1      -9.233  11.053  66.137  1.00  0.00    -0.190 C  
BRANCH   7   8
HETATM    8  C   UNL     1      -7.748  10.676  66.298  1.00  0.00    -0.143 C  
HETATM    9  H   UNL     1      -6.125  11.508  67.047  1.00  0.00     0.000 HD 
HETATM   10  O   UNL     1      -7.041  11.741  66.947  1.00  0.00    -0.140 OA 
BRANCH   8  11
HETATM   11  C   UNL     1      -7.619   9.381  67.115  1.00  0.00    -0.091 C  
BRANCH  11  12
HETATM   12  O   UNL     1      -8.756   8.527  66.870  1.00  0.00    -0.124 OA 
BRANCH  12  13
HETATM   13  C   UNL     1      -8.515   7.191  67.097  1.00  0.00    -0.121 A  
HETATM   14  C   UNL     1      -7.579   6.463  66.352  1.00  0.00    -0.090 A  
HETATM   15  C   UNL     1      -7.326   5.128  66.643  1.00  0.00    -0.086 A  
HETATM   16  C   UNL     1      -8.009   4.504  67.679  1.00  0.00    -0.096 A  
HETATM   17  C   UNL     1      -8.978   5.200  68.415  1.00  0.00    -0.118 A  
HETATM   18  C   UNL     1      -9.274   6.545  68.092  1.00  0.00    -0.112 A  
HETATM   19  C   UNL     1     -10.357   7.294  68.840  1.00  0.00    -0.207 C  
HETATM   20  C   UNL     1     -11.272   6.382  69.667  1.00  0.00    -0.418 C  
HETATM   21  C   UNL     1     -10.454   5.364  70.477  1.00  0.00    -0.265 C  
HETATM   22  O   UNL     1     -12.089   7.162  70.543  1.00  0.00    -0.526 OA 
HETATM   23  H   UNL     1     -12.655   6.597  71.054  1.00  0.00     0.000 HD 
HETATM   24  O   UNL     1      -9.537   5.988  71.387  1.00  0.00    -0.159 OA 
HETATM   25  C   UNL     1      -9.691   4.449  69.520  1.00  0.00    -0.280 C  
HETATM   26  H   UNL     1      -9.031   5.359  71.889  1.00  0.00     0.000 HD 
ENDBRANCH  12  13
ENDBRANCH  11  12
ENDBRANCH   8  11
ENDBRANCH   7   8
ENDBRANCH   5   7
TORSDOF 5
ENDMDL
MODEL      228
REMARK 921   NORMALIZED FREE ENERGY PREDICTED BY IDOCK:   -3.89 KCAL/MOL
REMARK 922        TOTAL FREE ENERGY PREDICTED BY IDOCK:   -5.76 KCAL/MOL
REMARK 923 INTER-LIGAND FREE ENERGY PREDICTED BY IDOCK:   -4.46 KCAL/MOL
REMARK 924 INTRA-LIGAND FREE ENERGY PREDICTED BY IDOCK:   -1.30 KCAL/MOL
REMARK 927      BINDING AFFINITY PREDICTED BY RF-SCORE:    0.00 PKD
ROOT
HETATM    1  C   UNL     1     -13.933   7.321  71.618  1.00  0.00    -0.488 C  
HETATM    2  C   UNL     1     -12.416   7.496  71.417  1.00  0.00    -0.352 C  
HETATM    3  C   UNL     1     -12.116   9.001  71.291  1.00  0.00    -0.375 C  
HETATM    4  C   UNL     1     -11.974   6.805  70.115  1.00  0.00    -0.244 C  
HETATM    5  N   UNL     1     -11.639   6.998  72.567  1.00  0.00    -0.422 NA 
HETATM    6  H   UNL     1     -11.819   7.574  73.388  1.00  0.00     0.000 HD 
ENDROOT
BRANCH   5   7
HETATM    7  C   UNL     1     -11.840   5.581  72.891  1.00  0.00    -0.067 C  
BRANCH   7   8
HETATM    8  C   UNL     1     -10.601   4.979  73.581  1.00  0.00    -0.269 C  
HETATM    9  H   UNL     1     -10.230   3.528  74.862  1.00  0.00     0.000 HD 
HETATM   10  O   UNL     1     -10.995   3.899  74.437  1.00  0.00    -0.121 OA 
BRANCH   8  11
HETATM   11  C   UNL     1      -9.601   4.482  72.527  1.00  0.00    -0.140 C  
BRANCH  11  12
HETATM   12  O   UNL     1      -8.922   5.602  71.922  1.00  0.00    -0.138 OA 
BRANCH  12  13
HETATM   13  C   UNL     1      -8.825   5.528  70.551  1.00  0.00    -0.136 A  
HETATM   14  C   UNL     1      -8.967   4.320  69.857  1.00  0.00    -0.153 A  
HETATM   15  C   UNL     1      -8.912   4.291  68.469  1.00  0.00    -0.154 A  
HETATM   16  C   UNL     1      -8.710   5.468  67.759  1.00  0.00    -0.106 A  
HETATM   17  C   UNL     1      -8.527   6.684  68.432  1.00  0.00    -0.125 A  
HETATM   18  C   UNL     1      -8.533   6.712  69.847  1.00  0.00    -0.139 A  
HETATM   19  C   UNL     1      -8.281   8.007  70.590  1.00  0.00    -0.114 C  
HETATM   20  C   UNL     1      -7.698   9.117  69.706  1.00  0.00    -0.082 C  
HETATM   21  C   UNL     1      -8.460   9.224  68.376  1.00  0.00    -0.120 C  
HETATM   22  O   UNL     1      -7.734  10.368  70.394  1.00  0.00    -0.442 OA 
HETATM   23  H   UNL     1      -7.373  11.055  69.847  1.00  0.00     0.000 HD 
HETATM   24  O   UNL     1      -9.854   9.511  68.557  1.00  0.00    -0.152 OA 
HETATM   25  C   UNL     1      -8.297   7.922  67.591  1.00  0.00    -0.124 C  
HETATM   26  H   UNL     1     -10.326   9.577  67.735  1.00  0.00     0.000 HD 
ENDBRANCH  12  13
ENDBRANCH  11  12
ENDBRANCH   8  11
ENDBRANCH   7   8
ENDBRANCH   5   7
TORSDOF 5
ENDMDL
MODEL      229
REMARK 921   NORMALIZED FREE ENERGY PREDICTED BY IDOCK:   -3.89 KCAL/MOL
REMARK 922        TOTAL FREE ENERGY PREDICTED BY IDOCK:   -5.75 KCAL/MOL
REMARK 923 INTER-LIGAND FREE ENERGY PREDICTED BY IDOCK:   -5.32 KCAL/MOL
REMARK 924 INTRA-LIGAND FREE ENERGY PREDICTED BY IDOCK:   -0.43 KCAL/MOL
REMARK 927      BINDING AFFINITY PREDICTED BY RF-SCORE:    0.00 PKD
ROOT
HETATM    1  C   UNL     1     -11.948  14.985  72.178  1.00  0.00    -0.456 C  
HETATM    2  C   UNL     1     -13.127  14.239  71.527  1.00  0.00    -0.343 C  
HETATM    3  C   UNL     1     -14.335  15.194  71.478  1.00  0.00    -0.660 C  
HETATM    4  C   UNL     1     -13.512  13.017  72.379  1.00  0.00    -0.615 C  
HETATM    5  N   UNL     1     -12.837  13.840  70.137  1.00  0.00    -0.171 NA 
HETATM    6  H   UNL     1     -12.749  14.667  69.546  1.00  0.00     0.000 HD 
ENDROOT
BRANCH   5   7
HETATM    7  C   UNL     1     -11.668  12.971  69.966  1.00  0.00    -0.215 C  
BRANCH   7   8
HETATM    8  C   UNL     1     -12.060  11.615  69.350  1.00  0.00    -0.263 C  
HETATM    9  H   UNL     1     -12.371  10.892  67.543  1.00  0.00     0.000 HD 
HETATM   10  O   UNL     1     -12.130  11.728  67.923  1.00  0.00    -0.592 OA 
BRANCH   8  11
HETATM   11  C   UNL     1     -11.036  10.540  69.745  1.00  0.00    -0.294 C  
BRANCH  11  12
HETATM   12  O   UNL     1     -10.962  10.433  71.182  1.00  0.00    -0.014 OA 
BRANCH  12  13
HETATM   13  C   UNL     1     -10.965   9.139  71.651  1.00  0.00    -0.374 A  
HETATM   14  C   UNL     1     -12.151   8.437  71.897  1.00  0.00    -0.398 A  
HETATM   15  C   UNL     1     -12.116   7.114  72.322  1.00  0.00    -0.219 A  
HETATM   16  C   UNL     1     -10.894   6.480  72.510  1.00  0.00    -0.270 A  
HETATM   17  C   UNL     1      -9.693   7.172  72.306  1.00  0.00    -0.173 A  
HETATM   18  C   UNL     1      -9.723   8.533  71.920  1.00  0.00    -0.358 A  
HETATM   19  C   UNL     1      -8.434   9.311  71.750  1.00  0.00     0.448 C  
HETATM   20  C   UNL     1      -7.212   8.611  72.358  1.00  0.00     0.023 C  
HETATM   21  C   UNL     1      -7.174   7.125  71.968  1.00  0.00    -0.076 C  
HETATM   22  O   UNL     1      -6.010   9.259  71.935  1.00  0.00    -0.120 OA 
HETATM   23  H   UNL     1      -5.253   8.826  72.312  1.00  0.00     0.000 HD 
HETATM   24  O   UNL     1      -7.120   6.925  70.549  1.00  0.00    -0.064 OA 
HETATM   25  C   UNL     1      -8.401   6.418  72.544  1.00  0.00    -0.116 C  
HETATM   26  H   UNL     1      -7.097   6.006  70.308  1.00  0.00     0.000 HD 
ENDBRANCH  12  13
ENDBRANCH  11  12
ENDBRANCH   8  11
ENDBRANCH   7   8
ENDBRANCH   5   7
TORSDOF 5
ENDMDL
MODEL      230
REMARK 921   NORMALIZED FREE ENERGY PREDICTED BY IDOCK:   -3.87 KCAL/MOL
REMARK 922        TOTAL FREE ENERGY PREDICTED BY IDOCK:   -5.73 KCAL/MOL
REMARK 923 INTER-LIGAND FREE ENERGY PREDICTED BY IDOCK:   -5.19 KCAL/MOL
REMARK 924 INTRA-LIGAND FREE ENERGY PREDICTED BY IDOCK:   -0.54 KCAL/MOL
REMARK 927      BINDING AFFINITY PREDICTED BY RF-SCORE:    0.00 PKD
ROOT
HETATM    1  C   UNL     1     -11.911  13.332  67.068  1.00  0.00    -0.419 C  
HETATM    2  C   UNL     1     -10.557  12.817  67.587  1.00  0.00    -0.219 C  
HETATM    3  C   UNL     1      -9.556  13.987  67.570  1.00  0.00    -0.228 C  
HETATM    4  C   UNL     1     -10.023  11.711  66.658  1.00  0.00    -0.230 C  
HETATM    5  N   UNL     1     -10.637  12.340  68.980  1.00  0.00    -0.409 NA 
HETATM    6  H   UNL     1     -10.829  13.120  69.607  1.00  0.00     0.000 HD 
ENDROOT
BRANCH   5   7
HETATM    7  C   UNL     1     -11.596  11.255  69.216  1.00  0.00    -0.322 C  
BRANCH   7   8
HETATM    8  C   UNL     1     -10.990  10.149  70.100  1.00  0.00    -0.316 C  
HETATM    9  H   UNL     1     -11.636   8.885  71.468  1.00  0.00     0.000 HD 
HETATM   10  O   UNL     1     -12.010   9.567  70.923  1.00  0.00    -0.286 OA 
BRANCH   8  11
HETATM   11  C   UNL     1     -10.339   9.070  69.222  1.00  0.00    -0.219 C  
BRANCH  11  12
HETATM   12  O   UNL     1      -9.360   8.336  69.986  1.00  0.00    -0.160 OA 
BRANCH  12  13
HETATM   13  C   UNL     1      -9.396   6.975  69.786  1.00  0.00    -0.146 A  
HETATM   14  C   UNL     1      -9.181   6.398  68.529  1.00  0.00    -0.124 A  
HETATM   15  C   UNL     1      -9.175   5.017  68.375  1.00  0.00    -0.150 A  
HETATM   16  C   UNL     1      -9.390   4.196  69.476  1.00  0.00    -0.238 A  
HETATM   17  C   UNL     1      -9.645   4.750  70.737  1.00  0.00    -0.249 A  
HETATM   18  C   UNL     1      -9.700   6.155  70.891  1.00  0.00    -0.203 A  
HETATM   19  C   UNL     1     -10.030   6.769  72.236  1.00  0.00    -0.173 C  
HETATM   20  C   UNL     1     -10.615   5.767  73.239  1.00  0.00    -0.254 C  
HETATM   21  C   UNL     1      -9.801   4.463  73.258  1.00  0.00    -0.134 C  
HETATM   22  O   UNL     1     -10.653   6.340  74.547  1.00  0.00    -0.357 OA 
HETATM   23  H   UNL     1     -11.015   5.720  75.168  1.00  0.00     0.000 HD 
HETATM   24  O   UNL     1      -8.428   4.672  73.615  1.00  0.00    -0.104 OA 
HETATM   25  C   UNL     1      -9.883   3.793  71.887  1.00  0.00    -0.248 C  
HETATM   26  H   UNL     1      -7.924   3.867  73.628  1.00  0.00     0.000 HD 
ENDBRANCH  12  13
ENDBRANCH  11  12
ENDBRANCH   8  11
ENDBRANCH   7   8
ENDBRANCH   5   7
TORSDOF 5
ENDMDL
MODEL      231
REMARK 921   NORMALIZED FREE ENERGY PREDICTED BY IDOCK:   -3.87 KCAL/MOL
REMARK 922        TOTAL FREE ENERGY PREDICTED BY IDOCK:   -5.72 KCAL/MOL
REMARK 923 INTER-LIGAND FREE ENERGY PREDICTED BY IDOCK:   -5.18 KCAL/MOL
REMARK 924 INTRA-LIGAND FREE ENERGY PREDICTED BY IDOCK:   -0.54 KCAL/MOL
REMARK 927      BINDING AFFINITY PREDICTED BY RF-SCORE:    0.00 PKD
ROOT
HETATM    1  C   UNL     1     -11.931  13.661  68.105  1.00  0.00    -0.390 C  
HETATM    2  C   UNL     1     -10.951  12.494  68.326  1.00  0.00    -0.240 C  
HETATM    3  C   UNL     1      -9.518  13.023  68.127  1.00  0.00    -0.218 C  
HETATM    4  C   UNL     1     -11.206  11.387  67.287  1.00  0.00    -0.370 C  
HETATM    5  N   UNL     1     -11.023  11.955  69.697  1.00  0.00    -0.467 NA 
HETATM    6  H   UNL     1     -10.690  12.650  70.365  1.00  0.00     0.000 HD 
ENDROOT
BRANCH   5   7
HETATM    7  C   UNL     1     -12.341  11.455  70.104  1.00  0.00    -0.266 C  
BRANCH   7   8
HETATM    8  C   UNL     1     -12.217  10.265  71.074  1.00  0.00    -0.384 C  
HETATM    9  H   UNL     1     -13.319   8.717  71.602  1.00  0.00     0.000 HD 
HETATM   10  O   UNL     1     -13.395   9.452  71.003  1.00  0.00    -0.259 OA 
BRANCH   8  11
HETATM   11  C   UNL     1     -10.976   9.429  70.727  1.00  0.00    -0.304 C  
BRANCH  11  12
HETATM   12  O   UNL     1     -11.306   8.025  70.738  1.00  0.00    -0.272 OA 
BRANCH  12  13
HETATM   13  C   UNL     1     -10.647   7.299  71.703  1.00  0.00    -0.206 A  
HETATM   14  C   UNL     1     -10.964   7.405  73.063  1.00  0.00    -0.422 A  
HETATM   15  C   UNL     1     -10.311   6.619  74.005  1.00  0.00    -0.377 A  
HETATM   16  C   UNL     1      -9.330   5.722  73.599  1.00  0.00    -0.137 A  
HETATM   17  C   UNL     1      -8.969   5.626  72.248  1.00  0.00    -0.141 A  
HETATM   18  C   UNL     1      -9.596   6.457  71.291  1.00  0.00    -0.182 A  
HETATM   19  C   UNL     1      -9.177   6.405  69.836  1.00  0.00    -0.154 C  
HETATM   20  C   UNL     1      -7.848   5.674  69.608  1.00  0.00    -0.091 C  
HETATM   21  C   UNL     1      -7.805   4.349  70.384  1.00  0.00    -0.052 C  
HETATM   22  O   UNL     1      -7.650   5.432  68.213  1.00  0.00    -0.079 OA 
HETATM   23  H   UNL     1      -6.827   4.980  68.072  1.00  0.00     0.000 HD 
HETATM   24  O   UNL     1      -8.857   3.450  70.007  1.00  0.00    -0.073 OA 
HETATM   25  C   UNL     1      -7.881   4.636  71.883  1.00  0.00    -0.098 C  
HETATM   26  H   UNL     1      -8.830   2.630  70.487  1.00  0.00     0.000 HD 
ENDBRANCH  12  13
ENDBRANCH  11  12
ENDBRANCH   8  11
ENDBRANCH   7   8
ENDBRANCH   5   7
TORSDOF 5
ENDMDL
MODEL      232
REMARK 921   NORMALIZED FREE ENERGY PREDICTED BY IDOCK:   -3.83 KCAL/MOL
REMARK 922        TOTAL FREE ENERGY PREDICTED BY IDOCK:   -5.67 KCAL/MOL
REMARK 923 INTER-LIGAND FREE ENERGY PREDICTED BY IDOCK:   -5.28 KCAL/MOL
REMARK 924 INTRA-LIGAND FREE ENERGY PREDICTED BY IDOCK:   -0.39 KCAL/MOL
REMARK 927      BINDING AFFINITY PREDICTED BY RF-SCORE:    0.00 PKD
ROOT
HETATM    1  C   UNL     1      -7.351   7.363  66.902  1.00  0.00    -0.093 C  
HETATM    2  C   UNL     1      -6.672   8.706  67.228  1.00  0.00    -0.063 C  
HETATM    3  C   UNL     1      -5.461   8.874  66.291  1.00  0.00    -0.037 C  
HETATM    4  C   UNL     1      -6.161   8.698  68.680  1.00  0.00    -0.046 C  
HETATM    5  N   UNL     1      -7.563   9.856  66.990  1.00  0.00    -0.092 NA 
HETATM    6  H   UNL     1      -7.760   9.947  65.994  1.00  0.00     0.000 HD 
ENDROOT
BRANCH   5   7
HETATM    7  C   UNL     1      -8.817   9.844  67.753  1.00  0.00    -0.129 C  
BRANCH   7   8
HETATM    8  C   UNL     1     -10.042   9.935  66.824  1.00  0.00    -0.230 C  
HETATM    9  H   UNL     1     -11.233   8.675  65.885  1.00  0.00     0.000 HD 
HETATM   10  O   UNL     1     -10.477   8.619  66.459  1.00  0.00    -0.249 OA 
BRANCH   8  11
HETATM   11  C   UNL     1     -11.180  10.692  67.525  1.00  0.00    -0.253 C  
BRANCH  11  12
HETATM   12  O   UNL     1     -10.800  12.068  67.739  1.00  0.00    -0.201 OA 
BRANCH  12  13
HETATM   13  C   UNL     1     -11.104  12.905  66.690  1.00  0.00    -0.284 A  
HETATM   14  C   UNL     1     -11.920  12.503  65.626  1.00  0.00    -0.492 A  
HETATM   15  C   UNL     1     -12.247  13.392  64.608  1.00  0.00    -0.456 A  
HETATM   16  C   UNL     1     -11.757  14.692  64.641  1.00  0.00    -0.431 A  
HETATM   17  C   UNL     1     -10.908  15.107  65.676  1.00  0.00    -0.367 A  
HETATM   18  C   UNL     1     -10.533  14.192  66.688  1.00  0.00    -0.278 A  
HETATM   19  C   UNL     1      -9.572  14.609  67.782  1.00  0.00    -0.213 C  
HETATM   20  C   UNL     1      -8.826  15.914  67.477  1.00  0.00    -0.189 C  
HETATM   21  C   UNL     1      -9.788  16.994  66.959  1.00  0.00    -0.270 C  
HETATM   22  O   UNL     1      -8.148  16.381  68.645  1.00  0.00    -0.194 OA 
HETATM   23  H   UNL     1      -7.685  17.189  68.456  1.00  0.00     0.000 HD 
HETATM   24  O   UNL     1     -10.828  17.306  67.896  1.00  0.00    -0.369 OA 
HETATM   25  C   UNL     1     -10.403  16.534  65.637  1.00  0.00    -0.342 C  
HETATM   26  H   UNL     1     -11.423  17.974  67.576  1.00  0.00     0.000 HD 
ENDBRANCH  12  13
ENDBRANCH  11  12
ENDBRANCH   8  11
ENDBRANCH   7   8
ENDBRANCH   5   7
TORSDOF 5
ENDMDL
MODEL      233
REMARK 921   NORMALIZED FREE ENERGY PREDICTED BY IDOCK:   -3.83 KCAL/MOL
REMARK 922        TOTAL FREE ENERGY PREDICTED BY IDOCK:   -5.67 KCAL/MOL
REMARK 923 INTER-LIGAND FREE ENERGY PREDICTED BY IDOCK:   -4.84 KCAL/MOL
REMARK 924 INTRA-LIGAND FREE ENERGY PREDICTED BY IDOCK:   -0.83 KCAL/MOL
REMARK 927      BINDING AFFINITY PREDICTED BY RF-SCORE:    0.00 PKD
ROOT
HETATM    1  C   UNL     1      -7.893   7.781  65.122  1.00  0.00    -0.123 C  
HETATM    2  C   UNL     1      -8.242   9.280  65.076  1.00  0.00    -0.145 C  
HETATM    3  C   UNL     1      -9.755   9.432  65.320  1.00  0.00    -0.184 C  
HETATM    4  C   UNL     1      -7.917   9.854  63.685  1.00  0.00    -0.147 C  
HETATM    5  N   UNL     1      -7.558  10.047  66.133  1.00  0.00    -0.104 NA 
HETATM    6  H   UNL     1      -7.908   9.769  67.050  1.00  0.00     0.000 HD 
ENDROOT
BRANCH   5   7
HETATM    7  C   UNL     1      -6.092   9.974  66.110  1.00  0.00    -0.074 C  
BRANCH   7   8
HETATM    8  C   UNL     1      -5.515   9.786  67.525  1.00  0.00    -0.036 C  
HETATM    9  H   UNL     1      -4.779  10.941  68.944  1.00  0.00     0.000 HD 
HETATM   10  O   UNL     1      -5.135  11.056  68.071  1.00  0.00    -0.037 OA 
BRANCH   8  11
HETATM   11  C   UNL     1      -6.554   9.111  68.433  1.00  0.00    -0.059 C  
BRANCH  11  12
HETATM   12  O   UNL     1      -7.594  10.050  68.777  1.00  0.00    -0.077 OA 
BRANCH  12  13
HETATM   13  C   UNL     1      -8.447   9.609  69.763  1.00  0.00    -0.190 A  
HETATM   14  C   UNL     1      -8.044   8.696  70.745  1.00  0.00    -0.141 A  
HETATM   15  C   UNL     1      -8.918   8.311  71.755  1.00  0.00    -0.241 A  
HETATM   16  C   UNL     1     -10.207   8.830  71.791  1.00  0.00    -0.408 A  
HETATM   17  C   UNL     1     -10.645   9.716  70.798  1.00  0.00    -0.392 A  
HETATM   18  C   UNL     1      -9.776  10.074  69.741  1.00  0.00    -0.259 A  
HETATM   19  C   UNL     1     -10.253  10.986  68.630  1.00  0.00    -0.211 C  
HETATM   20  C   UNL     1     -11.777  11.160  68.593  1.00  0.00    -0.320 C  
HETATM   21  C   UNL     1     -12.337  11.435  69.997  1.00  0.00    -0.237 C  
HETATM   22  O   UNL     1     -12.132  12.223  67.706  1.00  0.00    -0.478 OA 
HETATM   23  H   UNL     1     -13.075  12.331  67.683  1.00  0.00     0.000 HD 
HETATM   24  O   UNL     1     -11.787  12.619  70.592  1.00  0.00    -0.513 OA 
HETATM   25  C   UNL     1     -12.067  10.230  70.896  1.00  0.00    -0.468 C  
HETATM   26  H   UNL     1     -12.133  12.789  71.460  1.00  0.00     0.000 HD 
ENDBRANCH  12  13
ENDBRANCH  11  12
ENDBRANCH   8  11
ENDBRANCH   7   8
ENDBRANCH   5   7
TORSDOF 5
ENDMDL
MODEL      234
REMARK 921   NORMALIZED FREE ENERGY PREDICTED BY IDOCK:   -3.82 KCAL/MOL
REMARK 922        TOTAL FREE ENERGY PREDICTED BY IDOCK:   -5.66 KCAL/MOL
REMARK 923 INTER-LIGAND FREE ENERGY PREDICTED BY IDOCK:   -5.18 KCAL/MOL
REMARK 924 INTRA-LIGAND FREE ENERGY PREDICTED BY IDOCK:   -0.48 KCAL/MOL
REMARK 927      BINDING AFFINITY PREDICTED BY RF-SCORE:    0.00 PKD
ROOT
HETATM    1  C   UNL     1     -12.184  12.724  70.272  1.00  0.00    -0.351 C  
HETATM    2  C   UNL     1     -11.958  11.269  69.823  1.00  0.00    -0.360 C  
HETATM    3  C   UNL     1     -12.952  10.369  70.581  1.00  0.00    -0.357 C  
HETATM    4  C   UNL     1     -10.530  10.823  70.184  1.00  0.00     0.163 C  
HETATM    5  N   UNL     1     -12.219  11.081  68.384  1.00  0.00    -0.780 NA 
HETATM    6  H   UNL     1     -13.210  11.219  68.187  1.00  0.00     0.000 HD 
ENDROOT
BRANCH   5   7
HETATM    7  C   UNL     1     -11.406  11.909  67.486  1.00  0.00    -0.314 C  
BRANCH   7   8
HETATM    8  C   UNL     1     -10.592  11.045  66.505  1.00  0.00    -0.254 C  
HETATM    9  H   UNL     1      -8.691  10.785  66.052  1.00  0.00     0.000 HD 
HETATM   10  O   UNL     1      -9.193  11.319  66.657  1.00  0.00    -0.171 OA 
BRANCH   8  11
HETATM   11  C   UNL     1     -10.870   9.556  66.760  1.00  0.00     0.039 C  
BRANCH  11  12
HETATM   12  O   UNL     1      -9.695   8.919  67.304  1.00  0.00    -0.161 OA 
BRANCH  12  13
HETATM   13  C   UNL     1      -9.960   7.794  68.051  1.00  0.00    -0.175 A  
HETATM   14  C   UNL     1     -10.372   7.864  69.387  1.00  0.00    -0.220 A  
HETATM   15  C   UNL     1     -10.679   6.708  70.095  1.00  0.00    -0.287 A  
HETATM   16  C   UNL     1     -10.572   5.468  69.476  1.00  0.00    -0.366 A  
HETATM   17  C   UNL     1     -10.127   5.370  68.151  1.00  0.00    -0.220 A  
HETATM   18  C   UNL     1      -9.767   6.539  67.441  1.00  0.00    -0.150 A  
HETATM   19  C   UNL     1      -9.230   6.445  66.028  1.00  0.00    -0.087 C  
HETATM   20  C   UNL     1      -8.807   5.026  65.627  1.00  0.00    -0.143 C  
HETATM   21  C   UNL     1      -9.875   3.996  66.027  1.00  0.00    -0.166 C  
HETATM   22  O   UNL     1      -8.565   4.960  64.220  1.00  0.00    -0.137 OA 
HETATM   23  H   UNL     1      -8.303   4.082  63.972  1.00  0.00     0.000 HD 
HETATM   24  O   UNL     1     -11.147   4.251  65.417  1.00  0.00    -0.673 OA 
HETATM   25  C   UNL     1     -10.023   3.984  67.549  1.00  0.00    -0.006 C  
HETATM   26  H   UNL     1     -11.808   3.614  65.664  1.00  0.00     0.000 HD 
ENDBRANCH  12  13
ENDBRANCH  11  12
ENDBRANCH   8  11
ENDBRANCH   7   8
ENDBRANCH   5   7
TORSDOF 5
ENDMDL
MODEL      235
REMARK 921   NORMALIZED FREE ENERGY PREDICTED BY IDOCK:   -3.81 KCAL/MOL
REMARK 922        TOTAL FREE ENERGY PREDICTED BY IDOCK:   -5.65 KCAL/MOL
REMARK 923 INTER-LIGAND FREE ENERGY PREDICTED BY IDOCK:   -5.41 KCAL/MOL
REMARK 924 INTRA-LIGAND FREE ENERGY PREDICTED BY IDOCK:   -0.25 KCAL/MOL
REMARK 927      BINDING AFFINITY PREDICTED BY RF-SCORE:    0.00 PKD
ROOT
HETATM    1  C   UNL     1     -10.250  11.256  64.141  1.00  0.00    -0.391 C  
HETATM    2  C   UNL     1     -11.315  12.301  64.519  1.00  0.00    -0.329 C  
HETATM    3  C   UNL     1     -12.520  12.125  63.576  1.00  0.00    -0.666 C  
HETATM    4  C   UNL     1     -10.753  13.720  64.325  1.00  0.00    -0.217 C  
HETATM    5  N   UNL     1     -11.815  12.116  65.894  1.00  0.00    -0.546 NA 
HETATM    6  H   UNL     1     -12.333  11.241  65.964  1.00  0.00     0.000 HD 
ENDROOT
BRANCH   5   7
HETATM    7  C   UNL     1     -10.794  12.185  66.946  1.00  0.00    -0.250 C  
BRANCH   7   8
HETATM    8  C   UNL     1     -11.055  11.146  68.052  1.00  0.00    -0.276 C  
HETATM    9  H   UNL     1     -12.557  10.639  69.225  1.00  0.00     0.000 HD 
HETATM   10  O   UNL     1     -12.396  11.280  68.542  1.00  0.00    -0.543 OA 
BRANCH   8  11
HETATM   11  C   UNL     1     -10.830   9.728  67.507  1.00  0.00    -0.220 C  
BRANCH  11  12
HETATM   12  O   UNL     1      -9.470   9.584  67.048  1.00  0.00    -0.146 OA 
BRANCH  12  13
HETATM   13  C   UNL     1      -8.663   8.863  67.899  1.00  0.00    -0.129 A  
HETATM   14  C   UNL     1      -7.675   9.469  68.684  1.00  0.00    -0.081 A  
HETATM   15  C   UNL     1      -6.913   8.715  69.569  1.00  0.00    -0.048 A  
HETATM   16  C   UNL     1      -7.126   7.346  69.674  1.00  0.00    -0.072 A  
HETATM   17  C   UNL     1      -8.083   6.711  68.871  1.00  0.00    -0.116 A  
HETATM   18  C   UNL     1      -8.828   7.464  67.935  1.00  0.00    -0.132 A  
HETATM   19  C   UNL     1      -9.825   6.783  67.020  1.00  0.00    -0.217 C  
HETATM   20  C   UNL     1      -9.673   5.258  66.976  1.00  0.00    -0.153 C  
HETATM   21  C   UNL     1      -9.527   4.675  68.391  1.00  0.00    -0.145 C  
HETATM   22  O   UNL     1     -10.795   4.668  66.316  1.00  0.00    -0.497 OA 
HETATM   23  H   UNL     1     -10.700   3.723  66.289  1.00  0.00     0.000 HD 
HETATM   24  O   UNL     1     -10.652   4.968  69.230  1.00  0.00    -0.144 OA 
HETATM   25  C   UNL     1      -8.248   5.213  69.032  1.00  0.00    -0.088 C  
HETATM   26  H   UNL     1     -10.563   4.608  70.105  1.00  0.00     0.000 HD 
ENDBRANCH  12  13
ENDBRANCH  11  12
ENDBRANCH   8  11
ENDBRANCH   7   8
ENDBRANCH   5   7
TORSDOF 5
ENDMDL
MODEL      236
REMARK 921   NORMALIZED FREE ENERGY PREDICTED BY IDOCK:   -3.81 KCAL/MOL
REMARK 922        TOTAL FREE ENERGY PREDICTED BY IDOCK:   -5.65 KCAL/MOL
REMARK 923 INTER-LIGAND FREE ENERGY PREDICTED BY IDOCK:   -4.73 KCAL/MOL
REMARK 924 INTRA-LIGAND FREE ENERGY PREDICTED BY IDOCK:   -0.91 KCAL/MOL
REMARK 927      BINDING AFFINITY PREDICTED BY RF-SCORE:    0.00 PKD
ROOT
HETATM    1  C   UNL     1     -11.968  12.749  67.641  1.00  0.00    -0.331 C  
HETATM    2  C   UNL     1     -10.627  13.390  68.044  1.00  0.00    -0.243 C  
HETATM    3  C   UNL     1     -10.856  14.228  69.316  1.00  0.00    -0.241 C  
HETATM    4  C   UNL     1     -10.137  14.330  66.928  1.00  0.00    -0.264 C  
HETATM    5  N   UNL     1      -9.602  12.382  68.371  1.00  0.00    -0.301 NA 
HETATM    6  H   UNL     1      -9.865  11.876  69.216  1.00  0.00     0.000 HD 
ENDROOT
BRANCH   5   7
HETATM    7  C   UNL     1      -9.288  11.437  67.294  1.00  0.00    -0.167 C  
BRANCH   7   8
HETATM    8  C   UNL     1      -8.021  10.621  67.612  1.00  0.00    -0.106 C  
HETATM    9  H   UNL     1      -6.209  10.986  68.300  1.00  0.00     0.000 HD 
HETATM   10  O   UNL     1      -6.991  11.489  68.103  1.00  0.00    -0.065 OA 
BRANCH   8  11
HETATM   11  C   UNL     1      -8.339   9.538  68.654  1.00  0.00    -0.117 C  
BRANCH  11  12
HETATM   12  O   UNL     1      -8.654  10.149  69.923  1.00  0.00    -0.177 OA 
BRANCH  12  13
HETATM   13  C   UNL     1      -9.048   9.258  70.894  1.00  0.00    -0.222 A  
HETATM   14  C   UNL     1      -8.130   8.482  71.612  1.00  0.00    -0.195 A  
HETATM   15  C   UNL     1      -8.561   7.628  72.621  1.00  0.00    -0.171 A  
HETATM   16  C   UNL     1      -9.915   7.538  72.920  1.00  0.00    -0.303 A  
HETATM   17  C   UNL     1     -10.856   8.276  72.191  1.00  0.00    -0.390 A  
HETATM   18  C   UNL     1     -10.429   9.109  71.131  1.00  0.00    -0.385 A  
HETATM   19  C   UNL     1     -11.438   9.870  70.296  1.00  0.00    -0.349 C  
HETATM   20  C   UNL     1     -12.880   9.379  70.482  1.00  0.00     0.278 C  
HETATM   21  C   UNL     1     -13.215   9.197  71.971  1.00  0.00    -0.441 C  
HETATM   22  O   UNL     1     -13.796  10.297  69.882  1.00  0.00    -0.000 OA 
HETATM   23  H   UNL     1     -14.688   9.993  69.997  1.00  0.00     0.000 HD 
HETATM   24  O   UNL     1     -13.076  10.411  72.723  1.00  0.00    -0.247 OA 
HETATM   25  C   UNL     1     -12.315   8.114  72.565  1.00  0.00    -0.296 C  
HETATM   26  H   UNL     1     -13.284  10.299  73.643  1.00  0.00     0.000 HD 
ENDBRANCH  12  13
ENDBRANCH  11  12
ENDBRANCH   8  11
ENDBRANCH   7   8
ENDBRANCH   5   7
TORSDOF 5
ENDMDL
MODEL      237
REMARK 921   NORMALIZED FREE ENERGY PREDICTED BY IDOCK:   -3.80 KCAL/MOL
REMARK 922        TOTAL FREE ENERGY PREDICTED BY IDOCK:   -5.63 KCAL/MOL
REMARK 923 INTER-LIGAND FREE ENERGY PREDICTED BY IDOCK:   -4.73 KCAL/MOL
REMARK 924 INTRA-LIGAND FREE ENERGY PREDICTED BY IDOCK:   -0.90 KCAL/MOL
REMARK 927      BINDING AFFINITY PREDICTED BY RF-SCORE:    0.00 PKD
ROOT
HETATM    1  C   UNL     1     -11.690  14.153  66.981  1.00  0.00    -0.430 C  
HETATM    2  C   UNL     1     -10.414  13.312  67.168  1.00  0.00    -0.248 C  
HETATM    3  C   UNL     1      -9.210  14.271  67.237  1.00  0.00    -0.218 C  
HETATM    4  C   UNL     1     -10.218  12.377  65.962  1.00  0.00    -0.267 C  
HETATM    5  N   UNL     1     -10.428  12.548  68.429  1.00  0.00    -0.235 NA 
HETATM    6  H   UNL     1     -10.389  13.184  69.225  1.00  0.00     0.000 HD 
ENDROOT
BRANCH   5   7
HETATM    7  C   UNL     1     -11.550  11.615  68.583  1.00  0.00    -0.312 C  
BRANCH   7   8
HETATM    8  C   UNL     1     -11.845  11.329  70.068  1.00  0.00    -0.367 C  
HETATM    9  H   UNL     1     -13.412  10.828  71.153  1.00  0.00     0.000 HD 
HETATM   10  O   UNL     1     -13.231  11.004  70.237  1.00  0.00     0.010 OA 
BRANCH   8  11
HETATM   11  C   UNL     1     -10.966  10.172  70.566  1.00  0.00    -0.310 C  
BRANCH  11  12
HETATM   12  O   UNL     1      -9.633  10.295  70.026  1.00  0.00    -0.139 OA 
BRANCH  12  13
HETATM   13  C   UNL     1      -8.939   9.108  69.965  1.00  0.00    -0.187 A  
HETATM   14  C   UNL     1      -8.419   8.488  71.107  1.00  0.00    -0.191 A  
HETATM   15  C   UNL     1      -7.767   7.264  71.013  1.00  0.00    -0.089 A  
HETATM   16  C   UNL     1      -7.623   6.649  69.775  1.00  0.00    -0.104 A  
HETATM   17  C   UNL     1      -8.102   7.269  68.612  1.00  0.00    -0.125 A  
HETATM   18  C   UNL     1      -8.724   8.537  68.696  1.00  0.00    -0.139 A  
HETATM   19  C   UNL     1      -9.196   9.245  67.443  1.00  0.00    -0.145 C  
HETATM   20  C   UNL     1      -8.632   8.642  66.150  1.00  0.00    -0.142 C  
HETATM   21  C   UNL     1      -8.744   7.110  66.158  1.00  0.00    -0.151 C  
HETATM   22  O   UNL     1      -9.315   9.178  65.015  1.00  0.00    -0.424 OA 
HETATM   23  H   UNL     1      -8.965   8.805  64.215  1.00  0.00     0.000 HD 
HETATM   24  O   UNL     1     -10.097   6.653  66.286  1.00  0.00    -0.415 OA 
HETATM   25  C   UNL     1      -7.896   6.545  67.298  1.00  0.00    -0.105 C  
HETATM   26  H   UNL     1     -10.167   5.706  66.291  1.00  0.00     0.000 HD 
ENDBRANCH  12  13
ENDBRANCH  11  12
ENDBRANCH   8  11
ENDBRANCH   7   8
ENDBRANCH   5   7
TORSDOF 5
ENDMDL
MODEL      238
REMARK 921   NORMALIZED FREE ENERGY PREDICTED BY IDOCK:   -3.79 KCAL/MOL
REMARK 922        TOTAL FREE ENERGY PREDICTED BY IDOCK:   -5.62 KCAL/MOL
REMARK 923 INTER-LIGAND FREE ENERGY PREDICTED BY IDOCK:   -4.80 KCAL/MOL
REMARK 924 INTRA-LIGAND FREE ENERGY PREDICTED BY IDOCK:   -0.82 KCAL/MOL
REMARK 927      BINDING AFFINITY PREDICTED BY RF-SCORE:    0.00 PKD
ROOT
HETATM    1  C   UNL     1      -9.826  10.312  69.401  1.00  0.00    -0.247 C  
HETATM    2  C   UNL     1      -8.872  10.797  68.294  1.00  0.00    -0.139 C  
HETATM    3  C   UNL     1      -9.275  12.231  67.903  1.00  0.00    -0.190 C  
HETATM    4  C   UNL     1      -9.011   9.901  67.050  1.00  0.00    -0.152 C  
HETATM    5  N   UNL     1      -7.470  10.852  68.748  1.00  0.00    -0.104 NA 
HETATM    6  H   UNL     1      -7.361  11.572  69.461  1.00  0.00     0.000 HD 
ENDROOT
BRANCH   5   7
HETATM    7  C   UNL     1      -6.917   9.580  69.226  1.00  0.00    -0.050 C  
BRANCH   7   8
HETATM    8  C   UNL     1      -5.985   9.790  70.434  1.00  0.00    -0.069 C  
HETATM    9  H   UNL     1      -5.395  11.305  71.550  1.00  0.00     0.000 HD 
HETATM   10  O   UNL     1      -5.970  11.175  70.805  1.00  0.00    -0.304 OA 
BRANCH   8  11
HETATM   11  C   UNL     1      -6.454   8.931  71.618  1.00  0.00    -0.076 C  
BRANCH  11  12
HETATM   12  O   UNL     1      -7.358   7.906  71.157  1.00  0.00    -0.059 OA 
BRANCH  12  13
HETATM   13  C   UNL     1      -8.303   7.531  72.085  1.00  0.00    -0.110 A  
HETATM   14  C   UNL     1      -8.039   7.527  73.459  1.00  0.00    -0.170 A  
HETATM   15  C   UNL     1      -9.034   7.190  74.370  1.00  0.00    -0.230 A  
HETATM   16  C   UNL     1     -10.302   6.848  73.916  1.00  0.00    -0.398 A  
HETATM   17  C   UNL     1     -10.579   6.808  72.543  1.00  0.00    -0.249 A  
HETATM   18  C   UNL     1      -9.558   7.103  71.610  1.00  0.00    -0.163 A  
HETATM   19  C   UNL     1      -9.826   7.009  70.122  1.00  0.00    -0.179 C  
HETATM   20  C   UNL     1     -11.119   6.259  69.779  1.00  0.00    -0.406 C  
HETATM   21  C   UNL     1     -12.285   6.734  70.660  1.00  0.00    -0.254 C  
HETATM   22  O   UNL     1     -11.444   6.436  68.399  1.00  0.00    -0.532 OA 
HETATM   23  H   UNL     1     -12.244   5.971  68.187  1.00  0.00     0.000 HD 
HETATM   24  O   UNL     1     -12.554   8.135  70.516  1.00  0.00    -0.372 OA 
HETATM   25  C   UNL     1     -11.980   6.413  72.123  1.00  0.00    -0.346 C  
HETATM   26  H   UNL     1     -13.275   8.430  71.060  1.00  0.00     0.000 HD 
ENDBRANCH  12  13
ENDBRANCH  11  12
ENDBRANCH   8  11
ENDBRANCH   7   8
ENDBRANCH   5   7
TORSDOF 5
ENDMDL
MODEL      239
REMARK 921   NORMALIZED FREE ENERGY PREDICTED BY IDOCK:   -3.78 KCAL/MOL
REMARK 922        TOTAL FREE ENERGY PREDICTED BY IDOCK:   -5.61 KCAL/MOL
REMARK 923 INTER-LIGAND FREE ENERGY PREDICTED BY IDOCK:   -6.41 KCAL/MOL
REMARK 924 INTRA-LIGAND FREE ENERGY PREDICTED BY IDOCK:    0.80 KCAL/MOL
REMARK 927      BINDING AFFINITY PREDICTED BY RF-SCORE:    0.00 PKD
ROOT
HETATM    1  C   UNL     1     -11.618  11.922  65.621  1.00  0.00    -0.275 C  
HETATM    2  C   UNL     1     -11.406  12.356  64.159  1.00  0.00    -0.379 C  
HETATM    3  C   UNL     1     -12.571  11.803  63.317  1.00  0.00    -0.382 C  
HETATM    4  C   UNL     1     -10.094  11.761  63.618  1.00  0.00    -0.445 C  
HETATM    5  N   UNL     1     -11.422  13.823  64.004  1.00  0.00    -0.608 NA 
HETATM    6  H   UNL     1     -12.352  14.187  64.208  1.00  0.00     0.000 HD 
ENDROOT
BRANCH   5   7
HETATM    7  C   UNL     1     -10.414  14.546  64.789  1.00  0.00    -0.337 C  
BRANCH   7   8
HETATM    8  C   UNL     1     -11.046  15.697  65.592  1.00  0.00    -0.194 C  
HETATM    9  H   UNL     1     -12.131  15.885  67.228  1.00  0.00     0.000 HD 
HETATM   10  O   UNL     1     -11.741  15.174  66.732  1.00  0.00    -0.229 OA 
BRANCH   8  11
HETATM   11  C   UNL     1      -9.959  16.684  66.043  1.00  0.00    -0.324 C  
BRANCH  11  12
HETATM   12  O   UNL     1      -8.682  16.016  66.111  1.00  0.00    -0.327 OA 
BRANCH  12  13
HETATM   13  C   UNL     1      -7.972  16.275  67.261  1.00  0.00    -0.167 A  
HETATM   14  C   UNL     1      -7.303  15.268  67.968  1.00  0.00    -0.133 A  
HETATM   15  C   UNL     1      -6.554  15.575  69.097  1.00  0.00    -0.136 A  
HETATM   16  C   UNL     1      -6.470  16.890  69.537  1.00  0.00    -0.223 A  
HETATM   17  C   UNL     1      -7.161  17.910  68.868  1.00  0.00    -0.264 A  
HETATM   18  C   UNL     1      -7.964  17.597  67.746  1.00  0.00    -0.218 A  
HETATM   19  C   UNL     1      -8.761  18.678  67.047  1.00  0.00    -0.285 C  
HETATM   20  C   UNL     1      -8.878  19.974  67.859  1.00  0.00    -0.263 C  
HETATM   21  C   UNL     1      -7.517  20.389  68.439  1.00  0.00    -0.017 C  
HETATM   22  O   UNL     1      -9.405  21.023  67.044  1.00  0.00    -0.668 OA 
HETATM   23  H   UNL     1      -9.478  21.825  67.547  1.00  0.00     0.000 HD 
HETATM   24  O   UNL     1      -6.526  20.609  67.425  1.00  0.00    -0.233 OA 
HETATM   25  C   UNL     1      -7.032  19.317  69.414  1.00  0.00    -0.300 C  
HETATM   26  H   UNL     1      -5.685  20.866  67.783  1.00  0.00     0.000 HD 
ENDBRANCH  12  13
ENDBRANCH  11  12
ENDBRANCH   8  11
ENDBRANCH   7   8
ENDBRANCH   5   7
TORSDOF 5
ENDMDL
MODEL      240
REMARK 921   NORMALIZED FREE ENERGY PREDICTED BY IDOCK:   -3.75 KCAL/MOL
REMARK 922        TOTAL FREE ENERGY PREDICTED BY IDOCK:   -5.57 KCAL/MOL
REMARK 923 INTER-LIGAND FREE ENERGY PREDICTED BY IDOCK:   -5.15 KCAL/MOL
REMARK 924 INTRA-LIGAND FREE ENERGY PREDICTED BY IDOCK:   -0.42 KCAL/MOL
REMARK 927      BINDING AFFINITY PREDICTED BY RF-SCORE:    0.00 PKD
ROOT
HETATM    1  C   UNL     1     -10.466   5.240  71.650  1.00  0.00    -0.280 C  
HETATM    2  C   UNL     1     -11.133   6.524  72.177  1.00  0.00    -0.260 C  
HETATM    3  C   UNL     1     -10.845   6.633  73.686  1.00  0.00    -0.165 C  
HETATM    4  C   UNL     1     -12.657   6.445  71.980  1.00  0.00    -0.141 C  
HETATM    5  N   UNL     1     -10.584   7.738  71.546  1.00  0.00    -0.212 NA 
HETATM    6  H   UNL     1      -9.611   7.868  71.822  1.00  0.00     0.000 HD 
ENDROOT
BRANCH   5   7
HETATM    7  C   UNL     1     -10.705   7.793  70.084  1.00  0.00    -0.240 C  
BRANCH   7   8
HETATM    8  C   UNL     1     -10.184   9.131  69.526  1.00  0.00    -0.203 C  
HETATM    9  H   UNL     1     -10.046   9.997  67.760  1.00  0.00     0.000 HD 
HETATM   10  O   UNL     1     -10.367   9.172  68.105  1.00  0.00    -0.198 OA 
BRANCH   8  11
HETATM   11  C   UNL     1     -10.925  10.302  70.188  1.00  0.00    -0.314 C  
BRANCH  11  12
HETATM   12  O   UNL     1     -11.526  11.141  69.180  1.00  0.00    -0.242 OA 
BRANCH  12  13
HETATM   13  C   UNL     1     -11.575  12.475  69.514  1.00  0.00    -0.281 A  
HETATM   14  C   UNL     1     -12.624  13.019  70.266  1.00  0.00    -0.108 A  
HETATM   15  C   UNL     1     -12.615  14.361  70.628  1.00  0.00    -0.424 A  
HETATM   16  C   UNL     1     -11.560  15.176  70.237  1.00  0.00    -0.325 A  
HETATM   17  C   UNL     1     -10.517  14.664  69.452  1.00  0.00    -0.175 A  
HETATM   18  C   UNL     1     -10.545  13.311  69.041  1.00  0.00    -0.096 A  
HETATM   19  C   UNL     1      -9.455  12.758  68.146  1.00  0.00    -0.219 C  
HETATM   20  C   UNL     1      -8.592  13.843  67.490  1.00  0.00    -0.193 C  
HETATM   21  C   UNL     1      -8.167  14.907  68.515  1.00  0.00    -0.153 C  
HETATM   22  O   UNL     1      -7.438  13.258  66.884  1.00  0.00    -0.348 OA 
HETATM   23  H   UNL     1      -6.904  13.930  66.478  1.00  0.00     0.000 HD 
HETATM   24  O   UNL     1      -7.410  14.358  69.602  1.00  0.00    -0.332 OA 
HETATM   25  C   UNL     1      -9.409  15.617  69.054  1.00  0.00    -0.243 C  
HETATM   26  H   UNL     1      -7.147  15.016  70.236  1.00  0.00     0.000 HD 
ENDBRANCH  12  13
ENDBRANCH  11  12
ENDBRANCH   8  11
ENDBRANCH   7   8
ENDBRANCH   5   7
TORSDOF 5
ENDMDL
MODEL      241
REMARK 921   NORMALIZED FREE ENERGY PREDICTED BY IDOCK:   -3.72 KCAL/MOL
REMARK 922        TOTAL FREE ENERGY PREDICTED BY IDOCK:   -5.54 KCAL/MOL
REMARK 923 INTER-LIGAND FREE ENERGY PREDICTED BY IDOCK:   -4.83 KCAL/MOL
REMARK 924 INTRA-LIGAND FREE ENERGY PREDICTED BY IDOCK:   -0.71 KCAL/MOL
REMARK 927      BINDING AFFINITY PREDICTED BY RF-SCORE:    0.00 PKD
ROOT
HETATM    1  C   UNL     1     -12.861   7.424  70.976  1.00  0.00    -0.226 C  
HETATM    2  C   UNL     1     -12.365   8.537  71.917  1.00  0.00    -0.352 C  
HETATM    3  C   UNL     1     -11.269   7.949  72.825  1.00  0.00    -0.466 C  
HETATM    4  C   UNL     1     -13.520   9.026  72.809  1.00  0.00    -0.269 C  
HETATM    5  N   UNL     1     -11.756   9.661  71.182  1.00  0.00    -0.341 NA 
HETATM    6  H   UNL     1     -10.895   9.358  70.729  1.00  0.00     0.000 HD 
ENDROOT
BRANCH   5   7
HETATM    7  C   UNL     1     -12.634  10.320  70.208  1.00  0.00    -0.144 C  
BRANCH   7   8
HETATM    8  C   UNL     1     -11.905  11.462  69.475  1.00  0.00    -0.357 C  
HETATM    9  H   UNL     1     -11.475  13.354  69.828  1.00  0.00     0.000 HD 
HETATM   10  O   UNL     1     -11.925  12.649  70.279  1.00  0.00    -0.348 OA 
BRANCH   8  11
HETATM   11  C   UNL     1     -10.457  11.053  69.171  1.00  0.00    -0.210 C  
BRANCH  11  12
HETATM   12  O   UNL     1     -10.434  10.036  68.148  1.00  0.00    -0.186 OA 
BRANCH  12  13
HETATM   13  C   UNL     1      -9.171   9.613  67.802  1.00  0.00    -0.124 A  
HETATM   14  C   UNL     1      -8.043  10.427  67.957  1.00  0.00    -0.110 A  
HETATM   15  C   UNL     1      -6.776   9.948  67.644  1.00  0.00    -0.073 A  
HETATM   16  C   UNL     1      -6.624   8.652  67.168  1.00  0.00    -0.058 A  
HETATM   17  C   UNL     1      -7.742   7.831  66.968  1.00  0.00    -0.104 A  
HETATM   18  C   UNL     1      -9.038   8.329  67.240  1.00  0.00    -0.157 A  
HETATM   19  C   UNL     1     -10.260   7.473  66.976  1.00  0.00    -0.368 C  
HETATM   20  C   UNL     1      -9.971   6.245  66.104  1.00  0.00     0.121 C  
HETATM   21  C   UNL     1      -8.708   5.512  66.581  1.00  0.00    -0.116 C  
HETATM   22  O   UNL     1     -11.089   5.356  66.117  1.00  0.00    -0.748 OA 
HETATM   23  H   UNL     1     -10.910   4.595  65.576  1.00  0.00     0.000 HD 
HETATM   24  O   UNL     1      -8.809   5.058  67.938  1.00  0.00    -0.103 OA 
HETATM   25  C   UNL     1      -7.499   6.435  66.433  1.00  0.00    -0.086 C  
HETATM   26  H   UNL     1      -8.029   4.604  68.233  1.00  0.00     0.000 HD 
ENDBRANCH  12  13
ENDBRANCH  11  12
ENDBRANCH   8  11
ENDBRANCH   7   8
ENDBRANCH   5   7
TORSDOF 5
ENDMDL
MODEL      242
REMARK 921   NORMALIZED FREE ENERGY PREDICTED BY IDOCK:   -3.71 KCAL/MOL
REMARK 922        TOTAL FREE ENERGY PREDICTED BY IDOCK:   -5.52 KCAL/MOL
REMARK 923 INTER-LIGAND FREE ENERGY PREDICTED BY IDOCK:   -5.10 KCAL/MOL
REMARK 924 INTRA-LIGAND FREE ENERGY PREDICTED BY IDOCK:   -0.42 KCAL/MOL
REMARK 927      BINDING AFFINITY PREDICTED BY RF-SCORE:    0.00 PKD
ROOT
HETATM    1  C   UNL     1      -9.706  19.892  66.215  1.00  0.00    -0.551 C  
HETATM    2  C   UNL     1      -8.736  18.971  66.978  1.00  0.00    -0.294 C  
HETATM    3  C   UNL     1      -8.143  19.765  68.157  1.00  0.00    -0.329 C  
HETATM    4  C   UNL     1      -7.581  18.544  66.055  1.00  0.00    -0.232 C  
HETATM    5  N   UNL     1      -9.416  17.794  67.549  1.00  0.00    -0.255 NA 
HETATM    6  H   UNL     1     -10.063  18.085  68.282  1.00  0.00     0.000 HD 
ENDROOT
BRANCH   5   7
HETATM    7  C   UNL     1     -10.104  16.937  66.578  1.00  0.00    -0.315 C  
BRANCH   7   8
HETATM    8  C   UNL     1     -10.612  15.639  67.234  1.00  0.00    -0.305 C  
HETATM    9  H   UNL     1     -11.499  13.980  66.644  1.00  0.00     0.000 HD 
HETATM   10  O   UNL     1     -11.186  14.781  66.239  1.00  0.00    -0.338 OA 
BRANCH   8  11
HETATM   11  C   UNL     1      -9.456  14.922  67.947  1.00  0.00    -0.200 C  
BRANCH  11  12
HETATM   12  O   UNL     1      -9.410  13.536  67.546  1.00  0.00    -0.205 OA 
BRANCH  12  13
HETATM   13  C   UNL     1      -8.346  12.835  68.065  1.00  0.00    -0.173 A  
HETATM   14  C   UNL     1      -7.044  13.349  68.069  1.00  0.00    -0.125 A  
HETATM   15  C   UNL     1      -6.002  12.634  68.647  1.00  0.00    -0.065 A  
HETATM   16  C   UNL     1      -6.249  11.394  69.222  1.00  0.00    -0.073 A  
HETATM   17  C   UNL     1      -7.536  10.841  69.197  1.00  0.00    -0.133 A  
HETATM   18  C   UNL     1      -8.591  11.543  68.568  1.00  0.00    -0.140 A  
HETATM   19  C   UNL     1      -9.976  10.934  68.483  1.00  0.00    -0.188 C  
HETATM   20  C   UNL     1     -10.005   9.434  68.803  1.00  0.00    -0.179 C  
HETATM   21  C   UNL     1      -9.193   9.122  70.069  1.00  0.00    -0.192 C  
HETATM   22  O   UNL     1     -11.354   8.989  68.963  1.00  0.00    -0.419 OA 
HETATM   23  H   UNL     1     -11.372   8.061  69.161  1.00  0.00     0.000 HD 
HETATM   24  O   UNL     1      -9.681   9.815  71.226  1.00  0.00    -0.264 OA 
HETATM   25  C   UNL     1      -7.726   9.479  69.832  1.00  0.00    -0.129 C  
HETATM   26  H   UNL     1      -9.179   9.622  72.010  1.00  0.00     0.000 HD 
ENDBRANCH  12  13
ENDBRANCH  11  12
ENDBRANCH   8  11
ENDBRANCH   7   8
ENDBRANCH   5   7
TORSDOF 5
ENDMDL
MODEL      243
REMARK 921   NORMALIZED FREE ENERGY PREDICTED BY IDOCK:   -3.70 KCAL/MOL
REMARK 922        TOTAL FREE ENERGY PREDICTED BY IDOCK:   -5.51 KCAL/MOL
REMARK 923 INTER-LIGAND FREE ENERGY PREDICTED BY IDOCK:   -4.95 KCAL/MOL
REMARK 924 INTRA-LIGAND FREE ENERGY PREDICTED BY IDOCK:   -0.56 KCAL/MOL
REMARK 927      BINDING AFFINITY PREDICTED BY RF-SCORE:    0.00 PKD
ROOT
HETATM    1  C   UNL     1     -11.588   8.024  72.665  1.00  0.00    -0.448 C  
HETATM    2  C   UNL     1     -12.412   7.905  71.370  1.00  0.00    -0.309 C  
HETATM    3  C   UNL     1     -13.900   7.792  71.754  1.00  0.00    -0.440 C  
HETATM    4  C   UNL     1     -12.012   6.630  70.607  1.00  0.00    -0.404 C  
HETATM    5  N   UNL     1     -12.279   9.096  70.511  1.00  0.00    -0.477 NA 
HETATM    6  H   UNL     1     -12.701   9.905  70.966  1.00  0.00     0.000 HD 
ENDROOT
BRANCH   5   7
HETATM    7  C   UNL     1     -10.910   9.412  70.088  1.00  0.00    -0.249 C  
BRANCH   7   8
HETATM    8  C   UNL     1     -10.898  10.203  68.766  1.00  0.00    -0.225 C  
HETATM    9  H   UNL     1      -9.822  11.647  67.963  1.00  0.00     0.000 HD 
HETATM   10  O   UNL     1      -9.830  11.159  68.779  1.00  0.00    -0.197 OA 
BRANCH   8  11
HETATM   11  C   UNL     1     -10.733   9.242  67.579  1.00  0.00    -0.203 C  
BRANCH  11  12
HETATM   12  O   UNL     1      -9.558   8.426  67.761  1.00  0.00    -0.149 OA 
BRANCH  12  13
HETATM   13  C   UNL     1      -9.592   7.230  67.082  1.00  0.00    -0.160 A  
HETATM   14  C   UNL     1     -10.364   6.146  67.517  1.00  0.00    -0.259 A  
HETATM   15  C   UNL     1     -10.414   4.970  66.778  1.00  0.00    -0.273 A  
HETATM   16  C   UNL     1      -9.687   4.862  65.599  1.00  0.00    -0.161 A  
HETATM   17  C   UNL     1      -8.877   5.919  65.163  1.00  0.00     0.017 A  
HETATM   18  C   UNL     1      -8.785   7.101  65.935  1.00  0.00    -0.146 A  
HETATM   19  C   UNL     1      -7.871   8.230  65.507  1.00  0.00    -0.107 C  
HETATM   20  C   UNL     1      -6.860   7.823  64.427  1.00  0.00    -0.059 C  
HETATM   21  C   UNL     1      -7.541   7.025  63.304  1.00  0.00    -0.108 C  
HETATM   22  O   UNL     1      -6.220   8.980  63.887  1.00  0.00    -0.085 OA 
HETATM   23  H   UNL     1      -5.594   8.728  63.219  1.00  0.00     0.000 HD 
HETATM   24  O   UNL     1      -8.586   7.762  62.655  1.00  0.00    -0.395 OA 
HETATM   25  C   UNL     1      -8.103   5.723  63.875  1.00  0.00    -0.113 C  
HETATM   26  H   UNL     1      -9.007   7.269  61.960  1.00  0.00     0.000 HD 
ENDBRANCH  12  13
ENDBRANCH  11  12
ENDBRANCH   8  11
ENDBRANCH   7   8
ENDBRANCH   5   7
TORSDOF 5
ENDMDL
MODEL      244
REMARK 921   NORMALIZED FREE ENERGY PREDICTED BY IDOCK:   -3.69 KCAL/MOL
REMARK 922        TOTAL FREE ENERGY PREDICTED BY IDOCK:   -5.49 KCAL/MOL
REMARK 923 INTER-LIGAND FREE ENERGY PREDICTED BY IDOCK:   -6.17 KCAL/MOL
REMARK 924 INTRA-LIGAND FREE ENERGY PREDICTED BY IDOCK:    0.68 KCAL/MOL
REMARK 927      BINDING AFFINITY PREDICTED BY RF-SCORE:    0.00 PKD
ROOT
HETATM    1  C   UNL     1     -12.591  13.578  65.514  1.00  0.00    -0.531 C  
HETATM    2  C   UNL     1     -11.139  14.089  65.522  1.00  0.00    -0.309 C  
HETATM    3  C   UNL     1     -10.721  14.334  66.984  1.00  0.00    -0.290 C  
HETATM    4  C   UNL     1     -11.047  15.425  64.763  1.00  0.00    -0.416 C  
HETATM    5  N   UNL     1     -10.195  13.102  64.965  1.00  0.00    -0.432 NA 
HETATM    6  H   UNL     1     -10.143  12.286  65.573  1.00  0.00     0.000 HD 
ENDROOT
BRANCH   5   7
HETATM    7  C   UNL     1     -10.467  12.687  63.584  1.00  0.00    -0.314 C  
BRANCH   7   8
HETATM    8  C   UNL     1     -10.039  11.228  63.341  1.00  0.00    -0.400 C  
HETATM    9  H   UNL     1      -8.498  10.295  62.539  1.00  0.00     0.000 HD 
HETATM   10  O   UNL     1      -8.762  11.196  62.689  1.00  0.00    -0.264 OA 
BRANCH   8  11
HETATM   11  C   UNL     1      -9.970  10.469  64.675  1.00  0.00    -0.347 C  
BRANCH  11  12
HETATM   12  O   UNL     1      -9.125   9.307  64.540  1.00  0.00    -0.200 OA 
BRANCH  12  13
HETATM   13  C   UNL     1      -8.367   9.031  65.655  1.00  0.00    -0.132 A  
HETATM   14  C   UNL     1      -7.086   8.474  65.567  1.00  0.00    -0.082 A  
HETATM   15  C   UNL     1      -6.328   8.255  66.712  1.00  0.00    -0.056 A  
HETATM   16  C   UNL     1      -6.846   8.586  67.958  1.00  0.00    -0.070 A  
HETATM   17  C   UNL     1      -8.141   9.109  68.075  1.00  0.00    -0.105 A  
HETATM   18  C   UNL     1      -8.935   9.289  66.918  1.00  0.00    -0.149 A  
HETATM   19  C   UNL     1     -10.356   9.801  67.033  1.00  0.00    -0.305 C  
HETATM   20  C   UNL     1     -10.910   9.750  68.462  1.00  0.00    -0.188 C  
HETATM   21  C   UNL     1      -9.895  10.308  69.470  1.00  0.00    -0.220 C  
HETATM   22  O   UNL     1     -12.135  10.482  68.543  1.00  0.00    -0.793 OA 
HETATM   23  H   UNL     1     -12.479  10.450  69.428  1.00  0.00     0.000 HD 
HETATM   24  O   UNL     1      -9.536  11.670  69.200  1.00  0.00    -0.407 OA 
HETATM   25  C   UNL     1      -8.642   9.432  69.468  1.00  0.00    -0.158 C  
HETATM   26  H   UNL     1      -8.908  12.016  69.823  1.00  0.00     0.000 HD 
ENDBRANCH  12  13
ENDBRANCH  11  12
ENDBRANCH   8  11
ENDBRANCH   7   8
ENDBRANCH   5   7
TORSDOF 5
ENDMDL
MODEL      245
REMARK 921   NORMALIZED FREE ENERGY PREDICTED BY IDOCK:   -3.68 KCAL/MOL
REMARK 922        TOTAL FREE ENERGY PREDICTED BY IDOCK:   -5.48 KCAL/MOL
REMARK 923 INTER-LIGAND FREE ENERGY PREDICTED BY IDOCK:   -4.63 KCAL/MOL
REMARK 924 INTRA-LIGAND FREE ENERGY PREDICTED BY IDOCK:   -0.85 KCAL/MOL
REMARK 927      BINDING AFFINITY PREDICTED BY RF-SCORE:    0.00 PKD
ROOT
HETATM    1  C   UNL     1      -7.033  16.640  66.654  1.00  0.00    -0.243 C  
HETATM    2  C   UNL     1      -7.630  17.713  67.583  1.00  0.00    -0.204 C  
HETATM    3  C   UNL     1      -7.021  19.075  67.202  1.00  0.00    -0.210 C  
HETATM    4  C   UNL     1      -7.257  17.409  69.045  1.00  0.00    -0.224 C  
HETATM    5  N   UNL     1      -9.091  17.837  67.428  1.00  0.00    -0.242 NA 
HETATM    6  H   UNL     1      -9.316  18.201  66.502  1.00  0.00     0.000 HD 
ENDROOT
BRANCH   5   7
HETATM    7  C   UNL     1      -9.854  16.611  67.687  1.00  0.00    -0.256 C  
BRANCH   7   8
HETATM    8  C   UNL     1     -10.907  16.361  66.591  1.00  0.00    -0.086 C  
HETATM    9  H   UNL     1     -11.228  16.961  64.741  1.00  0.00     0.000 HD 
HETATM   10  O   UNL     1     -10.579  17.116  65.417  1.00  0.00    -0.618 OA 
BRANCH   8  11
HETATM   11  C   UNL     1     -10.971  14.863  66.255  1.00  0.00    -0.338 C  
BRANCH  11  12
HETATM   12  O   UNL     1      -9.639  14.340  66.071  1.00  0.00    -0.295 OA 
BRANCH  12  13
HETATM   13  C   UNL     1      -9.568  12.965  66.082  1.00  0.00    -0.210 A  
HETATM   14  C   UNL     1     -10.431  12.167  65.322  1.00  0.00    -0.311 A  
HETATM   15  C   UNL     1     -10.297  10.783  65.320  1.00  0.00    -0.327 A  
HETATM   16  C   UNL     1      -9.302  10.183  66.082  1.00  0.00    -0.217 A  
HETATM   17  C   UNL     1      -8.451  10.958  66.880  1.00  0.00    -0.135 A  
HETATM   18  C   UNL     1      -8.613  12.363  66.924  1.00  0.00    -0.171 A  
HETATM   19  C   UNL     1      -7.738  13.210  67.825  1.00  0.00    -0.153 C  
HETATM   20  C   UNL     1      -6.971  12.395  68.874  1.00  0.00    -0.091 C  
HETATM   21  C   UNL     1      -6.315  11.157  68.243  1.00  0.00    -0.049 C  
HETATM   22  O   UNL     1      -5.979  13.209  69.504  1.00  0.00    -0.094 OA 
HETATM   23  H   UNL     1      -5.504  12.705  70.153  1.00  0.00     0.000 HD 
HETATM   24  O   UNL     1      -5.388  11.492  67.201  1.00  0.00    -0.064 OA 
HETATM   25  C   UNL     1      -7.400  10.232  67.694  1.00  0.00    -0.088 C  
HETATM   26  H   UNL     1      -4.981  10.727  66.810  1.00  0.00     0.000 HD 
ENDBRANCH  12  13
ENDBRANCH  11  12
ENDBRANCH   8  11
ENDBRANCH   7   8
ENDBRANCH   5   7
TORSDOF 5
ENDMDL
MODEL      246
REMARK 921   NORMALIZED FREE ENERGY PREDICTED BY IDOCK:   -3.65 KCAL/MOL
REMARK 922        TOTAL FREE ENERGY PREDICTED BY IDOCK:   -5.45 KCAL/MOL
REMARK 923 INTER-LIGAND FREE ENERGY PREDICTED BY IDOCK:   -4.44 KCAL/MOL
REMARK 924 INTRA-LIGAND FREE ENERGY PREDICTED BY IDOCK:   -1.01 KCAL/MOL
REMARK 927      BINDING AFFINITY PREDICTED BY RF-SCORE:    0.00 PKD
ROOT
HETATM    1  C   UNL     1      -8.792   9.548  67.878  1.00  0.00    -0.119 C  
HETATM    2  C   UNL     1     -10.152   9.114  67.301  1.00  0.00    -0.233 C  
HETATM    3  C   UNL     1     -10.151   7.580  67.164  1.00  0.00    -0.317 C  
HETATM    4  C   UNL     1     -10.349   9.724  65.901  1.00  0.00    -0.148 C  
HETATM    5  N   UNL     1     -11.274   9.465  68.190  1.00  0.00    -0.497 NA 
HETATM    6  H   UNL     1     -11.220   8.925  69.053  1.00  0.00     0.000 HD 
ENDROOT
BRANCH   5   7
HETATM    7  C   UNL     1     -11.405  10.894  68.497  1.00  0.00    -0.299 C  
BRANCH   7   8
HETATM    8  C   UNL     1     -11.319  11.154  70.013  1.00  0.00    -0.243 C  
HETATM    9  H   UNL     1     -12.315  12.203  71.352  1.00  0.00     0.000 HD 
HETATM   10  O   UNL     1     -12.369  12.043  70.417  1.00  0.00    -0.298 OA 
BRANCH   8  11
HETATM   11  C   UNL     1     -11.422   9.829  70.782  1.00  0.00    -0.342 C  
BRANCH  11  12
HETATM   12  O   UNL     1     -10.127   9.449  71.290  1.00  0.00    -0.302 OA 
BRANCH  12  13
HETATM   13  C   UNL     1     -10.001   8.106  71.564  1.00  0.00    -0.182 A  
HETATM   14  C   UNL     1     -11.005   7.183  71.250  1.00  0.00    -0.264 A  
HETATM   15  C   UNL     1     -10.822   5.827  71.496  1.00  0.00    -0.316 A  
HETATM   16  C   UNL     1      -9.635   5.380  72.063  1.00  0.00    -0.186 A  
HETATM   17  C   UNL     1      -8.631   6.289  72.421  1.00  0.00    -0.121 A  
HETATM   18  C   UNL     1      -8.830   7.674  72.218  1.00  0.00    -0.170 A  
HETATM   19  C   UNL     1      -7.778   8.674  72.651  1.00  0.00     0.011 C  
HETATM   20  C   UNL     1      -6.724   8.082  73.595  1.00  0.00    -0.115 C  
HETATM   21  C   UNL     1      -6.214   6.728  73.077  1.00  0.00    -0.058 C  
HETATM   22  O   UNL     1      -5.631   8.990  73.748  1.00  0.00    -0.109 OA 
HETATM   23  H   UNL     1      -4.978   8.624  74.332  1.00  0.00     0.000 HD 
HETATM   24  O   UNL     1      -5.619   6.820  71.775  1.00  0.00    -0.035 OA 
HETATM   25  C   UNL     1      -7.370   5.728  73.048  1.00  0.00    -0.095 C  
HETATM   26  H   UNL     1      -5.304   5.983  71.454  1.00  0.00     0.000 HD 
ENDBRANCH  12  13
ENDBRANCH  11  12
ENDBRANCH   8  11
ENDBRANCH   7   8
ENDBRANCH   5   7
TORSDOF 5
ENDMDL
MODEL      247
REMARK 921   NORMALIZED FREE ENERGY PREDICTED BY IDOCK:   -3.63 KCAL/MOL
REMARK 922        TOTAL FREE ENERGY PREDICTED BY IDOCK:   -5.42 KCAL/MOL
REMARK 923 INTER-LIGAND FREE ENERGY PREDICTED BY IDOCK:   -5.37 KCAL/MOL
REMARK 924 INTRA-LIGAND FREE ENERGY PREDICTED BY IDOCK:   -0.05 KCAL/MOL
REMARK 927      BINDING AFFINITY PREDICTED BY RF-SCORE:    0.00 PKD
ROOT
HETATM    1  C   UNL     1      -5.180  18.808  64.703  1.00  0.00    -0.232 C  
HETATM    2  C   UNL     1      -6.037  19.891  65.384  1.00  0.00    -0.210 C  
HETATM    3  C   UNL     1      -6.587  20.829  64.293  1.00  0.00    -0.204 C  
HETATM    4  C   UNL     1      -5.168  20.724  66.343  1.00  0.00    -0.210 C  
HETATM    5  N   UNL     1      -7.200  19.322  66.089  1.00  0.00    -0.253 NA 
HETATM    6  H   UNL     1      -7.853  18.917  65.418  1.00  0.00     0.000 HD 
ENDROOT
BRANCH   5   7
HETATM    7  C   UNL     1      -6.881  18.345  67.136  1.00  0.00    -0.194 C  
BRANCH   7   8
HETATM    8  C   UNL     1      -6.818  16.914  66.570  1.00  0.00    -0.214 C  
HETATM    9  H   UNL     1      -6.119  15.165  67.152  1.00  0.00     0.000 HD 
HETATM   10  O   UNL     1      -6.157  16.048  67.502  1.00  0.00    -0.145 OA 
BRANCH   8  11
HETATM   11  C   UNL     1      -8.236  16.398  66.282  1.00  0.00    -0.308 C  
BRANCH  11  12
HETATM   12  O   UNL     1      -8.353  15.019  66.690  1.00  0.00    -0.218 OA 
BRANCH  12  13
HETATM   13  C   UNL     1      -9.581  14.457  66.428  1.00  0.00    -0.299 A  
HETATM   14  C   UNL     1      -9.989  14.124  65.130  1.00  0.00    -0.263 A  
HETATM   15  C   UNL     1     -11.217  13.511  64.909  1.00  0.00    -0.353 A  
HETATM   16  C   UNL     1     -12.054  13.230  65.982  1.00  0.00    -0.491 A  
HETATM   17  C   UNL     1     -11.685  13.589  67.286  1.00  0.00    -0.423 A  
HETATM   18  C   UNL     1     -10.458  14.255  67.512  1.00  0.00    -0.252 A  
HETATM   19  C   UNL     1     -10.071  14.699  68.907  1.00  0.00    -0.234 C  
HETATM   20  C   UNL     1     -11.237  14.675  69.903  1.00  0.00    -0.231 C  
HETATM   21  C   UNL     1     -12.030  13.363  69.794  1.00  0.00    -0.330 C  
HETATM   22  O   UNL     1     -10.752  14.845  71.236  1.00  0.00    -0.511 OA 
HETATM   23  H   UNL     1     -11.475  14.830  71.853  1.00  0.00     0.000 HD 
HETATM   24  O   UNL     1     -11.225  12.204  70.050  1.00  0.00    -0.494 OA 
HETATM   25  C   UNL     1     -12.655  13.262  68.402  1.00  0.00     0.698 C  
HETATM   26  H   UNL     1     -11.715  11.393  69.983  1.00  0.00     0.000 HD 
ENDBRANCH  12  13
ENDBRANCH  11  12
ENDBRANCH   8  11
ENDBRANCH   7   8
ENDBRANCH   5   7
TORSDOF 5
ENDMDL
MODEL      248
REMARK 921   NORMALIZED FREE ENERGY PREDICTED BY IDOCK:   -3.63 KCAL/MOL
REMARK 922        TOTAL FREE ENERGY PREDICTED BY IDOCK:   -5.41 KCAL/MOL
REMARK 923 INTER-LIGAND FREE ENERGY PREDICTED BY IDOCK:   -4.87 KCAL/MOL
REMARK 924 INTRA-LIGAND FREE ENERGY PREDICTED BY IDOCK:   -0.54 KCAL/MOL
REMARK 927      BINDING AFFINITY PREDICTED BY RF-SCORE:    0.00 PKD
ROOT
HETATM    1  C   UNL     1     -10.158   4.923  70.774  1.00  0.00    -0.303 C  
HETATM    2  C   UNL     1     -10.632   6.264  70.184  1.00  0.00    -0.248 C  
HETATM    3  C   UNL     1     -11.916   6.689  70.920  1.00  0.00    -0.413 C  
HETATM    4  C   UNL     1     -10.965   6.093  68.691  1.00  0.00    -0.415 C  
HETATM    5  N   UNL     1      -9.646   7.342  70.383  1.00  0.00    -0.166 NA 
HETATM    6  H   UNL     1      -9.559   7.558  71.375  1.00  0.00     0.000 HD 
ENDROOT
BRANCH   5   7
HETATM    7  C   UNL     1      -8.321   7.093  69.802  1.00  0.00    -0.132 C  
BRANCH   7   8
HETATM    8  C   UNL     1      -7.898   8.232  68.857  1.00  0.00    -0.111 C  
HETATM    9  H   UNL     1      -7.778   8.517  66.910  1.00  0.00     0.000 HD 
HETATM   10  O   UNL     1      -8.039   7.814  67.493  1.00  0.00    -0.120 OA 
BRANCH   8  11
HETATM   11  C   UNL     1      -8.754   9.480  69.119  1.00  0.00    -0.146 C  
BRANCH  11  12
HETATM   12  O   UNL     1      -9.045  10.151  67.875  1.00  0.00    -0.130 OA 
BRANCH  12  13
HETATM   13  C   UNL     1      -8.435  11.377  67.740  1.00  0.00    -0.128 A  
HETATM   14  C   UNL     1      -7.084  11.576  68.049  1.00  0.00    -0.079 A  
HETATM   15  C   UNL     1      -6.489  12.817  67.852  1.00  0.00    -0.120 A  
HETATM   16  C   UNL     1      -7.239  13.873  67.351  1.00  0.00    -0.113 A  
HETATM   17  C   UNL     1      -8.602  13.709  67.070  1.00  0.00    -0.173 A  
HETATM   18  C   UNL     1      -9.225  12.462  67.313  1.00  0.00    -0.187 A  
HETATM   19  C   UNL     1     -10.709  12.284  67.069  1.00  0.00    -0.263 C  
HETATM   20  C   UNL     1     -11.464  13.608  66.897  1.00  0.00    -0.345 C  
HETATM   21  C   UNL     1     -10.717  14.551  65.940  1.00  0.00    -0.305 C  
HETATM   22  O   UNL     1     -12.786  13.364  66.412  1.00  0.00    -0.232 OA 
HETATM   23  H   UNL     1     -13.253  14.184  66.305  1.00  0.00     0.000 HD 
HETATM   24  O   UNL     1     -10.539  13.988  64.633  1.00  0.00    -0.433 OA 
HETATM   25  C   UNL     1      -9.358  14.909  66.540  1.00  0.00    -0.308 C  
HETATM   26  H   UNL     1     -10.077  14.571  64.041  1.00  0.00     0.000 HD 
ENDBRANCH  12  13
ENDBRANCH  11  12
ENDBRANCH   8  11
ENDBRANCH   7   8
ENDBRANCH   5   7
TORSDOF 5
ENDMDL
MODEL      249
REMARK 921   NORMALIZED FREE ENERGY PREDICTED BY IDOCK:   -3.63 KCAL/MOL
REMARK 922        TOTAL FREE ENERGY PREDICTED BY IDOCK:   -5.41 KCAL/MOL
REMARK 923 INTER-LIGAND FREE ENERGY PREDICTED BY IDOCK:   -5.58 KCAL/MOL
REMARK 924 INTRA-LIGAND FREE ENERGY PREDICTED BY IDOCK:    0.16 KCAL/MOL
REMARK 927      BINDING AFFINITY PREDICTED BY RF-SCORE:    0.00 PKD
ROOT
HETATM    1  C   UNL     1     -10.274  16.191  69.085  1.00  0.00    -0.255 C  
HETATM    2  C   UNL     1      -9.417  16.182  67.805  1.00  0.00    -0.217 C  
HETATM    3  C   UNL     1      -8.005  15.690  68.174  1.00  0.00    -0.129 C  
HETATM    4  C   UNL     1      -9.300  17.608  67.240  1.00  0.00    -0.249 C  
HETATM    5  N   UNL     1      -9.943  15.254  66.787  1.00  0.00    -0.237 NA 
HETATM    6  H   UNL     1      -9.860  14.292  67.113  1.00  0.00     0.000 HD 
ENDROOT
BRANCH   5   7
HETATM    7  C   UNL     1     -11.318  15.521  66.348  1.00  0.00    -0.005 C  
BRANCH   7   8
HETATM    8  C   UNL     1     -12.206  14.271  66.488  1.00  0.00    -0.391 C  
HETATM    9  H   UNL     1     -13.407  13.221  65.329  1.00  0.00     0.000 HD 
HETATM   10  O   UNL     1     -12.859  13.993  65.242  1.00  0.00    -0.686 OA 
BRANCH   8  11
HETATM   11  C   UNL     1     -11.356  13.066  66.920  1.00  0.00    -0.311 C  
BRANCH  11  12
HETATM   12  O   UNL     1     -11.706  11.907  66.135  1.00  0.00    -0.484 OA 
BRANCH  12  13
HETATM   13  C   UNL     1     -10.690  11.445  65.330  1.00  0.00    -0.253 A  
HETATM   14  C   UNL     1     -10.880  11.169  63.971  1.00  0.00    -0.351 A  
HETATM   15  C   UNL     1      -9.819  10.752  63.177  1.00  0.00    -0.378 A  
HETATM   16  C   UNL     1      -8.555  10.599  63.736  1.00  0.00    -0.102 A  
HETATM   17  C   UNL     1      -8.348  10.832  65.102  1.00  0.00    -0.064 A  
HETATM   18  C   UNL     1      -9.435  11.211  65.924  1.00  0.00    -0.241 A  
HETATM   19  C   UNL     1      -9.238  11.412  67.413  1.00  0.00    -0.164 C  
HETATM   20  C   UNL     1      -7.916  10.840  67.938  1.00  0.00    -0.110 C  
HETATM   21  C   UNL     1      -6.742  11.237  67.030  1.00  0.00    -0.126 C  
HETATM   22  O   UNL     1      -7.677  11.292  69.273  1.00  0.00    -0.302 OA 
HETATM   23  H   UNL     1      -6.858  10.938  69.598  1.00  0.00     0.000 HD 
HETATM   24  O   UNL     1      -6.580  12.658  66.921  1.00  0.00    -0.444 OA 
HETATM   25  C   UNL     1      -6.947  10.632  65.641  1.00  0.00    -0.078 C  
HETATM   26  H   UNL     1      -5.854  12.904  66.360  1.00  0.00     0.000 HD 
ENDBRANCH  12  13
ENDBRANCH  11  12
ENDBRANCH   8  11
ENDBRANCH   7   8
ENDBRANCH   5   7
TORSDOF 5
ENDMDL
MODEL      250
REMARK 921   NORMALIZED FREE ENERGY PREDICTED BY IDOCK:   -3.62 KCAL/MOL
REMARK 922        TOTAL FREE ENERGY PREDICTED BY IDOCK:   -5.41 KCAL/MOL
REMARK 923 INTER-LIGAND FREE ENERGY PREDICTED BY IDOCK:   -4.95 KCAL/MOL
REMARK 924 INTRA-LIGAND FREE ENERGY PREDICTED BY IDOCK:   -0.46 KCAL/MOL
REMARK 927      BINDING AFFINITY PREDICTED BY RF-SCORE:    0.00 PKD
ROOT
HETATM    1  C   UNL     1     -10.301  13.593  64.622  1.00  0.00    -0.407 C  
HETATM    2  C   UNL     1     -11.454  12.580  64.744  1.00  0.00    -0.323 C  
HETATM    3  C   UNL     1     -12.269  12.615  63.437  1.00  0.00    -0.610 C  
HETATM    4  C   UNL     1     -12.384  12.978  65.904  1.00  0.00    -0.432 C  
HETATM    5  N   UNL     1     -10.969  11.198  64.911  1.00  0.00    -0.185 NA 
HETATM    6  H   UNL     1     -10.494  10.888  64.063  1.00  0.00     0.000 HD 
ENDROOT
BRANCH   5   7
HETATM    7  C   UNL     1     -10.110  10.973  66.080  1.00  0.00    -0.247 C  
BRANCH   7   8
HETATM    8  C   UNL     1     -10.409   9.617  66.745  1.00  0.00    -0.222 C  
HETATM    9  H   UNL     1      -9.626   7.807  66.740  1.00  0.00     0.000 HD 
HETATM   10  O   UNL     1      -9.442   8.644  66.329  1.00  0.00    -0.207 OA 
BRANCH   8  11
HETATM   11  C   UNL     1     -10.387   9.764  68.274  1.00  0.00    -0.198 C  
BRANCH  11  12
HETATM   12  O   UNL     1     -10.880   8.558  68.894  1.00  0.00    -0.123 OA 
BRANCH  12  13
HETATM   13  C   UNL     1     -10.154   8.152  69.990  1.00  0.00    -0.196 A  
HETATM   14  C   UNL     1     -10.060   8.926  71.153  1.00  0.00    -0.341 A  
HETATM   15  C   UNL     1      -9.358   8.460  72.259  1.00  0.00    -0.356 A  
HETATM   16  C   UNL     1      -8.738   7.217  72.213  1.00  0.00    -0.136 A  
HETATM   17  C   UNL     1      -8.786   6.441  71.047  1.00  0.00    -0.139 A  
HETATM   18  C   UNL     1      -9.458   6.930  69.902  1.00  0.00    -0.156 A  
HETATM   19  C   UNL     1      -9.471   6.128  68.618  1.00  0.00    -0.128 C  
HETATM   20  C   UNL     1      -8.441   4.992  68.595  1.00  0.00    -0.087 C  
HETATM   21  C   UNL     1      -8.471   4.191  69.907  1.00  0.00    -0.060 C  
HETATM   22  O   UNL     1      -8.685   4.125  67.486  1.00  0.00    -0.102 OA 
HETATM   23  H   UNL     1      -8.047   3.421  67.472  1.00  0.00     0.000 HD 
HETATM   24  O   UNL     1      -9.752   3.601  70.167  1.00  0.00    -0.192 OA 
HETATM   25  C   UNL     1      -8.075   5.103  71.067  1.00  0.00    -0.103 C  
HETATM   26  H   UNL     1      -9.771   3.106  70.977  1.00  0.00     0.000 HD 
ENDBRANCH  12  13
ENDBRANCH  11  12
ENDBRANCH   8  11
ENDBRANCH   7   8
ENDBRANCH   5   7
TORSDOF 5
ENDMDL
MODEL      251
REMARK 921   NORMALIZED FREE ENERGY PREDICTED BY IDOCK:   -3.61 KCAL/MOL
REMARK 922        TOTAL FREE ENERGY PREDICTED BY IDOCK:   -5.39 KCAL/MOL
REMARK 923 INTER-LIGAND FREE ENERGY PREDICTED BY IDOCK:   -4.80 KCAL/MOL
REMARK 924 INTRA-LIGAND FREE ENERGY PREDICTED BY IDOCK:   -0.59 KCAL/MOL
REMARK 927      BINDING AFFINITY PREDICTED BY RF-SCORE:    0.00 PKD
ROOT
HETATM    1  C   UNL     1      -7.180  11.285  69.086  1.00  0.00    -0.115 C  
HETATM    2  C   UNL     1      -6.230  10.090  68.882  1.00  0.00    -0.044 C  
HETATM    3  C   UNL     1      -5.525   9.800  70.221  1.00  0.00    -0.043 C  
HETATM    4  C   UNL     1      -5.156  10.444  67.838  1.00  0.00    -0.034 C  
HETATM    5  N   UNL     1      -6.950   8.862  68.500  1.00  0.00    -0.064 NA 
HETATM    6  H   UNL     1      -7.537   8.545  69.271  1.00  0.00     0.000 HD 
ENDROOT
BRANCH   5   7
HETATM    7  C   UNL     1      -7.744   8.959  67.269  1.00  0.00    -0.092 C  
BRANCH   7   8
HETATM    8  C   UNL     1      -9.236   8.691  67.539  1.00  0.00    -0.133 C  
HETATM    9  H   UNL     1     -10.532   9.078  68.974  1.00  0.00     0.000 HD 
HETATM   10  O   UNL     1      -9.611   9.243  68.808  1.00  0.00    -0.151 OA 
BRANCH   8  11
HETATM   11  C   UNL     1     -10.092   9.305  66.421  1.00  0.00    -0.267 C  
BRANCH  11  12
HETATM   12  O   UNL     1     -10.665  10.552  66.865  1.00  0.00    -0.253 OA 
BRANCH  12  13
HETATM   13  C   UNL     1     -10.618  11.558  65.927  1.00  0.00    -0.268 A  
HETATM   14  C   UNL     1     -10.860  11.324  64.568  1.00  0.00    -0.354 A  
HETATM   15  C   UNL     1     -10.854  12.374  63.657  1.00  0.00    -0.509 A  
HETATM   16  C   UNL     1     -10.600  13.668  64.093  1.00  0.00    -0.082 A  
HETATM   17  C   UNL     1     -10.317  13.922  65.442  1.00  0.00    -0.364 A  
HETATM   18  C   UNL     1     -10.274  12.852  66.366  1.00  0.00    -0.273 A  
HETATM   19  C   UNL     1      -9.915  13.103  67.816  1.00  0.00    -0.227 C  
HETATM   20  C   UNL     1      -9.291  14.482  68.062  1.00  0.00    -0.201 C  
HETATM   21  C   UNL     1     -10.089  15.586  67.350  1.00  0.00    -0.246 C  
HETATM   22  O   UNL     1      -9.224  14.751  69.464  1.00  0.00    -0.405 OA 
HETATM   23  H   UNL     1      -8.838  15.606  69.616  1.00  0.00     0.000 HD 
HETATM   24  O   UNL     1     -11.454  15.651  67.785  1.00  0.00    -0.307 OA 
HETATM   25  C   UNL     1     -10.036  15.357  65.840  1.00  0.00    -0.370 C  
HETATM   26  H   UNL     1     -11.948  16.333  67.345  1.00  0.00     0.000 HD 
ENDBRANCH  12  13
ENDBRANCH  11  12
ENDBRANCH   8  11
ENDBRANCH   7   8
ENDBRANCH   5   7
TORSDOF 5
ENDMDL
MODEL      252
REMARK 921   NORMALIZED FREE ENERGY PREDICTED BY IDOCK:   -3.60 KCAL/MOL
REMARK 922        TOTAL FREE ENERGY PREDICTED BY IDOCK:   -5.38 KCAL/MOL
REMARK 923 INTER-LIGAND FREE ENERGY PREDICTED BY IDOCK:   -5.11 KCAL/MOL
REMARK 924 INTRA-LIGAND FREE ENERGY PREDICTED BY IDOCK:   -0.27 KCAL/MOL
REMARK 927      BINDING AFFINITY PREDICTED BY RF-SCORE:    0.00 PKD
ROOT
HETATM    1  C   UNL     1     -12.250  13.351  70.981  1.00  0.00    -0.312 C  
HETATM    2  C   UNL     1     -12.055  14.866  70.780  1.00  0.00    -0.317 C  
HETATM    3  C   UNL     1     -12.677  15.596  71.986  1.00  0.00    -0.508 C  
HETATM    4  C   UNL     1     -12.786  15.327  69.507  1.00  0.00     0.250 C  
HETATM    5  N   UNL     1     -10.631  15.245  70.736  1.00  0.00    -0.499 NA 
HETATM    6  H   UNL     1     -10.198  15.086  71.645  1.00  0.00     0.000 HD 
ENDROOT
BRANCH   5   7
HETATM    7  C   UNL     1      -9.843  14.595  69.681  1.00  0.00     0.185 C  
BRANCH   7   8
HETATM    8  C   UNL     1      -8.430  15.199  69.581  1.00  0.00    -0.064 C  
HETATM    9  H   UNL     1      -6.676  14.647  68.870  1.00  0.00     0.000 HD 
HETATM   10  O   UNL     1      -7.548  14.274  68.932  1.00  0.00    -0.124 OA 
BRANCH   8  11
HETATM   11  C   UNL     1      -8.477  16.521  68.801  1.00  0.00    -0.248 C  
BRANCH  11  12
HETATM   12  O   UNL     1      -8.175  16.286  67.410  1.00  0.00    -0.150 OA 
BRANCH  12  13
HETATM   13  C   UNL     1      -9.252  16.439  66.567  1.00  0.00    -0.277 A  
HETATM   14  C   UNL     1      -9.774  17.697  66.243  1.00  0.00    -0.275 A  
HETATM   15  C   UNL     1     -10.831  17.816  65.348  1.00  0.00     0.151 A  
HETATM   16  C   UNL     1     -11.382  16.678  64.772  1.00  0.00     0.021 A  
HETATM   17  C   UNL     1     -10.903  15.406  65.109  1.00  0.00    -0.447 A  
HETATM   18  C   UNL     1      -9.859  15.275  66.055  1.00  0.00    -0.357 A  
HETATM   19  C   UNL     1      -9.368  13.904  66.473  1.00  0.00    -0.264 C  
HETATM   20  C   UNL     1     -10.310  12.766  66.062  1.00  0.00    -0.276 C  
HETATM   21  C   UNL     1     -10.760  12.919  64.601  1.00  0.00    -0.353 C  
HETATM   22  O   UNL     1      -9.668  11.502  66.247  1.00  0.00    -0.203 OA 
HETATM   23  H   UNL     1     -10.251  10.797  65.993  1.00  0.00     0.000 HD 
HETATM   24  O   UNL     1      -9.662  12.919  63.679  1.00  0.00    -0.669 OA 
HETATM   25  C   UNL     1     -11.563  14.212  64.451  1.00  0.00    -0.377 C  
HETATM   26  H   UNL     1      -9.941  13.014  62.775  1.00  0.00     0.000 HD 
ENDBRANCH  12  13
ENDBRANCH  11  12
ENDBRANCH   8  11
ENDBRANCH   7   8
ENDBRANCH   5   7
TORSDOF 5
ENDMDL
MODEL      253
REMARK 921   NORMALIZED FREE ENERGY PREDICTED BY IDOCK:   -3.60 KCAL/MOL
REMARK 922        TOTAL FREE ENERGY PREDICTED BY IDOCK:   -5.38 KCAL/MOL
REMARK 923 INTER-LIGAND FREE ENERGY PREDICTED BY IDOCK:   -4.53 KCAL/MOL
REMARK 924 INTRA-LIGAND FREE ENERGY PREDICTED BY IDOCK:   -0.85 KCAL/MOL
REMARK 927      BINDING AFFINITY PREDICTED BY RF-SCORE:    0.00 PKD
ROOT
HETATM    1  C   UNL     1      -9.159   2.724  66.928  1.00  0.00    -0.172 C  
HETATM    2  C   UNL     1      -9.038   4.127  66.305  1.00  0.00    -0.134 C  
HETATM    3  C   UNL     1     -10.444   4.754  66.251  1.00  0.00    -0.311 C  
HETATM    4  C   UNL     1      -8.501   4.020  64.867  1.00  0.00    -0.113 C  
HETATM    5  N   UNL     1      -8.197   5.027  67.115  1.00  0.00    -0.107 NA 
HETATM    6  H   UNL     1      -8.650   5.222  68.007  1.00  0.00     0.000 HD 
ENDROOT
BRANCH   5   7
HETATM    7  C   UNL     1      -6.821   4.566  67.337  1.00  0.00    -0.059 C  
BRANCH   7   8
HETATM    8  C   UNL     1      -6.511   4.424  68.839  1.00  0.00    -0.040 C  
HETATM    9  H   UNL     1      -4.965   3.906  69.947  1.00  0.00     0.000 HD 
HETATM   10  O   UNL     1      -5.156   3.993  69.020  1.00  0.00    -0.003 OA 
BRANCH   8  11
HETATM   11  C   UNL     1      -6.740   5.764  69.554  1.00  0.00    -0.059 C  
BRANCH  11  12
HETATM   12  O   UNL     1      -8.097   5.840  70.040  1.00  0.00    -0.103 OA 
BRANCH  12  13
HETATM   13  C   UNL     1      -8.609   7.117  70.080  1.00  0.00    -0.141 A  
HETATM   14  C   UNL     1      -7.957   8.202  69.484  1.00  0.00    -0.113 A  
HETATM   15  C   UNL     1      -8.529   9.469  69.501  1.00  0.00    -0.156 A  
HETATM   16  C   UNL     1      -9.758   9.665  70.119  1.00  0.00    -0.301 A  
HETATM   17  C   UNL     1     -10.413   8.602  70.755  1.00  0.00    -0.249 A  
HETATM   18  C   UNL     1      -9.813   7.321  70.782  1.00  0.00    -0.178 A  
HETATM   19  C   UNL     1     -10.481   6.175  71.514  1.00  0.00    -0.268 C  
HETATM   20  C   UNL     1     -11.605   6.623  72.456  1.00  0.00    -0.205 C  
HETATM   21  C   UNL     1     -12.534   7.635  71.768  1.00  0.00    -0.329 C  
HETATM   22  O   UNL     1     -12.356   5.492  72.902  1.00  0.00    -0.519 OA 
HETATM   23  H   UNL     1     -13.052   5.770  73.486  1.00  0.00     0.000 HD 
HETATM   24  O   UNL     1     -13.153   7.106  70.586  1.00  0.00    -0.582 OA 
HETATM   25  C   UNL     1     -11.743   8.895  71.418  1.00  0.00    -0.385 C  
HETATM   26  H   UNL     1     -13.728   7.732  70.161  1.00  0.00     0.000 HD 
ENDBRANCH  12  13
ENDBRANCH  11  12
ENDBRANCH   8  11
ENDBRANCH   7   8
ENDBRANCH   5   7
TORSDOF 5
ENDMDL
MODEL      254
REMARK 921   NORMALIZED FREE ENERGY PREDICTED BY IDOCK:   -3.60 KCAL/MOL
REMARK 922        TOTAL FREE ENERGY PREDICTED BY IDOCK:   -5.37 KCAL/MOL
REMARK 923 INTER-LIGAND FREE ENERGY PREDICTED BY IDOCK:   -4.63 KCAL/MOL
REMARK 924 INTRA-LIGAND FREE ENERGY PREDICTED BY IDOCK:   -0.74 KCAL/MOL
REMARK 927      BINDING AFFINITY PREDICTED BY RF-SCORE:    0.00 PKD
ROOT
HETATM    1  C   UNL     1      -8.247   6.882  66.346  1.00  0.00    -0.117 C  
HETATM    2  C   UNL     1      -7.434   6.879  67.653  1.00  0.00    -0.098 C  
HETATM    3  C   UNL     1      -6.520   5.639  67.650  1.00  0.00    -0.047 C  
HETATM    4  C   UNL     1      -8.381   6.778  68.862  1.00  0.00    -0.121 C  
HETATM    5  N   UNL     1      -6.557   8.059  67.769  1.00  0.00    -0.056 NA 
HETATM    6  H   UNL     1      -5.828   8.025  67.057  1.00  0.00     0.000 HD 
ENDROOT
BRANCH   5   7
HETATM    7  C   UNL     1      -7.244   9.355  67.726  1.00  0.00    -0.083 C  
BRANCH   7   8
HETATM    8  C   UNL     1      -6.620  10.288  66.671  1.00  0.00    -0.078 C  
HETATM    9  H   UNL     1      -7.185  11.130  64.980  1.00  0.00     0.000 HD 
HETATM   10  O   UNL     1      -7.570  10.554  65.631  1.00  0.00    -0.148 OA 
BRANCH   8  11
HETATM   11  C   UNL     1      -6.174  11.603  67.328  1.00  0.00    -0.115 C  
BRANCH  11  12
HETATM   12  O   UNL     1      -7.172  12.049  68.269  1.00  0.00    -0.077 OA 
BRANCH  12  13
HETATM   13  C   UNL     1      -7.807  13.215  67.905  1.00  0.00    -0.151 A  
HETATM   14  C   UNL     1      -7.106  14.403  67.662  1.00  0.00    -0.202 A  
HETATM   15  C   UNL     1      -7.775  15.548  67.247  1.00  0.00    -0.244 A  
HETATM   16  C   UNL     1      -9.154  15.520  67.076  1.00  0.00    -0.250 A  
HETATM   17  C   UNL     1      -9.882  14.354  67.348  1.00  0.00    -0.224 A  
HETATM   18  C   UNL     1      -9.212  13.200  67.817  1.00  0.00    -0.203 A  
HETATM   19  C   UNL     1      -9.991  11.949  68.170  1.00  0.00    -0.197 C  
HETATM   20  C   UNL     1     -11.501  12.186  68.302  1.00  0.00    -0.305 C  
HETATM   21  C   UNL     1     -12.036  13.022  67.129  1.00  0.00    -0.329 C  
HETATM   22  O   UNL     1     -12.193  10.938  68.371  1.00  0.00    -0.813 OA 
HETATM   23  H   UNL     1     -13.128  11.085  68.453  1.00  0.00     0.000 HD 
HETATM   24  O   UNL     1     -11.811  12.399  65.856  1.00  0.00    -0.418 OA 
HETATM   25  C   UNL     1     -11.383  14.404  67.151  1.00  0.00    -0.356 C  
HETATM   26  H   UNL     1     -12.142  12.915  65.130  1.00  0.00     0.000 HD 
ENDBRANCH  12  13
ENDBRANCH  11  12
ENDBRANCH   8  11
ENDBRANCH   7   8
ENDBRANCH   5   7
TORSDOF 5
ENDMDL
MODEL      255
REMARK 921   NORMALIZED FREE ENERGY PREDICTED BY IDOCK:   -3.57 KCAL/MOL
REMARK 922        TOTAL FREE ENERGY PREDICTED BY IDOCK:   -5.34 KCAL/MOL
REMARK 923 INTER-LIGAND FREE ENERGY PREDICTED BY IDOCK:   -4.25 KCAL/MOL
REMARK 924 INTRA-LIGAND FREE ENERGY PREDICTED BY IDOCK:   -1.09 KCAL/MOL
REMARK 927      BINDING AFFINITY PREDICTED BY RF-SCORE:    0.00 PKD
ROOT
HETATM    1  C   UNL     1     -10.430   5.209  69.604  1.00  0.00    -0.262 C  
HETATM    2  C   UNL     1      -9.004   4.830  70.043  1.00  0.00    -0.095 C  
HETATM    3  C   UNL     1      -8.210   6.128  70.280  1.00  0.00    -0.124 C  
HETATM    4  C   UNL     1      -8.304   4.032  68.928  1.00  0.00    -0.090 C  
HETATM    5  N   UNL     1      -8.991   4.080  71.313  1.00  0.00    -0.102 NA 
HETATM    6  H   UNL     1      -9.303   4.680  72.077  1.00  0.00     0.000 HD 
ENDROOT
BRANCH   5   7
HETATM    7  C   UNL     1      -9.757   2.829  71.309  1.00  0.00    -0.133 C  
BRANCH   7   8
HETATM    8  C   UNL     1     -10.932   2.884  72.303  1.00  0.00     0.655 C  
HETATM    9  H   UNL     1     -12.201   1.606  73.104  1.00  0.00     0.000 HD 
HETATM   10  O   UNL     1     -11.476   1.572  72.491  1.00  0.00     0.036 OA 
BRANCH   8  11
HETATM   11  C   UNL     1     -10.458   3.457  73.647  1.00  0.00    -0.175 C  
BRANCH  11  12
HETATM   12  O   UNL     1     -11.169   4.677  73.943  1.00  0.00    -0.257 OA 
BRANCH  12  13
HETATM   13  C   UNL     1     -10.427   5.821  73.755  1.00  0.00    -0.271 A  
HETATM   14  C   UNL     1      -9.160   5.991  74.325  1.00  0.00    -0.132 A  
HETATM   15  C   UNL     1      -8.418   7.139  74.073  1.00  0.00    -0.194 A  
HETATM   16  C   UNL     1      -8.937   8.132  73.251  1.00  0.00    -0.332 A  
HETATM   17  C   UNL     1     -10.219   8.002  72.700  1.00  0.00    -0.385 A  
HETATM   18  C   UNL     1     -10.998   6.858  72.992  1.00  0.00    -0.308 A  
HETATM   19  C   UNL     1     -12.406   6.729  72.450  1.00  0.00    -0.014 C  
HETATM   20  C   UNL     1     -12.974   8.043  71.902  1.00  0.00    -0.312 C  
HETATM   21  C   UNL     1     -11.953   8.754  71.000  1.00  0.00    -0.251 C  
HETATM   22  O   UNL     1     -14.180   7.797  71.176  1.00  0.00    -0.639 OA 
HETATM   23  H   UNL     1     -14.532   8.611  70.836  1.00  0.00     0.000 HD 
HETATM   24  O   UNL     1     -11.556   7.958  69.875  1.00  0.00    -0.465 OA 
HETATM   25  C   UNL     1     -10.723   9.132  71.826  1.00  0.00    -0.405 C  
HETATM   26  H   UNL     1     -10.925   8.397  69.318  1.00  0.00     0.000 HD 
ENDBRANCH  12  13
ENDBRANCH  11  12
ENDBRANCH   8  11
ENDBRANCH   7   8
ENDBRANCH   5   7
TORSDOF 5
ENDMDL
MODEL      256
REMARK 921   NORMALIZED FREE ENERGY PREDICTED BY IDOCK:   -3.55 KCAL/MOL
REMARK 922        TOTAL FREE ENERGY PREDICTED BY IDOCK:   -5.32 KCAL/MOL
REMARK 923 INTER-LIGAND FREE ENERGY PREDICTED BY IDOCK:   -4.88 KCAL/MOL
REMARK 924 INTRA-LIGAND FREE ENERGY PREDICTED BY IDOCK:   -0.44 KCAL/MOL
REMARK 927      BINDING AFFINITY PREDICTED BY RF-SCORE:    0.00 PKD
ROOT
HETATM    1  C   UNL     1      -5.961   8.122  66.784  1.00  0.00    -0.052 C  
HETATM    2  C   UNL     1      -6.757   7.932  68.089  1.00  0.00    -0.064 C  
HETATM    3  C   UNL     1      -5.769   7.544  69.205  1.00  0.00    -0.026 C  
HETATM    4  C   UNL     1      -7.773   6.788  67.924  1.00  0.00    -0.112 C  
HETATM    5  N   UNL     1      -7.428   9.173  68.520  1.00  0.00    -0.081 NA 
HETATM    6  H   UNL     1      -6.734   9.871  68.786  1.00  0.00     0.000 HD 
ENDROOT
BRANCH   5   7
HETATM    7  C   UNL     1      -8.372   9.742  67.552  1.00  0.00    -0.114 C  
BRANCH   7   8
HETATM    8  C   UNL     1      -8.678  11.219  67.865  1.00  0.00    -0.138 C  
HETATM    9  H   UNL     1      -8.029  12.981  67.266  1.00  0.00     0.000 HD 
HETATM   10  O   UNL     1      -7.841  12.070  67.073  1.00  0.00    -0.160 OA 
BRANCH   8  11
HETATM   11  C   UNL     1     -10.157  11.522  67.584  1.00  0.00    -0.184 C  
BRANCH  11  12
HETATM   12  O   UNL     1     -10.302  12.872  67.096  1.00  0.00    -0.236 OA 
BRANCH  12  13
HETATM   13  C   UNL     1     -10.892  13.734  67.992  1.00  0.00    -0.249 A  
HETATM   14  C   UNL     1     -11.827  13.301  68.939  1.00  0.00    -0.367 A  
HETATM   15  C   UNL     1     -12.365  14.191  69.861  1.00  0.00    -0.382 A  
HETATM   16  C   UNL     1     -11.978  15.526  69.843  1.00  0.00    -0.381 A  
HETATM   17  C   UNL     1     -11.072  15.990  68.880  1.00  0.00    -0.331 A  
HETATM   18  C   UNL     1     -10.558  15.099  67.909  1.00  0.00    -0.257 A  
HETATM   19  C   UNL     1      -9.622  15.598  66.828  1.00  0.00    -0.257 C  
HETATM   20  C   UNL     1      -9.595  17.126  66.698  1.00  0.00    -0.267 C  
HETATM   21  C   UNL     1      -9.474  17.796  68.076  1.00  0.00    -0.281 C  
HETATM   22  O   UNL     1      -8.512  17.533  65.858  1.00  0.00    -0.533 OA 
HETATM   23  H   UNL     1      -8.496  18.479  65.778  1.00  0.00     0.000 HD 
HETATM   24  O   UNL     1      -8.287  17.407  68.780  1.00  0.00    -0.271 OA 
HETATM   25  C   UNL     1     -10.707  17.460  68.914  1.00  0.00    -0.139 C  
HETATM   26  H   UNL     1      -8.212  17.821  69.632  1.00  0.00     0.000 HD 
ENDBRANCH  12  13
ENDBRANCH  11  12
ENDBRANCH   8  11
ENDBRANCH   7   8
ENDBRANCH   5   7
TORSDOF 5
ENDMDL
MODEL      257
REMARK 921   NORMALIZED FREE ENERGY PREDICTED BY IDOCK:   -3.55 KCAL/MOL
REMARK 922        TOTAL FREE ENERGY PREDICTED BY IDOCK:   -5.31 KCAL/MOL
REMARK 923 INTER-LIGAND FREE ENERGY PREDICTED BY IDOCK:   -4.78 KCAL/MOL
REMARK 924 INTRA-LIGAND FREE ENERGY PREDICTED BY IDOCK:   -0.53 KCAL/MOL
REMARK 927      BINDING AFFINITY PREDICTED BY RF-SCORE:    0.00 PKD
ROOT
HETATM    1  C   UNL     1     -12.176  12.473  65.711  1.00  0.00    -0.361 C  
HETATM    2  C   UNL     1     -11.750  12.700  64.249  1.00  0.00    -0.381 C  
HETATM    3  C   UNL     1     -13.010  12.650  63.365  1.00  0.00     0.108 C  
HETATM    4  C   UNL     1     -10.798  11.578  63.798  1.00  0.00    -0.486 C  
HETATM    5  N   UNL     1     -11.134  14.025  64.046  1.00  0.00    -0.527 NA 
HETATM    6  H   UNL     1     -11.828  14.759  64.188  1.00  0.00     0.000 HD 
ENDROOT
BRANCH   5   7
HETATM    7  C   UNL     1      -9.943  14.292  64.859  1.00  0.00    -0.099 C  
BRANCH   7   8
HETATM    8  C   UNL     1     -10.088  15.601  65.658  1.00  0.00    -0.365 C  
HETATM    9  H   UNL     1     -11.453  17.006  65.882  1.00  0.00     0.000 HD 
HETATM   10  O   UNL     1     -11.364  16.198  65.389  1.00  0.00    -0.050 OA 
BRANCH   8  11
HETATM   11  C   UNL     1      -9.943  15.320  67.161  1.00  0.00    -0.233 C  
BRANCH  11  12
HETATM   12  O   UNL     1      -9.955  13.897  67.402  1.00  0.00    -0.235 OA 
BRANCH  12  13
HETATM   13  C   UNL     1      -8.763  13.396  67.874  1.00  0.00    -0.187 A  
HETATM   14  C   UNL     1      -7.583  14.149  67.871  1.00  0.00    -0.162 A  
HETATM   15  C   UNL     1      -6.409  13.628  68.403  1.00  0.00    -0.098 A  
HETATM   16  C   UNL     1      -6.401  12.346  68.939  1.00  0.00    -0.085 A  
HETATM   17  C   UNL     1      -7.561  11.559  68.920  1.00  0.00    -0.102 A  
HETATM   18  C   UNL     1      -8.746  12.066  68.337  1.00  0.00    -0.147 A  
HETATM   19  C   UNL     1      -9.991  11.208  68.258  1.00  0.00    -0.196 C  
HETATM   20  C   UNL     1      -9.727   9.721  68.525  1.00  0.00    -0.154 C  
HETATM   21  C   UNL     1      -8.838   9.530  69.764  1.00  0.00    -0.199 C  
HETATM   22  O   UNL     1     -10.962   9.022  68.696  1.00  0.00    -0.436 OA 
HETATM   23  H   UNL     1     -10.798   8.101  68.862  1.00  0.00     0.000 HD 
HETATM   24  O   UNL     1      -9.418  10.082  70.954  1.00  0.00    -0.254 OA 
HETATM   25  C   UNL     1      -7.472  10.167  69.511  1.00  0.00    -0.133 C  
HETATM   26  H   UNL     1      -8.869   9.964  71.720  1.00  0.00     0.000 HD 
ENDBRANCH  12  13
ENDBRANCH  11  12
ENDBRANCH   8  11
ENDBRANCH   7   8
ENDBRANCH   5   7
TORSDOF 5
ENDMDL
MODEL      258
REMARK 921   NORMALIZED FREE ENERGY PREDICTED BY IDOCK:   -3.53 KCAL/MOL
REMARK 922        TOTAL FREE ENERGY PREDICTED BY IDOCK:   -5.28 KCAL/MOL
REMARK 923 INTER-LIGAND FREE ENERGY PREDICTED BY IDOCK:   -4.87 KCAL/MOL
REMARK 924 INTRA-LIGAND FREE ENERGY PREDICTED BY IDOCK:   -0.41 KCAL/MOL
REMARK 927      BINDING AFFINITY PREDICTED BY RF-SCORE:    0.00 PKD
ROOT
HETATM    1  C   UNL     1      -7.086   8.708  69.915  1.00  0.00    -0.050 C  
HETATM    2  C   UNL     1      -7.882   7.729  69.032  1.00  0.00    -0.118 C  
HETATM    3  C   UNL     1      -8.494   6.647  69.942  1.00  0.00    -0.139 C  
HETATM    4  C   UNL     1      -6.941   7.041  68.028  1.00  0.00    -0.083 C  
HETATM    5  N   UNL     1      -9.002   8.390  68.336  1.00  0.00    -0.136 NA 
HETATM    6  H   UNL     1      -9.702   8.695  69.011  1.00  0.00     0.000 HD 
ENDROOT
BRANCH   5   7
HETATM    7  C   UNL     1      -8.624   9.505  67.461  1.00  0.00    -0.126 C  
BRANCH   7   8
HETATM    8  C   UNL     1      -9.861  10.156  66.814  1.00  0.00    -0.196 C  
HETATM    9  H   UNL     1     -11.773  10.358  67.247  1.00  0.00     0.000 HD 
HETATM   10  O   UNL     1     -11.011   9.956  67.646  1.00  0.00    -0.289 OA 
BRANCH   8  11
HETATM   11  C   UNL     1      -9.615  11.658  66.603  1.00  0.00    -0.204 C  
BRANCH  11  12
HETATM   12  O   UNL     1     -10.743  12.416  67.087  1.00  0.00    -0.228 OA 
BRANCH  12  13
HETATM   13  C   UNL     1     -10.658  13.768  66.846  1.00  0.00    -0.276 A  
HETATM   14  C   UNL     1     -10.358  14.284  65.580  1.00  0.00    -0.374 A  
HETATM   15  C   UNL     1     -10.329  15.656  65.362  1.00  0.00    -0.421 A  
HETATM   16  C   UNL     1     -10.595  16.529  66.410  1.00  0.00    -0.221 A  
HETATM   17  C   UNL     1     -10.860  16.038  67.696  1.00  0.00    -0.311 A  
HETATM   18  C   UNL     1     -10.844  14.644  67.934  1.00  0.00    -0.261 A  
HETATM   19  C   UNL     1     -11.073  14.100  69.329  1.00  0.00    -0.286 C  
HETATM   20  C   UNL     1     -10.964  15.165  70.427  1.00  0.00    -0.238 C  
HETATM   21  C   UNL     1     -11.743  16.434  70.046  1.00  0.00     0.126 C  
HETATM   22  O   UNL     1     -11.446  14.648  71.668  1.00  0.00    -0.488 OA 
HETATM   23  H   UNL     1     -11.379  15.308  72.348  1.00  0.00     0.000 HD 
HETATM   24  O   UNL     1     -13.139  16.184  69.830  1.00  0.00    -0.471 OA 
HETATM   25  C   UNL     1     -11.127  17.051  68.790  1.00  0.00    -0.086 C  
HETATM   26  H   UNL     1     -13.621  16.969  69.595  1.00  0.00     0.000 HD 
ENDBRANCH  12  13
ENDBRANCH  11  12
ENDBRANCH   8  11
ENDBRANCH   7   8
ENDBRANCH   5   7
TORSDOF 5
ENDMDL
MODEL      259
REMARK 921   NORMALIZED FREE ENERGY PREDICTED BY IDOCK:   -3.51 KCAL/MOL
REMARK 922        TOTAL FREE ENERGY PREDICTED BY IDOCK:   -5.26 KCAL/MOL
REMARK 923 INTER-LIGAND FREE ENERGY PREDICTED BY IDOCK:   -4.51 KCAL/MOL
REMARK 924 INTRA-LIGAND FREE ENERGY PREDICTED BY IDOCK:   -0.75 KCAL/MOL
REMARK 927      BINDING AFFINITY PREDICTED BY RF-SCORE:    0.00 PKD
ROOT
HETATM    1  C   UNL     1     -12.982   8.785  72.309  1.00  0.00    -0.462 C  
HETATM    2  C   UNL     1     -11.691   8.633  71.482  1.00  0.00    -0.305 C  
HETATM    3  C   UNL     1     -11.474   9.931  70.683  1.00  0.00    -0.411 C  
HETATM    4  C   UNL     1     -11.839   7.470  70.485  1.00  0.00    -0.144 C  
HETATM    5  N   UNL     1     -10.501   8.447  72.333  1.00  0.00    -0.331 NA 
HETATM    6  H   UNL     1     -10.319   9.295  72.870  1.00  0.00     0.000 HD 
ENDROOT
BRANCH   5   7
HETATM    7  C   UNL     1     -10.546   7.284  73.226  1.00  0.00    -0.382 C  
BRANCH   7   8
HETATM    8  C   UNL     1      -9.169   6.602  73.331  1.00  0.00    -0.131 C  
HETATM    9  H   UNL     1      -8.294   5.303  74.529  1.00  0.00     0.000 HD 
HETATM   10  O   UNL     1      -9.143   5.724  74.465  1.00  0.00    -0.124 OA 
BRANCH   8  11
HETATM   11  C   UNL     1      -8.872   5.814  72.046  1.00  0.00    -0.138 C  
BRANCH  11  12
HETATM   12  O   UNL     1      -8.459   6.715  70.998  1.00  0.00    -0.127 OA 
BRANCH  12  13
HETATM   13  C   UNL     1      -7.663   6.134  70.038  1.00  0.00    -0.097 A  
HETATM   14  C   UNL     1      -6.344   5.743  70.298  1.00  0.00    -0.031 A  
HETATM   15  C   UNL     1      -5.586   5.113  69.318  1.00  0.00    -0.008 A  
HETATM   16  C   UNL     1      -6.136   4.872  68.065  1.00  0.00    -0.031 A  
HETATM   17  C   UNL     1      -7.441   5.288  67.768  1.00  0.00    -0.076 A  
HETATM   18  C   UNL     1      -8.201   5.973  68.746  1.00  0.00    -0.104 A  
HETATM   19  C   UNL     1      -9.591   6.479  68.423  1.00  0.00    -0.122 C  
HETATM   20  C   UNL     1      -9.906   6.488  66.922  1.00  0.00    -0.164 C  
HETATM   21  C   UNL     1      -9.483   5.168  66.259  1.00  0.00    -0.156 C  
HETATM   22  O   UNL     1     -11.300   6.719  66.710  1.00  0.00    -0.721 OA 
HETATM   23  H   UNL     1     -11.494   6.725  65.780  1.00  0.00     0.000 HD 
HETATM   24  O   UNL     1     -10.142   4.027  66.826  1.00  0.00    -0.333 OA 
HETATM   25  C   UNL     1      -7.968   5.003  66.377  1.00  0.00    -0.107 C  
HETATM   26  H   UNL     1      -9.881   3.210  66.416  1.00  0.00     0.000 HD 
ENDBRANCH  12  13
ENDBRANCH  11  12
ENDBRANCH   8  11
ENDBRANCH   7   8
ENDBRANCH   5   7
TORSDOF 5
ENDMDL
MODEL      260
REMARK 921   NORMALIZED FREE ENERGY PREDICTED BY IDOCK:   -3.51 KCAL/MOL
REMARK 922        TOTAL FREE ENERGY PREDICTED BY IDOCK:   -5.26 KCAL/MOL
REMARK 923 INTER-LIGAND FREE ENERGY PREDICTED BY IDOCK:   -4.87 KCAL/MOL
REMARK 924 INTRA-LIGAND FREE ENERGY PREDICTED BY IDOCK:   -0.39 KCAL/MOL
REMARK 927      BINDING AFFINITY PREDICTED BY RF-SCORE:    0.00 PKD
ROOT
HETATM    1  C   UNL     1      -5.702  17.146  68.054  1.00  0.00    -0.123 C  
HETATM    2  C   UNL     1      -7.048  16.650  67.495  1.00  0.00    -0.144 C  
HETATM    3  C   UNL     1      -7.433  17.541  66.299  1.00  0.00    -0.355 C  
HETATM    4  C   UNL     1      -8.144  16.781  68.567  1.00  0.00    -0.241 C  
HETATM    5  N   UNL     1      -6.968  15.266  66.991  1.00  0.00    -0.290 NA 
HETATM    6  H   UNL     1      -6.363  15.226  66.172  1.00  0.00     0.000 HD 
ENDROOT
BRANCH   5   7
HETATM    7  C   UNL     1      -6.548  14.264  67.978  1.00  0.00    -0.150 C  
BRANCH   7   8
HETATM    8  C   UNL     1      -7.332  12.949  67.812  1.00  0.00    -0.134 C  
HETATM    9  H   UNL     1      -7.736  11.366  68.916  1.00  0.00     0.000 HD 
HETATM   10  O   UNL     1      -7.252  12.178  69.018  1.00  0.00    -0.103 OA 
BRANCH   8  11
HETATM   11  C   UNL     1      -8.800  13.249  67.472  1.00  0.00    -0.206 C  
BRANCH  11  12
HETATM   12  O   UNL     1      -9.666  12.324  68.161  1.00  0.00    -0.202 OA 
BRANCH  12  13
HETATM   13  C   UNL     1      -9.817  11.113  67.524  1.00  0.00    -0.177 A  
HETATM   14  C   UNL     1      -9.793  10.996  66.129  1.00  0.00    -0.268 A  
HETATM   15  C   UNL     1      -9.899   9.750  65.521  1.00  0.00    -0.378 A  
HETATM   16  C   UNL     1     -10.036   8.609  66.301  1.00  0.00    -0.287 A  
HETATM   17  C   UNL     1     -10.101   8.704  67.698  1.00  0.00    -0.271 A  
HETATM   18  C   UNL     1     -10.042   9.973  68.320  1.00  0.00    -0.182 A  
HETATM   19  C   UNL     1     -10.167  10.098  69.824  1.00  0.00    -0.286 C  
HETATM   20  C   UNL     1     -10.695   8.828  70.502  1.00  0.00    -0.223 C  
HETATM   21  C   UNL     1      -9.974   7.578  69.973  1.00  0.00    -0.186 C  
HETATM   22  O   UNL     1     -10.539   8.921  71.919  1.00  0.00    -0.327 OA 
HETATM   23  H   UNL     1     -10.865   8.134  72.339  1.00  0.00     0.000 HD 
HETATM   24  O   UNL     1      -8.557   7.621  70.191  1.00  0.00    -0.137 OA 
HETATM   25  C   UNL     1     -10.264   7.418  68.481  1.00  0.00    -0.201 C  
HETATM   26  H   UNL     1      -8.111   6.848  69.864  1.00  0.00     0.000 HD 
ENDBRANCH  12  13
ENDBRANCH  11  12
ENDBRANCH   8  11
ENDBRANCH   7   8
ENDBRANCH   5   7
TORSDOF 5
ENDMDL
MODEL      261
REMARK 921   NORMALIZED FREE ENERGY PREDICTED BY IDOCK:   -3.49 KCAL/MOL
REMARK 922        TOTAL FREE ENERGY PREDICTED BY IDOCK:   -5.24 KCAL/MOL
REMARK 923 INTER-LIGAND FREE ENERGY PREDICTED BY IDOCK:   -4.76 KCAL/MOL
REMARK 924 INTRA-LIGAND FREE ENERGY PREDICTED BY IDOCK:   -0.48 KCAL/MOL
REMARK 927      BINDING AFFINITY PREDICTED BY RF-SCORE:    0.00 PKD
ROOT
HETATM    1  C   UNL     1      -8.543   6.214  68.378  1.00  0.00    -0.112 C  
HETATM    2  C   UNL     1      -9.495   7.408  68.178  1.00  0.00    -0.138 C  
HETATM    3  C   UNL     1     -10.864   7.040  68.781  1.00  0.00    -0.198 C  
HETATM    4  C   UNL     1      -9.687   7.683  66.676  1.00  0.00    -0.283 C  
HETATM    5  N   UNL     1      -9.028   8.619  68.879  1.00  0.00    -0.141 NA 
HETATM    6  H   UNL     1      -9.065   8.476  69.887  1.00  0.00     0.000 HD 
ENDROOT
BRANCH   5   7
HETATM    7  C   UNL     1      -7.697   9.096  68.485  1.00  0.00    -0.093 C  
BRANCH   7   8
HETATM    8  C   UNL     1      -7.600  10.630  68.575  1.00  0.00    -0.097 C  
HETATM    9  H   UNL     1      -6.424  12.042  67.859  1.00  0.00     0.000 HD 
HETATM   10  O   UNL     1      -6.484  11.095  67.803  1.00  0.00    -0.060 OA 
BRANCH   8  11
HETATM   11  C   UNL     1      -8.899  11.271  68.065  1.00  0.00    -0.148 C  
BRANCH  11  12
HETATM   12  O   UNL     1      -8.780  12.709  68.081  1.00  0.00    -0.180 OA 
BRANCH  12  13
HETATM   13  C   UNL     1      -9.819  13.366  67.462  1.00  0.00    -0.227 A  
HETATM   14  C   UNL     1     -11.073  12.773  67.276  1.00  0.00    -0.314 A  
HETATM   15  C   UNL     1     -12.114  13.485  66.692  1.00  0.00    -0.447 A  
HETATM   16  C   UNL     1     -11.911  14.797  66.282  1.00  0.00    -0.215 A  
HETATM   17  C   UNL     1     -10.654  15.401  66.423  1.00  0.00    -0.307 A  
HETATM   18  C   UNL     1      -9.578  14.665  66.973  1.00  0.00    -0.246 A  
HETATM   19  C   UNL     1      -8.200  15.284  67.081  1.00  0.00    -0.250 C  
HETATM   20  C   UNL     1      -8.037  16.563  66.250  1.00  0.00    -0.306 C  
HETATM   21  C   UNL     1      -9.233  17.508  66.448  1.00  0.00    -0.245 C  
HETATM   22  O   UNL     1      -6.823  17.230  66.601  1.00  0.00    -0.188 OA 
HETATM   23  H   UNL     1      -6.722  18.022  66.086  1.00  0.00     0.000 HD 
HETATM   24  O   UNL     1      -9.406  17.905  67.815  1.00  0.00    -0.256 OA 
HETATM   25  C   UNL     1     -10.505  16.829  65.941  1.00  0.00    -0.311 C  
HETATM   26  H   UNL     1     -10.145  18.490  67.938  1.00  0.00     0.000 HD 
ENDBRANCH  12  13
ENDBRANCH  11  12
ENDBRANCH   8  11
ENDBRANCH   7   8
ENDBRANCH   5   7
TORSDOF 5
ENDMDL
MODEL      262
REMARK 921   NORMALIZED FREE ENERGY PREDICTED BY IDOCK:   -3.49 KCAL/MOL
REMARK 922        TOTAL FREE ENERGY PREDICTED BY IDOCK:   -5.23 KCAL/MOL
REMARK 923 INTER-LIGAND FREE ENERGY PREDICTED BY IDOCK:   -4.85 KCAL/MOL
REMARK 924 INTRA-LIGAND FREE ENERGY PREDICTED BY IDOCK:   -0.38 KCAL/MOL
REMARK 927      BINDING AFFINITY PREDICTED BY RF-SCORE:    0.00 PKD
ROOT
HETATM    1  C   UNL     1      -7.791  18.517  66.484  1.00  0.00    -0.279 C  
HETATM    2  C   UNL     1      -8.375  18.650  67.902  1.00  0.00    -0.272 C  
HETATM    3  C   UNL     1      -9.870  19.000  67.778  1.00  0.00    -0.398 C  
HETATM    4  C   UNL     1      -7.672  19.792  68.657  1.00  0.00    -0.305 C  
HETATM    5  N   UNL     1      -8.291  17.388  68.662  1.00  0.00    -0.275 NA 
HETATM    6  H   UNL     1      -8.896  16.685  68.240  1.00  0.00     0.000 HD 
ENDROOT
BRANCH   5   7
HETATM    7  C   UNL     1      -6.936  16.851  68.833  1.00  0.00    -0.213 C  
BRANCH   7   8
HETATM    8  C   UNL     1      -6.697  15.627  67.929  1.00  0.00    -0.150 C  
HETATM    9  H   UNL     1      -5.353  15.057  66.605  1.00  0.00     0.000 HD 
HETATM   10  O   UNL     1      -5.500  15.812  67.162  1.00  0.00    -0.338 OA 
BRANCH   8  11
HETATM   11  C   UNL     1      -6.587  14.355  68.783  1.00  0.00    -0.090 C  
BRANCH  11  12
HETATM   12  O   UNL     1      -7.780  13.557  68.639  1.00  0.00    -0.128 OA 
BRANCH  12  13
HETATM   13  C   UNL     1      -7.555  12.290  68.152  1.00  0.00    -0.127 A  
HETATM   14  C   UNL     1      -6.299  11.677  68.220  1.00  0.00    -0.050 A  
HETATM   15  C   UNL     1      -6.120  10.376  67.763  1.00  0.00    -0.052 A  
HETATM   16  C   UNL     1      -7.196   9.676  67.229  1.00  0.00    -0.087 A  
HETATM   17  C   UNL     1      -8.454  10.282  67.116  1.00  0.00    -0.125 A  
HETATM   18  C   UNL     1      -8.630  11.622  67.535  1.00  0.00    -0.149 A  
HETATM   19  C   UNL     1      -9.969  12.309  67.367  1.00  0.00    -0.205 C  
HETATM   20  C   UNL     1     -10.926  11.565  66.428  1.00  0.00    -0.284 C  
HETATM   21  C   UNL     1     -10.959  10.062  66.748  1.00  0.00     0.053 C  
HETATM   22  O   UNL     1     -12.241  12.116  66.523  1.00  0.00    -0.584 OA 
HETATM   23  H   UNL     1     -12.834  11.654  65.941  1.00  0.00     0.000 HD 
HETATM   24  O   UNL     1     -11.383   9.791  68.092  1.00  0.00    -0.526 OA 
HETATM   25  C   UNL     1      -9.574   9.462  66.510  1.00  0.00    -0.267 C  
HETATM   26  H   UNL     1     -11.403   8.862  68.290  1.00  0.00     0.000 HD 
ENDBRANCH  12  13
ENDBRANCH  11  12
ENDBRANCH   8  11
ENDBRANCH   7   8
ENDBRANCH   5   7
TORSDOF 5
ENDMDL
MODEL      263
REMARK 921   NORMALIZED FREE ENERGY PREDICTED BY IDOCK:   -3.48 KCAL/MOL
REMARK 922        TOTAL FREE ENERGY PREDICTED BY IDOCK:   -5.22 KCAL/MOL
REMARK 923 INTER-LIGAND FREE ENERGY PREDICTED BY IDOCK:   -4.60 KCAL/MOL
REMARK 924 INTRA-LIGAND FREE ENERGY PREDICTED BY IDOCK:   -0.62 KCAL/MOL
REMARK 927      BINDING AFFINITY PREDICTED BY RF-SCORE:    0.00 PKD
ROOT
HETATM    1  C   UNL     1     -12.156   7.507  70.785  1.00  0.00    -0.190 C  
HETATM    2  C   UNL     1     -11.695   8.659  71.696  1.00  0.00    -0.313 C  
HETATM    3  C   UNL     1     -10.398   8.225  72.405  1.00  0.00    -0.402 C  
HETATM    4  C   UNL     1     -12.761   8.941  72.769  1.00  0.00    -0.138 C  
HETATM    5  N   UNL     1     -11.379   9.882  70.934  1.00  0.00    -0.344 NA 
HETATM    6  H   UNL     1     -10.561   9.727  70.346  1.00  0.00     0.000 HD 
ENDROOT
BRANCH   5   7
HETATM    7  C   UNL     1     -12.482  10.421  70.131  1.00  0.00    -0.176 C  
BRANCH   7   8
HETATM    8  C   UNL     1     -12.004  11.559  69.210  1.00  0.00    -0.330 C  
HETATM    9  H   UNL     1     -11.377  13.416  69.423  1.00  0.00     0.000 HD 
HETATM   10  O   UNL     1     -11.672  12.714  69.992  1.00  0.00    -0.293 OA 
BRANCH   8  11
HETATM   11  C   UNL     1     -10.784  11.102  68.398  1.00  0.00    -0.198 C  
BRANCH  11  12
HETATM   12  O   UNL     1     -11.183  10.129  67.409  1.00  0.00    -0.244 OA 
BRANCH  12  13
HETATM   13  C   UNL     1     -10.205   9.827  66.490  1.00  0.00    -0.219 A  
HETATM   14  C   UNL     1     -10.075  10.521  65.281  1.00  0.00    -0.369 A  
HETATM   15  C   UNL     1      -9.044  10.221  64.399  1.00  0.00    -0.275 A  
HETATM   16  C   UNL     1      -8.134   9.219  64.714  1.00  0.00    -0.133 A  
HETATM   17  C   UNL     1      -8.264   8.485  65.900  1.00  0.00    -0.125 A  
HETATM   18  C   UNL     1      -9.340   8.753  66.779  1.00  0.00    -0.229 A  
HETATM   19  C   UNL     1      -9.528   7.931  68.037  1.00  0.00    -0.159 C  
HETATM   20  C   UNL     1      -8.701   6.639  68.053  1.00  0.00    -0.117 C  
HETATM   21  C   UNL     1      -7.252   6.904  67.614  1.00  0.00    -0.091 C  
HETATM   22  O   UNL     1      -8.719   6.056  69.357  1.00  0.00    -0.120 OA 
HETATM   23  H   UNL     1      -8.207   5.256  69.367  1.00  0.00     0.000 HD 
HETATM   24  O   UNL     1      -6.581   7.851  68.457  1.00  0.00    -0.057 OA 
HETATM   25  C   UNL     1      -7.242   7.399  66.168  1.00  0.00    -0.077 C  
HETATM   26  H   UNL     1      -5.686   8.015  68.186  1.00  0.00     0.000 HD 
ENDBRANCH  12  13
ENDBRANCH  11  12
ENDBRANCH   8  11
ENDBRANCH   7   8
ENDBRANCH   5   7
TORSDOF 5
ENDMDL
MODEL      264
REMARK 921   NORMALIZED FREE ENERGY PREDICTED BY IDOCK:   -3.48 KCAL/MOL
REMARK 922        TOTAL FREE ENERGY PREDICTED BY IDOCK:   -5.22 KCAL/MOL
REMARK 923 INTER-LIGAND FREE ENERGY PREDICTED BY IDOCK:   -4.54 KCAL/MOL
REMARK 924 INTRA-LIGAND FREE ENERGY PREDICTED BY IDOCK:   -0.68 KCAL/MOL
REMARK 927      BINDING AFFINITY PREDICTED BY RF-SCORE:    0.00 PKD
ROOT
HETATM    1  C   UNL     1     -11.739  11.848  67.997  1.00  0.00    -0.382 C  
HETATM    2  C   UNL     1     -11.014  12.664  66.912  1.00  0.00    -0.262 C  
HETATM    3  C   UNL     1     -11.474  14.130  67.022  1.00  0.00    -0.370 C  
HETATM    4  C   UNL     1     -11.397  12.142  65.515  1.00  0.00    -0.393 C  
HETATM    5  N   UNL     1      -9.550  12.658  67.092  1.00  0.00    -0.202 NA 
HETATM    6  H   UNL     1      -9.301  13.157  67.946  1.00  0.00     0.000 HD 
ENDROOT
BRANCH   5   7
HETATM    7  C   UNL     1      -8.924  11.331  67.082  1.00  0.00    -0.155 C  
BRANCH   7   8
HETATM    8  C   UNL     1      -7.976  11.146  68.282  1.00  0.00    -0.127 C  
HETATM    9  H   UNL     1      -6.963  12.312  69.508  1.00  0.00     0.000 HD 
HETATM   10  O   UNL     1      -7.548  12.425  68.767  1.00  0.00    -0.106 OA 
BRANCH   8  11
HETATM   11  C   UNL     1      -8.687  10.368  69.400  1.00  0.00    -0.124 C  
BRANCH  11  12
HETATM   12  O   UNL     1      -8.161   9.026  69.479  1.00  0.00    -0.106 OA 
BRANCH  12  13
HETATM   13  C   UNL     1      -9.118   8.041  69.390  1.00  0.00    -0.148 A  
HETATM   14  C   UNL     1     -10.237   8.008  70.231  1.00  0.00    -0.200 A  
HETATM   15  C   UNL     1     -11.208   7.026  70.079  1.00  0.00    -0.310 A  
HETATM   16  C   UNL     1     -11.070   6.063  69.088  1.00  0.00    -0.405 A  
HETATM   17  C   UNL     1      -9.940   6.052  68.258  1.00  0.00    -0.173 A  
HETATM   18  C   UNL     1      -8.925   7.020  68.439  1.00  0.00    -0.122 A  
HETATM   19  C   UNL     1      -7.672   6.988  67.588  1.00  0.00    -0.112 C  
HETATM   20  C   UNL     1      -7.484   5.670  66.826  1.00  0.00    -0.087 C  
HETATM   21  C   UNL     1      -8.790   5.233  66.144  1.00  0.00    -0.135 C  
HETATM   22  O   UNL     1      -6.445   5.805  65.854  1.00  0.00    -0.038 OA 
HETATM   23  H   UNL     1      -6.329   4.989  65.382  1.00  0.00     0.000 HD 
HETATM   24  O   UNL     1      -9.278   6.203  65.207  1.00  0.00    -0.368 OA 
HETATM   25  C   UNL     1      -9.853   4.962  67.209  1.00  0.00    -0.214 C  
HETATM   26  H   UNL     1     -10.086   5.933  64.785  1.00  0.00     0.000 HD 
ENDBRANCH  12  13
ENDBRANCH  11  12
ENDBRANCH   8  11
ENDBRANCH   7   8
ENDBRANCH   5   7
TORSDOF 5
ENDMDL
MODEL      265
REMARK 921   NORMALIZED FREE ENERGY PREDICTED BY IDOCK:   -3.45 KCAL/MOL
REMARK 922        TOTAL FREE ENERGY PREDICTED BY IDOCK:   -5.18 KCAL/MOL
REMARK 923 INTER-LIGAND FREE ENERGY PREDICTED BY IDOCK:   -4.57 KCAL/MOL
REMARK 924 INTRA-LIGAND FREE ENERGY PREDICTED BY IDOCK:   -0.61 KCAL/MOL
REMARK 927      BINDING AFFINITY PREDICTED BY RF-SCORE:    0.00 PKD
ROOT
HETATM    1  C   UNL     1     -13.496   7.054  71.395  1.00  0.00    -0.323 C  
HETATM    2  C   UNL     1     -12.954   8.378  71.966  1.00  0.00    -0.358 C  
HETATM    3  C   UNL     1     -14.128   9.146  72.602  1.00  0.00    -0.303 C  
HETATM    4  C   UNL     1     -12.371   9.241  70.832  1.00  0.00    -0.229 C  
HETATM    5  N   UNL     1     -11.955   8.162  73.029  1.00  0.00    -0.596 NA 
HETATM    6  H   UNL     1     -12.397   7.737  73.843  1.00  0.00     0.000 HD 
ENDROOT
BRANCH   5   7
HETATM    7  C   UNL     1     -10.777   7.384  72.631  1.00  0.00    -0.288 C  
BRANCH   7   8
HETATM    8  C   UNL     1      -9.481   8.202  72.790  1.00  0.00    -0.279 C  
HETATM    9  H   UNL     1      -8.060   8.398  74.142  1.00  0.00     0.000 HD 
HETATM   10  O   UNL     1      -8.859   7.893  74.044  1.00  0.00    -0.265 OA 
BRANCH   8  11
HETATM   11  C   UNL     1      -8.519   7.897  71.632  1.00  0.00    -0.116 C  
BRANCH  11  12
HETATM   12  O   UNL     1      -8.988   8.525  70.421  1.00  0.00    -0.141 OA 
BRANCH  12  13
HETATM   13  C   UNL     1      -7.994   9.104  69.666  1.00  0.00    -0.103 A  
HETATM   14  C   UNL     1      -6.679   8.621  69.666  1.00  0.00    -0.039 A  
HETATM   15  C   UNL     1      -5.713   9.200  68.852  1.00  0.00    -0.040 A  
HETATM   16  C   UNL     1      -6.048  10.272  68.034  1.00  0.00    -0.051 A  
HETATM   17  C   UNL     1      -7.347  10.797  68.044  1.00  0.00    -0.088 A  
HETATM   18  C   UNL     1      -8.323  10.243  68.906  1.00  0.00    -0.136 A  
HETATM   19  C   UNL     1      -9.715  10.835  68.970  1.00  0.00    -0.201 C  
HETATM   20  C   UNL     1      -9.822  12.221  68.322  1.00  0.00    -0.217 C  
HETATM   21  C   UNL     1      -9.126  12.246  66.952  1.00  0.00    -0.208 C  
HETATM   22  O   UNL     1     -11.193  12.598  68.182  1.00  0.00    -0.236 OA 
HETATM   23  H   UNL     1     -11.259  13.456  67.781  1.00  0.00     0.000 HD 
HETATM   24  O   UNL     1      -9.683  11.299  66.029  1.00  0.00    -0.205 OA 
HETATM   25  C   UNL     1      -7.633  11.974  67.135  1.00  0.00    -0.146 C  
HETATM   26  H   UNL     1      -9.253  11.315  65.182  1.00  0.00     0.000 HD 
ENDBRANCH  12  13
ENDBRANCH  11  12
ENDBRANCH   8  11
ENDBRANCH   7   8
ENDBRANCH   5   7
TORSDOF 5
ENDMDL
MODEL      266
REMARK 921   NORMALIZED FREE ENERGY PREDICTED BY IDOCK:   -3.43 KCAL/MOL
REMARK 922        TOTAL FREE ENERGY PREDICTED BY IDOCK:   -5.16 KCAL/MOL
REMARK 923 INTER-LIGAND FREE ENERGY PREDICTED BY IDOCK:   -4.47 KCAL/MOL
REMARK 924 INTRA-LIGAND FREE ENERGY PREDICTED BY IDOCK:   -0.69 KCAL/MOL
REMARK 927      BINDING AFFINITY PREDICTED BY RF-SCORE:    0.00 PKD
ROOT
HETATM    1  C   UNL     1      -8.178   8.435  65.273  1.00  0.00    -0.151 C  
HETATM    2  C   UNL     1      -7.768   9.851  64.829  1.00  0.00    -0.138 C  
HETATM    3  C   UNL     1      -8.835  10.379  63.852  1.00  0.00    -0.222 C  
HETATM    4  C   UNL     1      -6.419   9.800  64.089  1.00  0.00    -0.119 C  
HETATM    5  N   UNL     1      -7.713  10.797  65.958  1.00  0.00    -0.188 NA 
HETATM    6  H   UNL     1      -8.649  10.948  66.334  1.00  0.00     0.000 HD 
ENDROOT
BRANCH   5   7
HETATM    7  C   UNL     1      -6.789  10.431  67.037  1.00  0.00    -0.085 C  
BRANCH   7   8
HETATM    8  C   UNL     1      -6.102  11.673  67.636  1.00  0.00    -0.068 C  
HETATM    9  H   UNL     1      -4.913  13.109  66.996  1.00  0.00     0.000 HD 
HETATM   10  O   UNL     1      -5.336  12.342  66.627  1.00  0.00    -0.308 OA 
BRANCH   8  11
HETATM   11  C   UNL     1      -7.156  12.626  68.221  1.00  0.00    -0.105 C  
BRANCH  11  12
HETATM   12  O   UNL     1      -7.283  13.794  67.384  1.00  0.00    -0.168 OA 
BRANCH  12  13
HETATM   13  C   UNL     1      -8.452  14.496  67.573  1.00  0.00    -0.190 A  
HETATM   14  C   UNL     1      -9.662  13.863  67.879  1.00  0.00    -0.231 A  
HETATM   15  C   UNL     1     -10.812  14.608  68.112  1.00  0.00    -0.256 A  
HETATM   16  C   UNL     1     -10.766  15.995  68.037  1.00  0.00    -0.309 A  
HETATM   17  C   UNL     1      -9.575  16.650  67.695  1.00  0.00    -0.239 A  
HETATM   18  C   UNL     1      -8.413  15.895  67.409  1.00  0.00    -0.194 A  
HETATM   19  C   UNL     1      -7.134  16.585  66.984  1.00  0.00    -0.247 C  
HETATM   20  C   UNL     1      -7.336  18.049  66.573  1.00  0.00    -0.238 C  
HETATM   21  C   UNL     1      -8.213  18.794  67.591  1.00  0.00    -0.263 C  
HETATM   22  O   UNL     1      -6.073  18.704  66.442  1.00  0.00    -0.153 OA 
HETATM   23  H   UNL     1      -6.198  19.611  66.187  1.00  0.00     0.000 HD 
HETATM   24  O   UNL     1      -7.653  18.794  68.911  1.00  0.00    -0.316 OA 
HETATM   25  C   UNL     1      -9.605  18.163  67.619  1.00  0.00    -0.278 C  
HETATM   26  H   UNL     1      -8.195  19.255  69.541  1.00  0.00     0.000 HD 
ENDBRANCH  12  13
ENDBRANCH  11  12
ENDBRANCH   8  11
ENDBRANCH   7   8
ENDBRANCH   5   7
TORSDOF 5
ENDMDL
MODEL      267
REMARK 921   NORMALIZED FREE ENERGY PREDICTED BY IDOCK:   -3.43 KCAL/MOL
REMARK 922        TOTAL FREE ENERGY PREDICTED BY IDOCK:   -5.16 KCAL/MOL
REMARK 923 INTER-LIGAND FREE ENERGY PREDICTED BY IDOCK:   -4.76 KCAL/MOL
REMARK 924 INTRA-LIGAND FREE ENERGY PREDICTED BY IDOCK:   -0.40 KCAL/MOL
REMARK 927      BINDING AFFINITY PREDICTED BY RF-SCORE:    0.00 PKD
ROOT
HETATM    1  C   UNL     1      -7.889  15.744  67.337  1.00  0.00    -0.203 C  
HETATM    2  C   UNL     1      -9.413  15.650  67.134  1.00  0.00    -0.217 C  
HETATM    3  C   UNL     1      -9.779  16.430  65.857  1.00  0.00    -0.327 C  
HETATM    4  C   UNL     1     -10.144  16.299  68.323  1.00  0.00    -0.243 C  
HETATM    5  N   UNL     1      -9.865  14.261  66.934  1.00  0.00    -0.256 NA 
HETATM    6  H   UNL     1      -9.504  13.898  66.052  1.00  0.00     0.000 HD 
ENDROOT
BRANCH   5   7
HETATM    7  C   UNL     1      -9.548  13.335  68.027  1.00  0.00    -0.220 C  
BRANCH   7   8
HETATM    8  C   UNL     1      -9.967  11.893  67.685  1.00  0.00    -0.189 C  
HETATM    9  H   UNL     1      -9.065  10.210  67.195  1.00  0.00     0.000 HD 
HETATM   10  O   UNL     1      -8.806  11.100  67.406  1.00  0.00    -0.138 OA 
BRANCH   8  11
HETATM   11  C   UNL     1     -10.757  11.283  68.852  1.00  0.00    -0.207 C  
BRANCH  11  12
HETATM   12  O   UNL     1     -10.722   9.843  68.774  1.00  0.00    -0.210 OA 
BRANCH  12  13
HETATM   13  C   UNL     1     -10.811   9.211  69.993  1.00  0.00    -0.234 A  
HETATM   14  C   UNL     1     -11.724   9.609  70.976  1.00  0.00    -0.433 A  
HETATM   15  C   UNL     1     -11.820   8.915  72.177  1.00  0.00    -0.417 A  
HETATM   16  C   UNL     1     -11.000   7.819  72.410  1.00  0.00    -0.368 A  
HETATM   17  C   UNL     1     -10.051   7.424  71.457  1.00  0.00    -0.197 A  
HETATM   18  C   UNL     1      -9.916   8.155  70.254  1.00  0.00    -0.189 A  
HETATM   19  C   UNL     1      -8.857   7.775  69.239  1.00  0.00    -0.139 C  
HETATM   20  C   UNL     1      -7.795   6.817  69.792  1.00  0.00    -0.115 C  
HETATM   21  C   UNL     1      -8.443   5.664  70.575  1.00  0.00    -0.121 C  
HETATM   22  O   UNL     1      -6.995   6.299  68.728  1.00  0.00    -0.070 OA 
HETATM   23  H   UNL     1      -6.337   5.705  69.071  1.00  0.00     0.000 HD 
HETATM   24  O   UNL     1      -9.343   4.887  69.774  1.00  0.00    -0.118 OA 
HETATM   25  C   UNL     1      -9.183   6.227  71.788  1.00  0.00    -0.145 C  
HETATM   26  H   UNL     1      -9.744   4.174  70.258  1.00  0.00     0.000 HD 
ENDBRANCH  12  13
ENDBRANCH  11  12
ENDBRANCH   8  11
ENDBRANCH   7   8
ENDBRANCH   5   7
TORSDOF 5
ENDMDL
MODEL      268
REMARK 921   NORMALIZED FREE ENERGY PREDICTED BY IDOCK:   -3.42 KCAL/MOL
REMARK 922        TOTAL FREE ENERGY PREDICTED BY IDOCK:   -5.15 KCAL/MOL
REMARK 923 INTER-LIGAND FREE ENERGY PREDICTED BY IDOCK:   -4.78 KCAL/MOL
REMARK 924 INTRA-LIGAND FREE ENERGY PREDICTED BY IDOCK:   -0.37 KCAL/MOL
REMARK 927      BINDING AFFINITY PREDICTED BY RF-SCORE:    0.00 PKD
ROOT
HETATM    1  C   UNL     1     -10.684  16.130  67.438  1.00  0.00    -0.291 C  
HETATM    2  C   UNL     1     -10.086  15.916  66.035  1.00  0.00    -0.337 C  
HETATM    3  C   UNL     1      -8.699  16.585  65.995  1.00  0.00    -0.255 C  
HETATM    4  C   UNL     1     -10.977  16.587  64.975  1.00  0.00    -0.222 C  
HETATM    5  N   UNL     1      -9.883  14.489  65.725  1.00  0.00    -0.400 NA 
HETATM    6  H   UNL     1      -9.164  14.097  66.332  1.00  0.00     0.000 HD 
ENDROOT
BRANCH   5   7
HETATM    7  C   UNL     1     -11.093  13.660  65.777  1.00  0.00    -0.287 C  
BRANCH   7   8
HETATM    8  C   UNL     1     -10.810  12.290  66.421  1.00  0.00    -0.264 C  
HETATM    9  H   UNL     1     -11.789  10.996  67.541  1.00  0.00     0.000 HD 
HETATM   10  O   UNL     1     -11.964  11.842  67.144  1.00  0.00    -0.617 OA 
BRANCH   8  11
HETATM   11  C   UNL     1     -10.433  11.267  65.339  1.00  0.00    -0.268 C  
BRANCH  11  12
HETATM   12  O   UNL     1     -10.316   9.952  65.921  1.00  0.00    -0.223 OA 
BRANCH  12  13
HETATM   13  C   UNL     1      -9.041   9.627  66.324  1.00  0.00    -0.160 A  
HETATM   14  C   UNL     1      -7.925  10.389  65.959  1.00  0.00    -0.144 A  
HETATM   15  C   UNL     1      -6.658  10.059  66.427  1.00  0.00    -0.080 A  
HETATM   16  C   UNL     1      -6.493   8.960  67.260  1.00  0.00    -0.061 A  
HETATM   17  C   UNL     1      -7.589   8.159  67.609  1.00  0.00    -0.098 A  
HETATM   18  C   UNL     1      -8.872   8.462  67.097  1.00  0.00    -0.139 A  
HETATM   19  C   UNL     1     -10.056   7.574  67.419  1.00  0.00    -0.282 C  
HETATM   20  C   UNL     1      -9.660   6.215  68.009  1.00  0.00    -0.115 C  
HETATM   21  C   UNL     1      -8.602   6.377  69.112  1.00  0.00    -0.125 C  
HETATM   22  O   UNL     1     -10.811   5.546  68.529  1.00  0.00    -0.166 OA 
HETATM   23  H   UNL     1     -10.565   4.704  68.894  1.00  0.00     0.000 HD 
HETATM   24  O   UNL     1      -9.054   7.198  70.197  1.00  0.00    -0.151 OA 
HETATM   25  C   UNL     1      -7.328   6.969  68.510  1.00  0.00    -0.100 C  
HETATM   26  H   UNL     1      -8.400   7.299  70.880  1.00  0.00     0.000 HD 
ENDBRANCH  12  13
ENDBRANCH  11  12
ENDBRANCH   8  11
ENDBRANCH   7   8
ENDBRANCH   5   7
TORSDOF 5
ENDMDL
MODEL      269
REMARK 921   NORMALIZED FREE ENERGY PREDICTED BY IDOCK:   -3.41 KCAL/MOL
REMARK 922        TOTAL FREE ENERGY PREDICTED BY IDOCK:   -5.13 KCAL/MOL
REMARK 923 INTER-LIGAND FREE ENERGY PREDICTED BY IDOCK:   -4.75 KCAL/MOL
REMARK 924 INTRA-LIGAND FREE ENERGY PREDICTED BY IDOCK:   -0.38 KCAL/MOL
REMARK 927      BINDING AFFINITY PREDICTED BY RF-SCORE:    0.00 PKD
ROOT
HETATM    1  C   UNL     1      -7.967  10.396  65.651  1.00  0.00    -0.153 C  
HETATM    2  C   UNL     1      -9.448  10.271  65.249  1.00  0.00    -0.240 C  
HETATM    3  C   UNL     1      -9.580  10.661  63.765  1.00  0.00    -0.354 C  
HETATM    4  C   UNL     1     -10.303  11.242  66.082  1.00  0.00    -0.300 C  
HETATM    5  N   UNL     1      -9.946   8.889  65.376  1.00  0.00    -0.248 NA 
HETATM    6  H   UNL     1      -9.483   8.286  64.697  1.00  0.00     0.000 HD 
ENDROOT
BRANCH   5   7
HETATM    7  C   UNL     1      -9.844   8.308  66.719  1.00  0.00    -0.263 C  
BRANCH   7   8
HETATM    8  C   UNL     1     -10.340   6.849  66.741  1.00  0.00    -0.217 C  
HETATM    9  H   UNL     1      -9.552   5.058  66.501  1.00  0.00     0.000 HD 
HETATM   10  O   UNL     1      -9.246   5.958  66.487  1.00  0.00    -0.137 OA 
BRANCH   8  11
HETATM   11  C   UNL     1     -10.978   6.530  68.101  1.00  0.00    -0.281 C  
BRANCH  11  12
HETATM   12  O   UNL     1      -9.953   6.218  69.068  1.00  0.00    -0.138 OA 
BRANCH  12  13
HETATM   13  C   UNL     1     -10.434   5.920  70.322  1.00  0.00    -0.261 A  
HETATM   14  C   UNL     1     -11.406   6.704  70.955  1.00  0.00    -0.377 A  
HETATM   15  C   UNL     1     -11.905   6.344  72.201  1.00  0.00    -0.361 A  
HETATM   16  C   UNL     1     -11.433   5.199  72.831  1.00  0.00    -0.329 A  
HETATM   17  C   UNL     1     -10.433   4.419  72.235  1.00  0.00    -0.192 A  
HETATM   18  C   UNL     1      -9.887   4.807  70.989  1.00  0.00    -0.267 A  
HETATM   19  C   UNL     1      -8.767   4.006  70.359  1.00  0.00    -0.124 C  
HETATM   20  C   UNL     1      -8.097   3.023  71.327  1.00  0.00    -0.062 C  
HETATM   21  C   UNL     1      -9.144   2.231  72.124  1.00  0.00    -0.080 C  
HETATM   22  O   UNL     1      -7.244   2.127  70.612  1.00  0.00    -0.033 OA 
HETATM   23  H   UNL     1      -6.829   1.519  71.212  1.00  0.00     0.000 HD 
HETATM   24  O   UNL     1     -10.022   1.470  71.283  1.00  0.00    -0.133 OA 
HETATM   25  C   UNL     1      -9.959   3.193  72.988  1.00  0.00    -0.204 C  
HETATM   26  H   UNL     1     -10.670   0.979  71.776  1.00  0.00     0.000 HD 
ENDBRANCH  12  13
ENDBRANCH  11  12
ENDBRANCH   8  11
ENDBRANCH   7   8
ENDBRANCH   5   7
TORSDOF 5
ENDMDL
MODEL      270
REMARK 921   NORMALIZED FREE ENERGY PREDICTED BY IDOCK:   -3.38 KCAL/MOL
REMARK 922        TOTAL FREE ENERGY PREDICTED BY IDOCK:   -5.09 KCAL/MOL
REMARK 923 INTER-LIGAND FREE ENERGY PREDICTED BY IDOCK:   -4.49 KCAL/MOL
REMARK 924 INTRA-LIGAND FREE ENERGY PREDICTED BY IDOCK:   -0.61 KCAL/MOL
REMARK 927      BINDING AFFINITY PREDICTED BY RF-SCORE:    0.00 PKD
ROOT
HETATM    1  C   UNL     1      -9.222  15.646  69.429  1.00  0.00    -0.279 C  
HETATM    2  C   UNL     1     -10.027  15.503  68.124  1.00  0.00    -0.217 C  
HETATM    3  C   UNL     1      -9.117  15.907  66.948  1.00  0.00    -0.255 C  
HETATM    4  C   UNL     1     -11.238  16.453  68.146  1.00  0.00    -0.273 C  
HETATM    5  N   UNL     1     -10.453  14.113  67.880  1.00  0.00    -0.235 NA 
HETATM    6  H   UNL     1      -9.640  13.524  67.701  1.00  0.00     0.000 HD 
ENDROOT
BRANCH   5   7
HETATM    7  C   UNL     1     -11.285  13.520  68.933  1.00  0.00    -0.275 C  
BRANCH   7   8
HETATM    8  C   UNL     1     -11.047  12.002  69.051  1.00  0.00    -0.239 C  
HETATM    9  H   UNL     1     -11.872  10.486  70.002  1.00  0.00     0.000 HD 
HETATM   10  O   UNL     1     -12.019  11.422  69.930  1.00  0.00    -0.307 OA 
BRANCH   8  11
HETATM   11  C   UNL     1     -11.130  11.347  67.664  1.00  0.00    -0.268 C  
BRANCH  11  12
HETATM   12  O   UNL     1      -9.849  10.793  67.301  1.00  0.00    -0.173 OA 
BRANCH  12  13
HETATM   13  C   UNL     1      -9.750   9.433  67.490  1.00  0.00    -0.157 A  
HETATM   14  C   UNL     1     -10.514   8.519  66.754  1.00  0.00    -0.308 A  
HETATM   15  C   UNL     1     -10.351   7.151  66.936  1.00  0.00    -0.349 A  
HETATM   16  C   UNL     1      -9.425   6.682  67.861  1.00  0.00    -0.117 A  
HETATM   17  C   UNL     1      -8.676   7.577  68.636  1.00  0.00    -0.128 A  
HETATM   18  C   UNL     1      -8.872   8.970  68.489  1.00  0.00    -0.134 A  
HETATM   19  C   UNL     1      -8.111   9.949  69.359  1.00  0.00    -0.139 C  
HETATM   20  C   UNL     1      -7.437   9.294  70.571  1.00  0.00    -0.130 C  
HETATM   21  C   UNL     1      -6.693   8.012  70.166  1.00  0.00    -0.037 C  
HETATM   22  O   UNL     1      -6.531  10.211  71.189  1.00  0.00    -0.324 OA 
HETATM   23  H   UNL     1      -6.114   9.805  71.939  1.00  0.00     0.000 HD 
HETATM   24  O   UNL     1      -5.673   8.248  69.185  1.00  0.00    -0.033 OA 
HETATM   25  C   UNL     1      -7.697   6.990  69.632  1.00  0.00    -0.110 C  
HETATM   26  H   UNL     1      -5.213   7.455  68.935  1.00  0.00     0.000 HD 
ENDBRANCH  12  13
ENDBRANCH  11  12
ENDBRANCH   8  11
ENDBRANCH   7   8
ENDBRANCH   5   7
TORSDOF 5
ENDMDL
MODEL      271
REMARK 921   NORMALIZED FREE ENERGY PREDICTED BY IDOCK:   -3.38 KCAL/MOL
REMARK 922        TOTAL FREE ENERGY PREDICTED BY IDOCK:   -5.09 KCAL/MOL
REMARK 923 INTER-LIGAND FREE ENERGY PREDICTED BY IDOCK:   -4.55 KCAL/MOL
REMARK 924 INTRA-LIGAND FREE ENERGY PREDICTED BY IDOCK:   -0.54 KCAL/MOL
REMARK 927      BINDING AFFINITY PREDICTED BY RF-SCORE:    0.00 PKD
ROOT
HETATM    1  C   UNL     1     -11.164   6.585  69.394  1.00  0.00    -0.418 C  
HETATM    2  C   UNL     1      -9.929   6.045  70.138  1.00  0.00    -0.178 C  
HETATM    3  C   UNL     1     -10.018   4.508  70.170  1.00  0.00    -0.278 C  
HETATM    4  C   UNL     1      -9.922   6.559  71.589  1.00  0.00    -0.194 C  
HETATM    5  N   UNL     1      -8.669   6.388  69.453  1.00  0.00    -0.129 NA 
HETATM    6  H   UNL     1      -8.614   5.904  68.557  1.00  0.00     0.000 HD 
ENDROOT
BRANCH   5   7
HETATM    7  C   UNL     1      -8.430   7.824  69.266  1.00  0.00    -0.138 C  
BRANCH   7   8
HETATM    8  C   UNL     1      -8.019   8.142  67.816  1.00  0.00    -0.127 C  
HETATM    9  H   UNL     1      -8.747   7.826  66.011  1.00  0.00     0.000 HD 
HETATM   10  O   UNL     1      -9.001   7.629  66.906  1.00  0.00    -0.128 OA 
BRANCH   8  11
HETATM   11  C   UNL     1      -7.868   9.659  67.631  1.00  0.00    -0.095 C  
BRANCH  11  12
HETATM   12  O   UNL     1      -8.422  10.353  68.768  1.00  0.00    -0.116 OA 
BRANCH  12  13
HETATM   13  C   UNL     1      -9.519  11.129  68.474  1.00  0.00    -0.193 A  
HETATM   14  C   UNL     1     -10.805  10.589  68.354  1.00  0.00    -0.284 A  
HETATM   15  C   UNL     1     -11.898  11.410  68.106  1.00  0.00    -0.288 A  
HETATM   16  C   UNL     1     -11.717  12.781  67.969  1.00  0.00    -0.405 A  
HETATM   17  C   UNL     1     -10.435  13.341  68.047  1.00  0.00    -0.248 A  
HETATM   18  C   UNL     1      -9.313  12.504  68.252  1.00  0.00    -0.193 A  
HETATM   19  C   UNL     1      -7.915  13.087  68.282  1.00  0.00    -0.151 C  
HETATM   20  C   UNL     1      -7.838  14.519  67.738  1.00  0.00    -0.161 C  
HETATM   21  C   UNL     1      -8.961  15.394  68.318  1.00  0.00    -0.185 C  
HETATM   22  O   UNL     1      -6.564  15.094  68.038  1.00  0.00    -0.117 OA 
HETATM   23  H   UNL     1      -6.516  15.981  67.701  1.00  0.00     0.000 HD 
HETATM   24  O   UNL     1      -8.916  15.477  69.749  1.00  0.00    -0.287 OA 
HETATM   25  C   UNL     1     -10.315  14.841  67.874  1.00  0.00    -0.240 C  
HETATM   26  H   UNL     1      -9.610  16.018  70.108  1.00  0.00     0.000 HD 
ENDBRANCH  12  13
ENDBRANCH  11  12
ENDBRANCH   8  11
ENDBRANCH   7   8
ENDBRANCH   5   7
TORSDOF 5
ENDMDL
MODEL      272
REMARK 921   NORMALIZED FREE ENERGY PREDICTED BY IDOCK:   -3.38 KCAL/MOL
REMARK 922        TOTAL FREE ENERGY PREDICTED BY IDOCK:   -5.09 KCAL/MOL
REMARK 923 INTER-LIGAND FREE ENERGY PREDICTED BY IDOCK:   -5.96 KCAL/MOL
REMARK 924 INTRA-LIGAND FREE ENERGY PREDICTED BY IDOCK:    0.87 KCAL/MOL
REMARK 927      BINDING AFFINITY PREDICTED BY RF-SCORE:    0.00 PKD
ROOT
HETATM    1  C   UNL     1     -13.384  13.111  72.310  1.00  0.00    -0.621 C  
HETATM    2  C   UNL     1     -13.049  14.606  72.150  1.00  0.00    -0.347 C  
HETATM    3  C   UNL     1     -12.802  15.199  73.550  1.00  0.00    -0.657 C  
HETATM    4  C   UNL     1     -14.239  15.346  71.514  1.00  0.00    -0.584 C  
HETATM    5  N   UNL     1     -11.818  14.822  71.368  1.00  0.00    -0.363 NA 
HETATM    6  H   UNL     1     -11.010  14.471  71.882  1.00  0.00     0.000 HD 
ENDROOT
BRANCH   5   7
HETATM    7  C   UNL     1     -11.832  14.265  70.010  1.00  0.00    -0.314 C  
BRANCH   7   8
HETATM    8  C   UNL     1     -11.800  15.377  68.945  1.00  0.00    -0.329 C  
HETATM    9  H   UNL     1     -11.263  17.272  68.859  1.00  0.00     0.000 HD 
HETATM   10  O   UNL     1     -11.283  16.586  69.517  1.00  0.00    -0.283 OA 
BRANCH   8  11
HETATM   11  C   UNL     1     -10.932  14.942  67.755  1.00  0.00    -0.293 C  
BRANCH  11  12
HETATM   12  O   UNL     1     -10.446  16.101  67.047  1.00  0.00    -0.302 OA 
BRANCH  12  13
HETATM   13  C   UNL     1      -9.114  16.374  67.262  1.00  0.00    -0.200 A  
HETATM   14  C   UNL     1      -8.632  17.682  67.396  1.00  0.00    -0.229 A  
HETATM   15  C   UNL     1      -7.289  17.917  67.663  1.00  0.00    -0.211 A  
HETATM   16  C   UNL     1      -6.411  16.848  67.793  1.00  0.00    -0.160 A  
HETATM   17  C   UNL     1      -6.862  15.532  67.626  1.00  0.00    -0.207 A  
HETATM   18  C   UNL     1      -8.218  15.288  67.307  1.00  0.00    -0.230 A  
HETATM   19  C   UNL     1      -8.709  13.875  67.067  1.00  0.00    -0.215 C  
HETATM   20  C   UNL     1      -7.578  12.861  66.862  1.00  0.00     0.214 C  
HETATM   21  C   UNL     1      -6.478  13.037  67.920  1.00  0.00    -0.130 C  
HETATM   22  O   UNL     1      -8.093  11.529  66.907  1.00  0.00    -0.154 OA 
HETATM   23  H   UNL     1      -7.392  10.901  66.780  1.00  0.00     0.000 HD 
HETATM   24  O   UNL     1      -6.964  12.869  69.259  1.00  0.00    -0.253 OA 
HETATM   25  C   UNL     1      -5.844  14.419  67.769  1.00  0.00    -0.093 C  
HETATM   26  H   UNL     1      -6.284  12.978  69.914  1.00  0.00     0.000 HD 
ENDBRANCH  12  13
ENDBRANCH  11  12
ENDBRANCH   8  11
ENDBRANCH   7   8
ENDBRANCH   5   7
TORSDOF 5
ENDMDL
MODEL      273
REMARK 921   NORMALIZED FREE ENERGY PREDICTED BY IDOCK:   -3.37 KCAL/MOL
REMARK 922        TOTAL FREE ENERGY PREDICTED BY IDOCK:   -5.08 KCAL/MOL
REMARK 923 INTER-LIGAND FREE ENERGY PREDICTED BY IDOCK:   -4.58 KCAL/MOL
REMARK 924 INTRA-LIGAND FREE ENERGY PREDICTED BY IDOCK:   -0.50 KCAL/MOL
REMARK 927      BINDING AFFINITY PREDICTED BY RF-SCORE:    0.00 PKD
ROOT
HETATM    1  C   UNL     1     -12.303  16.189  71.797  1.00  0.00    -0.398 C  
HETATM    2  C   UNL     1     -12.884  14.801  71.470  1.00  0.00    -0.331 C  
HETATM    3  C   UNL     1     -14.411  14.859  71.664  1.00  0.00    -0.660 C  
HETATM    4  C   UNL     1     -12.313  13.749  72.437  1.00  0.00     0.141 C  
HETATM    5  N   UNL     1     -12.643  14.412  70.068  1.00  0.00    -0.494 NA 
HETATM    6  H   UNL     1     -13.166  15.022  69.440  1.00  0.00     0.000 HD 
ENDROOT
BRANCH   5   7
HETATM    7  C   UNL     1     -11.233  14.362  69.665  1.00  0.00    -0.232 C  
BRANCH   7   8
HETATM    8  C   UNL     1     -10.792  12.924  69.334  1.00  0.00     0.105 C  
HETATM    9  H   UNL     1     -11.658  11.253  68.746  1.00  0.00     0.000 HD 
HETATM   10  O   UNL     1     -11.930  12.141  68.950  1.00  0.00    -0.299 OA 
BRANCH   8  11
HETATM   11  C   UNL     1      -9.754  12.939  68.202  1.00  0.00    -0.227 C  
BRANCH  11  12
HETATM   12  O   UNL     1      -8.718  11.971  68.469  1.00  0.00    -0.163 OA 
BRANCH  12  13
HETATM   13  C   UNL     1      -9.024  10.693  68.063  1.00  0.00    -0.140 A  
HETATM   14  C   UNL     1      -9.672  10.429  66.851  1.00  0.00    -0.223 A  
HETATM   15  C   UNL     1      -9.920   9.121  66.450  1.00  0.00    -0.358 A  
HETATM   16  C   UNL     1      -9.528   8.063  67.260  1.00  0.00    -0.196 A  
HETATM   17  C   UNL     1      -8.911   8.302  68.496  1.00  0.00    -0.137 A  
HETATM   18  C   UNL     1      -8.699   9.631  68.931  1.00  0.00    -0.132 A  
HETATM   19  C   UNL     1      -8.086   9.907  70.288  1.00  0.00    -0.115 C  
HETATM   20  C   UNL     1      -8.067   8.682  71.211  1.00  0.00    -0.147 C  
HETATM   21  C   UNL     1      -7.561   7.436  70.468  1.00  0.00    -0.087 C  
HETATM   22  O   UNL     1      -7.248   8.937  72.354  1.00  0.00    -0.329 OA 
HETATM   23  H   UNL     1      -7.237   8.179  72.926  1.00  0.00     0.000 HD 
HETATM   24  O   UNL     1      -6.234   7.600  69.948  1.00  0.00    -0.027 OA 
HETATM   25  C   UNL     1      -8.524   7.098  69.330  1.00  0.00    -0.133 C  
HETATM   26  H   UNL     1      -5.921   6.830  69.489  1.00  0.00     0.000 HD 
ENDBRANCH  12  13
ENDBRANCH  11  12
ENDBRANCH   8  11
ENDBRANCH   7   8
ENDBRANCH   5   7
TORSDOF 5
ENDMDL
MODEL      274
REMARK 921   NORMALIZED FREE ENERGY PREDICTED BY IDOCK:   -3.37 KCAL/MOL
REMARK 922        TOTAL FREE ENERGY PREDICTED BY IDOCK:   -5.08 KCAL/MOL
REMARK 923 INTER-LIGAND FREE ENERGY PREDICTED BY IDOCK:   -4.74 KCAL/MOL
REMARK 924 INTRA-LIGAND FREE ENERGY PREDICTED BY IDOCK:   -0.34 KCAL/MOL
REMARK 927      BINDING AFFINITY PREDICTED BY RF-SCORE:    0.00 PKD
ROOT
HETATM    1  C   UNL     1     -12.209  12.056  65.466  1.00  0.00     0.082 C  
HETATM    2  C   UNL     1     -11.274  12.690  64.421  1.00  0.00    -0.346 C  
HETATM    3  C   UNL     1     -12.018  13.863  63.756  1.00  0.00    -0.305 C  
HETATM    4  C   UNL     1     -10.925  11.660  63.332  1.00  0.00    -0.442 C  
HETATM    5  N   UNL     1     -10.051  13.247  65.029  1.00  0.00    -0.511 NA 
HETATM    6  H   UNL     1     -10.286  14.041  65.624  1.00  0.00     0.000 HD 
ENDROOT
BRANCH   5   7
HETATM    7  C   UNL     1      -9.229  12.285  65.773  1.00  0.00     0.032 C  
BRANCH   7   8
HETATM    8  C   UNL     1      -9.159  12.644  67.269  1.00  0.00    -0.191 C  
HETATM    9  H   UNL     1      -8.454  11.819  68.915  1.00  0.00     0.000 HD 
HETATM   10  O   UNL     1      -8.498  11.597  67.992  1.00  0.00    -0.137 OA 
BRANCH   8  11
HETATM   11  C   UNL     1      -8.410  13.972  67.458  1.00  0.00    -0.192 C  
BRANCH  11  12
HETATM   12  O   UNL     1      -9.243  14.914  68.165  1.00  0.00    -0.178 OA 
BRANCH  12  13
HETATM   13  C   UNL     1      -9.639  15.993  67.409  1.00  0.00    -0.225 A  
HETATM   14  C   UNL     1     -10.600  15.885  66.398  1.00  0.00    -0.298 A  
HETATM   15  C   UNL     1     -11.012  17.007  65.688  1.00  0.00     0.051 A  
HETATM   16  C   UNL     1     -10.462  18.250  65.979  1.00  0.00    -0.380 A  
HETATM   17  C   UNL     1      -9.470  18.378  66.961  1.00  0.00    -0.281 A  
HETATM   18  C   UNL     1      -9.013  17.232  67.653  1.00  0.00    -0.224 A  
HETATM   19  C   UNL     1      -7.903  17.345  68.677  1.00  0.00    -0.274 C  
HETATM   20  C   UNL     1      -7.142  18.675  68.610  1.00  0.00    -0.288 C  
HETATM   21  C   UNL     1      -8.111  19.863  68.512  1.00  0.00    -0.168 C  
HETATM   22  O   UNL     1      -6.300  18.821  69.756  1.00  0.00    -0.251 OA 
HETATM   23  H   UNL     1      -5.829  19.645  69.714  1.00  0.00     0.000 HD 
HETATM   24  O   UNL     1      -9.009  19.940  69.628  1.00  0.00     0.179 OA 
HETATM   25  C   UNL     1      -8.909  19.762  67.212  1.00  0.00    -0.394 C  
HETATM   26  H   UNL     1      -9.608  20.675  69.568  1.00  0.00     0.000 HD 
ENDBRANCH  12  13
ENDBRANCH  11  12
ENDBRANCH   8  11
ENDBRANCH   7   8
ENDBRANCH   5   7
TORSDOF 5
ENDMDL
MODEL      275
REMARK 921   NORMALIZED FREE ENERGY PREDICTED BY IDOCK:   -3.35 KCAL/MOL
REMARK 922        TOTAL FREE ENERGY PREDICTED BY IDOCK:   -5.05 KCAL/MOL
REMARK 923 INTER-LIGAND FREE ENERGY PREDICTED BY IDOCK:   -4.37 KCAL/MOL
REMARK 924 INTRA-LIGAND FREE ENERGY PREDICTED BY IDOCK:   -0.68 KCAL/MOL
REMARK 927      BINDING AFFINITY PREDICTED BY RF-SCORE:    0.00 PKD
ROOT
HETATM    1  C   UNL     1     -11.812   7.215  70.699  1.00  0.00    -0.334 C  
HETATM    2  C   UNL     1     -11.824   8.328  71.763  1.00  0.00    -0.306 C  
HETATM    3  C   UNL     1     -10.797   7.965  72.853  1.00  0.00    -0.451 C  
HETATM    4  C   UNL     1     -13.214   8.414  72.419  1.00  0.00    -0.251 C  
HETATM    5  N   UNL     1     -11.421   9.634  71.210  1.00  0.00    -0.369 NA 
HETATM    6  H   UNL     1     -10.441   9.609  70.931  1.00  0.00     0.000 HD 
ENDROOT
BRANCH   5   7
HETATM    7  C   UNL     1     -12.249  10.127  70.104  1.00  0.00    -0.116 C  
BRANCH   7   8
HETATM    8  C   UNL     1     -12.869  11.498  70.432  1.00  0.00     0.056 C  
HETATM    9  H   UNL     1     -13.262  12.549  72.053  1.00  0.00     0.000 HD 
HETATM   10  O   UNL     1     -12.880  11.703  71.851  1.00  0.00    -0.364 OA 
BRANCH   8  11
HETATM   11  C   UNL     1     -12.070  12.616  69.743  1.00  0.00    -0.233 C  
BRANCH  11  12
HETATM   12  O   UNL     1     -11.226  12.058  68.714  1.00  0.00    -0.225 OA 
BRANCH  12  13
HETATM   13  C   UNL     1     -10.090  12.792  68.459  1.00  0.00    -0.185 A  
HETATM   14  C   UNL     1     -10.142  14.112  67.995  1.00  0.00    -0.233 A  
HETATM   15  C   UNL     1      -8.974  14.839  67.797  1.00  0.00    -0.182 A  
HETATM   16  C   UNL     1      -7.741  14.253  68.055  1.00  0.00    -0.141 A  
HETATM   17  C   UNL     1      -7.662  12.921  68.484  1.00  0.00    -0.109 A  
HETATM   18  C   UNL     1      -8.845  12.161  68.642  1.00  0.00    -0.004 A  
HETATM   19  C   UNL     1      -8.773  10.704  69.051  1.00  0.00    -0.152 C  
HETATM   20  C   UNL     1      -7.369  10.101  68.921  1.00  0.00    -0.083 C  
HETATM   21  C   UNL     1      -6.307  11.036  69.520  1.00  0.00    -0.095 C  
HETATM   22  O   UNL     1      -7.317   8.825  69.564  1.00  0.00    -0.064 OA 
HETATM   23  H   UNL     1      -6.447   8.452  69.484  1.00  0.00     0.000 HD 
HETATM   24  O   UNL     1      -6.528  11.309  70.910  1.00  0.00    -0.457 OA 
HETATM   25  C   UNL     1      -6.283  12.346  68.733  1.00  0.00    -0.073 C  
HETATM   26  H   UNL     1      -5.871  11.887  71.281  1.00  0.00     0.000 HD 
ENDBRANCH  12  13
ENDBRANCH  11  12
ENDBRANCH   8  11
ENDBRANCH   7   8
ENDBRANCH   5   7
TORSDOF 5
ENDMDL
MODEL      276
REMARK 921   NORMALIZED FREE ENERGY PREDICTED BY IDOCK:   -3.34 KCAL/MOL
REMARK 922        TOTAL FREE ENERGY PREDICTED BY IDOCK:   -5.05 KCAL/MOL
REMARK 923 INTER-LIGAND FREE ENERGY PREDICTED BY IDOCK:   -4.37 KCAL/MOL
REMARK 924 INTRA-LIGAND FREE ENERGY PREDICTED BY IDOCK:   -0.68 KCAL/MOL
REMARK 927      BINDING AFFINITY PREDICTED BY RF-SCORE:    0.00 PKD
ROOT
HETATM    1  C   UNL     1     -12.494  13.276  66.200  1.00  0.00    -0.335 C  
HETATM    2  C   UNL     1     -11.480  14.298  65.654  1.00  0.00    -0.329 C  
HETATM    3  C   UNL     1     -12.071  14.932  64.381  1.00  0.00    -0.417 C  
HETATM    4  C   UNL     1     -10.168  13.588  65.277  1.00  0.00    -0.323 C  
HETATM    5  N   UNL     1     -11.228  15.398  66.604  1.00  0.00    -0.238 NA 
HETATM    6  H   UNL     1     -12.069  15.962  66.718  1.00  0.00     0.000 HD 
ENDROOT
BRANCH   5   7
HETATM    7  C   UNL     1     -10.717  14.985  67.917  1.00  0.00    -0.268 C  
BRANCH   7   8
HETATM    8  C   UNL     1     -10.326  16.202  68.776  1.00  0.00    -0.248 C  
HETATM    9  H   UNL     1     -10.668  16.837  70.611  1.00  0.00     0.000 HD 
HETATM   10  O   UNL     1     -10.909  16.087  70.081  1.00  0.00    -0.321 OA 
BRANCH   8  11
HETATM   11  C   UNL     1      -8.797  16.300  68.887  1.00  0.00    -0.253 C  
BRANCH  11  12
HETATM   12  O   UNL     1      -8.180  15.191  68.202  1.00  0.00    -0.138 OA 
BRANCH  12  13
HETATM   13  C   UNL     1      -7.329  14.448  68.989  1.00  0.00    -0.127 A  
HETATM   14  C   UNL     1      -6.670  14.992  70.097  1.00  0.00    -0.097 A  
HETATM   15  C   UNL     1      -5.857  14.198  70.898  1.00  0.00    -0.213 A  
HETATM   16  C   UNL     1      -5.691  12.852  70.596  1.00  0.00    -0.163 A  
HETATM   17  C   UNL     1      -6.310  12.293  69.471  1.00  0.00    -0.121 A  
HETATM   18  C   UNL     1      -7.099  13.106  68.625  1.00  0.00    -0.103 A  
HETATM   19  C   UNL     1      -7.729  12.530  67.374  1.00  0.00    -0.167 C  
HETATM   20  C   UNL     1      -7.151  11.168  66.969  1.00  0.00    -0.124 C  
HETATM   21  C   UNL     1      -7.046  10.229  68.181  1.00  0.00    -0.082 C  
HETATM   22  O   UNL     1      -7.960  10.569  65.955  1.00  0.00    -0.146 OA 
HETATM   23  H   UNL     1      -7.602   9.726  65.704  1.00  0.00     0.000 HD 
HETATM   24  O   UNL     1      -8.313   9.987  68.807  1.00  0.00    -0.109 OA 
HETATM   25  C   UNL     1      -6.071  10.822  69.199  1.00  0.00    -0.043 C  
HETATM   26  H   UNL     1      -8.248   9.406  69.557  1.00  0.00     0.000 HD 
ENDBRANCH  12  13
ENDBRANCH  11  12
ENDBRANCH   8  11
ENDBRANCH   7   8
ENDBRANCH   5   7
TORSDOF 5
ENDMDL
MODEL      277
REMARK 921   NORMALIZED FREE ENERGY PREDICTED BY IDOCK:   -3.30 KCAL/MOL
REMARK 922        TOTAL FREE ENERGY PREDICTED BY IDOCK:   -4.99 KCAL/MOL
REMARK 923 INTER-LIGAND FREE ENERGY PREDICTED BY IDOCK:   -4.44 KCAL/MOL
REMARK 924 INTRA-LIGAND FREE ENERGY PREDICTED BY IDOCK:   -0.55 KCAL/MOL
REMARK 927      BINDING AFFINITY PREDICTED BY RF-SCORE:    0.00 PKD
ROOT
HETATM    1  C   UNL     1     -11.738  10.806  70.021  1.00  0.00    -0.417 C  
HETATM    2  C   UNL     1     -10.508   9.908  69.793  1.00  0.00    -0.261 C  
HETATM    3  C   UNL     1      -9.349  10.793  69.295  1.00  0.00    -0.087 C  
HETATM    4  C   UNL     1     -10.815   8.860  68.708  1.00  0.00    -0.040 C  
HETATM    5  N   UNL     1     -10.050   9.260  71.036  1.00  0.00    -0.294 NA 
HETATM    6  H   UNL     1      -9.693   9.961  71.685  1.00  0.00     0.000 HD 
ENDROOT
BRANCH   5   7
HETATM    7  C   UNL     1     -11.046   8.415  71.704  1.00  0.00    -0.278 C  
BRANCH   7   8
HETATM    8  C   UNL     1     -10.536   6.972  71.875  1.00  0.00    -0.214 C  
HETATM    9  H   UNL     1     -10.571   5.591  73.282  1.00  0.00     0.000 HD 
HETATM   10  O   UNL     1     -10.886   6.481  73.176  1.00  0.00    -0.257 OA 
BRANCH   8  11
HETATM   11  C   UNL     1     -11.139   6.068  70.789  1.00  0.00    -0.286 C  
BRANCH  11  12
HETATM   12  O   UNL     1     -10.134   5.163  70.286  1.00  0.00    -0.226 OA 
BRANCH  12  13
HETATM   13  C   UNL     1      -9.151   5.772  69.540  1.00  0.00    -0.130 A  
HETATM   14  C   UNL     1      -8.085   6.461  70.130  1.00  0.00    -0.120 A  
HETATM   15  C   UNL     1      -7.083   7.021  69.347  1.00  0.00    -0.079 A  
HETATM   16  C   UNL     1      -7.139   6.904  67.963  1.00  0.00    -0.086 A  
HETATM   17  C   UNL     1      -8.216   6.253  67.347  1.00  0.00    -0.109 A  
HETATM   18  C   UNL     1      -9.263   5.722  68.137  1.00  0.00    -0.110 A  
HETATM   19  C   UNL     1     -10.461   5.065  67.483  1.00  0.00    -0.094 C  
HETATM   20  C   UNL     1     -10.572   5.352  65.981  1.00  0.00    -0.052 C  
HETATM   21  C   UNL     1      -9.218   5.165  65.280  1.00  0.00    -0.084 C  
HETATM   22  O   UNL     1     -11.554   4.500  65.386  1.00  0.00    -0.970 OA 
HETATM   23  H   UNL     1     -11.622   4.678  64.456  1.00  0.00     0.000 HD 
HETATM   24  O   UNL     1      -8.697   3.836  65.424  1.00  0.00    -0.112 OA 
HETATM   25  C   UNL     1      -8.215   6.177  65.834  1.00  0.00    -0.131 C  
HETATM   26  H   UNL     1      -7.859   3.720  64.990  1.00  0.00     0.000 HD 
ENDBRANCH  12  13
ENDBRANCH  11  12
ENDBRANCH   8  11
ENDBRANCH   7   8
ENDBRANCH   5   7
TORSDOF 5
ENDMDL
MODEL      278
REMARK 921   NORMALIZED FREE ENERGY PREDICTED BY IDOCK:   -3.29 KCAL/MOL
REMARK 922        TOTAL FREE ENERGY PREDICTED BY IDOCK:   -4.97 KCAL/MOL
REMARK 923 INTER-LIGAND FREE ENERGY PREDICTED BY IDOCK:   -4.23 KCAL/MOL
REMARK 924 INTRA-LIGAND FREE ENERGY PREDICTED BY IDOCK:   -0.74 KCAL/MOL
REMARK 927      BINDING AFFINITY PREDICTED BY RF-SCORE:    0.00 PKD
ROOT
HETATM    1  C   UNL     1      -6.060   8.252  67.634  1.00  0.00    -0.051 C  
HETATM    2  C   UNL     1      -7.102   7.622  68.577  1.00  0.00    -0.081 C  
HETATM    3  C   UNL     1      -6.687   7.929  70.028  1.00  0.00    -0.041 C  
HETATM    4  C   UNL     1      -7.122   6.094  68.394  1.00  0.00    -0.082 C  
HETATM    5  N   UNL     1      -8.448   8.192  68.385  1.00  0.00    -0.126 NA 
HETATM    6  H   UNL     1      -8.457   9.171  68.670  1.00  0.00     0.000 HD 
ENDROOT
BRANCH   5   7
HETATM    7  C   UNL     1      -8.997   8.056  67.031  1.00  0.00    -0.138 C  
BRANCH   7   8
HETATM    8  C   UNL     1     -10.332   8.812  66.887  1.00  0.00    -0.274 C  
HETATM    9  H   UNL     1     -11.825   9.334  68.064  1.00  0.00     0.000 HD 
HETATM   10  O   UNL     1     -11.002   8.867  68.153  1.00  0.00    -0.058 OA 
BRANCH   8  11
HETATM   11  C   UNL     1     -10.078  10.233  66.360  1.00  0.00    -0.234 C  
BRANCH  11  12
HETATM   12  O   UNL     1     -10.371  11.201  67.389  1.00  0.00    -0.184 OA 
BRANCH  12  13
HETATM   13  C   UNL     1      -9.346  12.085  67.638  1.00  0.00    -0.185 A  
HETATM   14  C   UNL     1      -8.002  11.740  67.456  1.00  0.00    -0.148 A  
HETATM   15  C   UNL     1      -6.996  12.674  67.670  1.00  0.00    -0.140 A  
HETATM   16  C   UNL     1      -7.322  13.963  68.073  1.00  0.00    -0.141 A  
HETATM   17  C   UNL     1      -8.658  14.322  68.298  1.00  0.00    -0.176 A  
HETATM   18  C   UNL     1      -9.683  13.361  68.129  1.00  0.00    -0.226 A  
HETATM   19  C   UNL     1     -11.125  13.717  68.422  1.00  0.00    -0.287 C  
HETATM   20  C   UNL     1     -11.285  15.020  69.215  1.00  0.00    -0.286 C  
HETATM   21  C   UNL     1     -10.407  16.136  68.629  1.00  0.00    -0.252 C  
HETATM   22  O   UNL     1     -12.655  15.428  69.226  1.00  0.00    -0.591 OA 
HETATM   23  H   UNL     1     -12.754  16.235  69.717  1.00  0.00     0.000 HD 
HETATM   24  O   UNL     1     -10.721  16.428  67.260  1.00  0.00    -0.317 OA 
HETATM   25  C   UNL     1      -8.936  15.741  68.750  1.00  0.00    -0.214 C  
HETATM   26  H   UNL     1     -10.179  17.119  66.897  1.00  0.00     0.000 HD 
ENDBRANCH  12  13
ENDBRANCH  11  12
ENDBRANCH   8  11
ENDBRANCH   7   8
ENDBRANCH   5   7
TORSDOF 5
ENDMDL
MODEL      279
REMARK 921   NORMALIZED FREE ENERGY PREDICTED BY IDOCK:   -3.27 KCAL/MOL
REMARK 922        TOTAL FREE ENERGY PREDICTED BY IDOCK:   -4.95 KCAL/MOL
REMARK 923 INTER-LIGAND FREE ENERGY PREDICTED BY IDOCK:   -3.63 KCAL/MOL
REMARK 924 INTRA-LIGAND FREE ENERGY PREDICTED BY IDOCK:   -1.32 KCAL/MOL
REMARK 927      BINDING AFFINITY PREDICTED BY RF-SCORE:    0.00 PKD
ROOT
HETATM    1  C   UNL     1      -8.577   5.422  69.050  1.00  0.00    -0.102 C  
HETATM    2  C   UNL     1      -7.046   5.420  68.883  1.00  0.00    -0.061 C  
HETATM    3  C   UNL     1      -6.641   6.699  68.126  1.00  0.00    -0.059 C  
HETATM    4  C   UNL     1      -6.610   4.205  68.045  1.00  0.00    -0.042 C  
HETATM    5  N   UNL     1      -6.342   5.446  70.178  1.00  0.00    -0.029 NA 
HETATM    6  H   UNL     1      -6.509   6.334  70.650  1.00  0.00     0.000 HD 
ENDROOT
BRANCH   5   7
HETATM    7  C   UNL     1      -6.650   4.329  71.079  1.00  0.00    -0.030 C  
BRANCH   7   8
HETATM    8  C   UNL     1      -7.294   4.824  72.388  1.00  0.00    -0.083 C  
HETATM    9  H   UNL     1      -7.728   4.064  74.155  1.00  0.00     0.000 HD 
HETATM   10  O   UNL     1      -7.331   3.759  73.347  1.00  0.00    -0.061 OA 
BRANCH   8  11
HETATM   11  C   UNL     1      -6.500   6.013  72.949  1.00  0.00    -0.064 C  
BRANCH  11  12
HETATM   12  O   UNL     1      -7.394   7.104  73.256  1.00  0.00    -0.073 OA 
BRANCH  12  13
HETATM   13  C   UNL     1      -7.594   7.978  72.213  1.00  0.00    -0.110 A  
HETATM   14  C   UNL     1      -6.536   8.651  71.590  1.00  0.00    -0.072 A  
HETATM   15  C   UNL     1      -6.770   9.489  70.506  1.00  0.00    -0.101 A  
HETATM   16  C   UNL     1      -8.066   9.668  70.037  1.00  0.00    -0.190 A  
HETATM   17  C   UNL     1      -9.146   9.035  70.667  1.00  0.00    -0.280 A  
HETATM   18  C   UNL     1      -8.919   8.219  71.801  1.00  0.00    -0.241 A  
HETATM   19  C   UNL     1     -10.080   7.574  72.528  1.00  0.00    -0.262 C  
HETATM   20  C   UNL     1     -11.444   8.162  72.146  1.00  0.00    -0.350 C  
HETATM   21  C   UNL     1     -11.579   8.303  70.622  1.00  0.00    -0.191 C  
HETATM   22  O   UNL     1     -12.497   7.343  72.658  1.00  0.00    -0.506 OA 
HETATM   23  H   UNL     1     -13.342   7.707  72.421  1.00  0.00     0.000 HD 
HETATM   24  O   UNL     1     -11.447   7.051  69.935  1.00  0.00    -0.460 OA 
HETATM   25  C   UNL     1     -10.530   9.289  70.108  1.00  0.00    -0.265 C  
HETATM   26  H   UNL     1     -11.531   7.137  68.992  1.00  0.00     0.000 HD 
ENDBRANCH  12  13
ENDBRANCH  11  12
ENDBRANCH   8  11
ENDBRANCH   7   8
ENDBRANCH   5   7
TORSDOF 5
ENDMDL
MODEL      280
REMARK 921   NORMALIZED FREE ENERGY PREDICTED BY IDOCK:   -3.26 KCAL/MOL
REMARK 922        TOTAL FREE ENERGY PREDICTED BY IDOCK:   -4.94 KCAL/MOL
REMARK 923 INTER-LIGAND FREE ENERGY PREDICTED BY IDOCK:   -4.02 KCAL/MOL
REMARK 924 INTRA-LIGAND FREE ENERGY PREDICTED BY IDOCK:   -0.92 KCAL/MOL
REMARK 927      BINDING AFFINITY PREDICTED BY RF-SCORE:    0.00 PKD
ROOT
HETATM    1  C   UNL     1      -7.679   7.598  65.365  1.00  0.00    -0.104 C  
HETATM    2  C   UNL     1      -7.240   7.429  66.831  1.00  0.00    -0.088 C  
HETATM    3  C   UNL     1      -7.364   8.794  67.533  1.00  0.00    -0.081 C  
HETATM    4  C   UNL     1      -5.767   6.987  66.891  1.00  0.00    -0.022 C  
HETATM    5  N   UNL     1      -8.102   6.486  67.567  1.00  0.00    -0.120 NA 
HETATM    6  H   UNL     1      -9.041   6.872  67.663  1.00  0.00     0.000 HD 
ENDROOT
BRANCH   5   7
HETATM    7  C   UNL     1      -8.168   5.131  67.009  1.00  0.00    -0.107 C  
BRANCH   7   8
HETATM    8  C   UNL     1      -8.900   4.165  67.959  1.00  0.00    -0.112 C  
HETATM    9  H   UNL     1      -8.588   2.366  68.702  1.00  0.00     0.000 HD 
HETATM   10  O   UNL     1      -8.137   2.961  68.115  1.00  0.00    -0.061 OA 
BRANCH   8  11
HETATM   11  C   UNL     1      -9.117   4.834  69.325  1.00  0.00    -0.105 C  
BRANCH  11  12
HETATM   12  O   UNL     1     -10.471   5.321  69.428  1.00  0.00    -0.260 OA 
BRANCH  12  13
HETATM   13  C   UNL     1     -10.726   6.036  70.576  1.00  0.00    -0.284 A  
HETATM   14  C   UNL     1     -10.798   5.427  71.834  1.00  0.00    -0.253 A  
HETATM   15  C   UNL     1     -11.008   6.188  72.978  1.00  0.00    -0.278 A  
HETATM   16  C   UNL     1     -11.154   7.566  72.876  1.00  0.00    -0.426 A  
HETATM   17  C   UNL     1     -11.124   8.194  71.623  1.00  0.00    -0.310 A  
HETATM   18  C   UNL     1     -10.959   7.419  70.451  1.00  0.00    -0.269 A  
HETATM   19  C   UNL     1     -10.981   8.076  69.087  1.00  0.00     0.058 C  
HETATM   20  C   UNL     1     -11.530   9.508  69.106  1.00  0.00     0.246 C  
HETATM   21  C   UNL     1     -10.911  10.324  70.252  1.00  0.00    -0.309 C  
HETATM   22  O   UNL     1     -11.278  10.151  67.855  1.00  0.00    -0.437 OA 
HETATM   23  H   UNL     1     -11.618  11.038  67.867  1.00  0.00     0.000 HD 
HETATM   24  O   UNL     1      -9.483  10.415  70.159  1.00  0.00    -0.363 OA 
HETATM   25  C   UNL     1     -11.304   9.698  71.590  1.00  0.00    -0.336 C  
HETATM   26  H   UNL     1      -9.100  10.920  70.868  1.00  0.00     0.000 HD 
ENDBRANCH  12  13
ENDBRANCH  11  12
ENDBRANCH   8  11
ENDBRANCH   7   8
ENDBRANCH   5   7
TORSDOF 5
ENDMDL
MODEL      281
REMARK 921   NORMALIZED FREE ENERGY PREDICTED BY IDOCK:   -3.26 KCAL/MOL
REMARK 922        TOTAL FREE ENERGY PREDICTED BY IDOCK:   -4.94 KCAL/MOL
REMARK 923 INTER-LIGAND FREE ENERGY PREDICTED BY IDOCK:   -4.03 KCAL/MOL
REMARK 924 INTRA-LIGAND FREE ENERGY PREDICTED BY IDOCK:   -0.91 KCAL/MOL
REMARK 927      BINDING AFFINITY PREDICTED BY RF-SCORE:    0.00 PKD
ROOT
HETATM    1  C   UNL     1     -11.664  10.121  69.750  1.00  0.00    -0.205 C  
HETATM    2  C   UNL     1     -10.580  10.171  68.657  1.00  0.00    -0.210 C  
HETATM    3  C   UNL     1     -11.014  11.197  67.594  1.00  0.00    -0.323 C  
HETATM    4  C   UNL     1     -10.454   8.796  67.978  1.00  0.00    -0.260 C  
HETATM    5  N   UNL     1      -9.277  10.620  69.182  1.00  0.00    -0.302 NA 
HETATM    6  H   UNL     1      -9.335  11.594  69.478  1.00  0.00     0.000 HD 
ENDROOT
BRANCH   5   7
HETATM    7  C   UNL     1      -8.721   9.797  70.262  1.00  0.00    -0.129 C  
BRANCH   7   8
HETATM    8  C   UNL     1      -7.192   9.659  70.134  1.00  0.00    -0.128 C  
HETATM    9  H   UNL     1      -5.599  10.500  70.934  1.00  0.00     0.000 HD 
HETATM   10  O   UNL     1      -6.542  10.586  71.013  1.00  0.00    -0.326 OA 
BRANCH   8  11
HETATM   11  C   UNL     1      -6.764   8.222  70.471  1.00  0.00    -0.037 C  
BRANCH  11  12
HETATM   12  O   UNL     1      -6.951   7.369  69.323  1.00  0.00    -0.061 OA 
BRANCH  12  13
HETATM   13  C   UNL     1      -7.785   6.297  69.548  1.00  0.00    -0.099 A  
HETATM   14  C   UNL     1      -8.064   5.826  70.837  1.00  0.00    -0.119 A  
HETATM   15  C   UNL     1      -8.951   4.774  71.029  1.00  0.00    -0.163 A  
HETATM   16  C   UNL     1      -9.564   4.176  69.935  1.00  0.00    -0.282 A  
HETATM   17  C   UNL     1      -9.272   4.604  68.633  1.00  0.00    -0.173 A  
HETATM   18  C   UNL     1      -8.334   5.643  68.428  1.00  0.00    -0.106 A  
HETATM   19  C   UNL     1      -7.965   6.080  67.025  1.00  0.00    -0.102 C  
HETATM   20  C   UNL     1      -8.412   5.092  65.940  1.00  0.00    -0.121 C  
HETATM   21  C   UNL     1      -9.865   4.645  66.162  1.00  0.00    -0.226 C  
HETATM   22  O   UNL     1      -8.272   5.682  64.646  1.00  0.00    -0.124 OA 
HETATM   23  H   UNL     1      -8.549   5.070  63.974  1.00  0.00     0.000 HD 
HETATM   24  O   UNL     1     -10.790   5.741  66.149  1.00  0.00    -0.594 OA 
HETATM   25  C   UNL     1      -9.969   3.896  67.490  1.00  0.00     0.060 C  
HETATM   26  H   UNL     1     -11.689   5.465  66.286  1.00  0.00     0.000 HD 
ENDBRANCH  12  13
ENDBRANCH  11  12
ENDBRANCH   8  11
ENDBRANCH   7   8
ENDBRANCH   5   7
TORSDOF 5
ENDMDL
MODEL      282
REMARK 921   NORMALIZED FREE ENERGY PREDICTED BY IDOCK:   -3.26 KCAL/MOL
REMARK 922        TOTAL FREE ENERGY PREDICTED BY IDOCK:   -4.93 KCAL/MOL
REMARK 923 INTER-LIGAND FREE ENERGY PREDICTED BY IDOCK:   -4.45 KCAL/MOL
REMARK 924 INTRA-LIGAND FREE ENERGY PREDICTED BY IDOCK:   -0.48 KCAL/MOL
REMARK 927      BINDING AFFINITY PREDICTED BY RF-SCORE:    0.00 PKD
ROOT
HETATM    1  C   UNL     1      -9.848  14.508  68.643  1.00  0.00    -0.232 C  
HETATM    2  C   UNL     1     -10.460  14.182  67.268  1.00  0.00    -0.272 C  
HETATM    3  C   UNL     1      -9.577  14.824  66.182  1.00  0.00    -0.338 C  
HETATM    4  C   UNL     1     -11.871  14.788  67.163  1.00  0.00    -0.307 C  
HETATM    5  N   UNL     1     -10.489  12.733  66.999  1.00  0.00    -0.236 NA 
HETATM    6  H   UNL     1      -9.539  12.375  66.906  1.00  0.00     0.000 HD 
ENDROOT
BRANCH   5   7
HETATM    7  C   UNL     1     -11.238  11.930  67.973  1.00  0.00    -0.257 C  
BRANCH   7   8
HETATM    8  C   UNL     1     -10.365  10.810  68.569  1.00  0.00    -0.185 C  
HETATM    9  H   UNL     1     -10.347   9.718  70.210  1.00  0.00     0.000 HD 
HETATM   10  O   UNL     1     -10.885  10.410  69.843  1.00  0.00    -0.268 OA 
BRANCH   8  11
HETATM   11  C   UNL     1     -10.325   9.608  67.613  1.00  0.00    -0.237 C  
BRANCH  11  12
HETATM   12  O   UNL     1      -9.305   8.677  68.030  1.00  0.00    -0.136 OA 
BRANCH  12  13
HETATM   13  C   UNL     1      -9.705   7.361  68.016  1.00  0.00    -0.144 A  
HETATM   14  C   UNL     1     -10.265   6.762  66.881  1.00  0.00    -0.300 A  
HETATM   15  C   UNL     1     -10.611   5.416  66.888  1.00  0.00    -0.320 A  
HETATM   16  C   UNL     1     -10.405   4.654  68.031  1.00  0.00     0.082 A  
HETATM   17  C   UNL     1      -9.881   5.239  69.192  1.00  0.00    -0.257 A  
HETATM   18  C   UNL     1      -9.572   6.619  69.206  1.00  0.00    -0.145 A  
HETATM   19  C   UNL     1      -9.057   7.278  70.469  1.00  0.00    -0.158 C  
HETATM   20  C   UNL     1      -9.249   6.422  71.727  1.00  0.00    -0.143 C  
HETATM   21  C   UNL     1      -8.811   4.970  71.481  1.00  0.00    -0.132 C  
HETATM   22  O   UNL     1      -8.514   6.978  72.820  1.00  0.00    -0.114 OA 
HETATM   23  H   UNL     1      -8.633   6.448  73.599  1.00  0.00     0.000 HD 
HETATM   24  O   UNL     1      -7.433   4.864  71.098  1.00  0.00    -0.069 OA 
HETATM   25  C   UNL     1      -9.697   4.348  70.403  1.00  0.00    -0.284 C  
HETATM   26  H   UNL     1      -7.161   3.966  70.947  1.00  0.00     0.000 HD 
ENDBRANCH  12  13
ENDBRANCH  11  12
ENDBRANCH   8  11
ENDBRANCH   7   8
ENDBRANCH   5   7
TORSDOF 5
ENDMDL
MODEL      283
REMARK 921   NORMALIZED FREE ENERGY PREDICTED BY IDOCK:   -3.25 KCAL/MOL
REMARK 922        TOTAL FREE ENERGY PREDICTED BY IDOCK:   -4.93 KCAL/MOL
REMARK 923 INTER-LIGAND FREE ENERGY PREDICTED BY IDOCK:   -4.12 KCAL/MOL
REMARK 924 INTRA-LIGAND FREE ENERGY PREDICTED BY IDOCK:   -0.81 KCAL/MOL
REMARK 927      BINDING AFFINITY PREDICTED BY RF-SCORE:    0.00 PKD
ROOT
HETATM    1  C   UNL     1      -6.361   8.076  67.980  1.00  0.00    -0.051 C  
HETATM    2  C   UNL     1      -6.866   6.744  68.564  1.00  0.00    -0.074 C  
HETATM    3  C   UNL     1      -6.399   6.651  70.028  1.00  0.00    -0.039 C  
HETATM    4  C   UNL     1      -6.256   5.564  67.786  1.00  0.00    -0.034 C  
HETATM    5  N   UNL     1      -8.338   6.661  68.576  1.00  0.00    -0.122 NA 
HETATM    6  H   UNL     1      -8.722   7.345  69.228  1.00  0.00     0.000 HD 
ENDROOT
BRANCH   5   7
HETATM    7  C   UNL     1      -8.983   6.795  67.265  1.00  0.00    -0.117 C  
BRANCH   7   8
HETATM    8  C   UNL     1     -10.358   7.481  67.382  1.00  0.00    -0.276 C  
HETATM    9  H   UNL     1     -11.552   8.072  68.834  1.00  0.00     0.000 HD 
HETATM   10  O   UNL     1     -10.705   7.648  68.762  1.00  0.00    -0.177 OA 
BRANCH   8  11
HETATM   11  C   UNL     1     -10.327   8.845  66.675  1.00  0.00    -0.223 C  
BRANCH  11  12
HETATM   12  O   UNL     1      -9.423   9.737  67.360  1.00  0.00    -0.148 OA 
BRANCH  12  13
HETATM   13  C   UNL     1      -9.989  10.934  67.732  1.00  0.00    -0.176 A  
HETATM   14  C   UNL     1     -11.366  11.078  67.936  1.00  0.00    -0.381 A  
HETATM   15  C   UNL     1     -11.897  12.291  68.362  1.00  0.00    -0.358 A  
HETATM   16  C   UNL     1     -11.056  13.375  68.583  1.00  0.00    -0.295 A  
HETATM   17  C   UNL     1      -9.678  13.266  68.349  1.00  0.00    -0.198 A  
HETATM   18  C   UNL     1      -9.139  12.049  67.870  1.00  0.00    -0.183 A  
HETATM   19  C   UNL     1      -7.661  11.933  67.560  1.00  0.00    -0.151 C  
HETATM   20  C   UNL     1      -6.945  13.287  67.478  1.00  0.00    -0.144 C  
HETATM   21  C   UNL     1      -7.330  14.190  68.660  1.00  0.00    -0.126 C  
HETATM   22  O   UNL     1      -5.529  13.096  67.448  1.00  0.00    -0.322 OA 
HETATM   23  H   UNL     1      -5.085  13.935  67.398  1.00  0.00     0.000 HD 
HETATM   24  O   UNL     1      -7.004  13.610  69.931  1.00  0.00    -0.346 OA 
HETATM   25  C   UNL     1      -8.827  14.494  68.599  1.00  0.00    -0.180 C  
HETATM   26  H   UNL     1      -7.242  14.168  70.662  1.00  0.00     0.000 HD 
ENDBRANCH  12  13
ENDBRANCH  11  12
ENDBRANCH   8  11
ENDBRANCH   7   8
ENDBRANCH   5   7
TORSDOF 5
ENDMDL
MODEL      284
REMARK 921   NORMALIZED FREE ENERGY PREDICTED BY IDOCK:   -3.22 KCAL/MOL
REMARK 922        TOTAL FREE ENERGY PREDICTED BY IDOCK:   -4.89 KCAL/MOL
REMARK 923 INTER-LIGAND FREE ENERGY PREDICTED BY IDOCK:   -4.36 KCAL/MOL
REMARK 924 INTRA-LIGAND FREE ENERGY PREDICTED BY IDOCK:   -0.53 KCAL/MOL
REMARK 927      BINDING AFFINITY PREDICTED BY RF-SCORE:    0.00 PKD
ROOT
HETATM    1  C   UNL     1     -12.591  13.578  65.514  1.00  0.00    -0.531 C  
HETATM    2  C   UNL     1     -11.139  14.089  65.522  1.00  0.00    -0.309 C  
HETATM    3  C   UNL     1     -10.721  14.334  66.984  1.00  0.00    -0.290 C  
HETATM    4  C   UNL     1     -11.047  15.425  64.763  1.00  0.00    -0.416 C  
HETATM    5  N   UNL     1     -10.195  13.102  64.965  1.00  0.00    -0.432 NA 
HETATM    6  H   UNL     1     -10.143  12.286  65.573  1.00  0.00     0.000 HD 
ENDROOT
BRANCH   5   7
HETATM    7  C   UNL     1     -10.467  12.687  63.584  1.00  0.00    -0.314 C  
BRANCH   7   8
HETATM    8  C   UNL     1     -10.039  11.228  63.341  1.00  0.00    -0.400 C  
HETATM    9  H   UNL     1      -8.498  10.295  62.539  1.00  0.00     0.000 HD 
HETATM   10  O   UNL     1      -8.762  11.196  62.689  1.00  0.00    -0.264 OA 
BRANCH   8  11
HETATM   11  C   UNL     1      -9.970  10.469  64.675  1.00  0.00    -0.347 C  
BRANCH  11  12
HETATM   12  O   UNL     1      -9.125   9.307  64.540  1.00  0.00    -0.200 OA 
BRANCH  12  13
HETATM   13  C   UNL     1      -8.367   9.031  65.655  1.00  0.00    -0.132 A  
HETATM   14  C   UNL     1      -8.378   9.853  66.788  1.00  0.00    -0.125 A  
HETATM   15  C   UNL     1      -7.637   9.515  67.915  1.00  0.00    -0.087 A  
HETATM   16  C   UNL     1      -6.873   8.355  67.919  1.00  0.00    -0.067 A  
HETATM   17  C   UNL     1      -6.816   7.535  66.783  1.00  0.00    -0.070 A  
HETATM   18  C   UNL     1      -7.530   7.899  65.617  1.00  0.00    -0.081 A  
HETATM   19  C   UNL     1      -7.434   7.054  64.364  1.00  0.00    -0.100 C  
HETATM   20  C   UNL     1      -6.276   6.049  64.390  1.00  0.00    -0.030 C  
HETATM   21  C   UNL     1      -6.224   5.299  65.730  1.00  0.00    -0.034 C  
HETATM   22  O   UNL     1      -6.403   5.119  63.313  1.00  0.00    -0.025 OA 
HETATM   23  H   UNL     1      -5.686   4.496  63.329  1.00  0.00     0.000 HD 
HETATM   24  O   UNL     1      -7.428   4.571  66.006  1.00  0.00    -0.083 OA 
HETATM   25  C   UNL     1      -5.951   6.294  66.858  1.00  0.00    -0.024 C  
HETATM   26  H   UNL     1      -7.396   4.107  66.834  1.00  0.00     0.000 HD 
ENDBRANCH  12  13
ENDBRANCH  11  12
ENDBRANCH   8  11
ENDBRANCH   7   8
ENDBRANCH   5   7
TORSDOF 5
ENDMDL
MODEL      285
REMARK 921   NORMALIZED FREE ENERGY PREDICTED BY IDOCK:   -3.20 KCAL/MOL
REMARK 922        TOTAL FREE ENERGY PREDICTED BY IDOCK:   -4.86 KCAL/MOL
REMARK 923 INTER-LIGAND FREE ENERGY PREDICTED BY IDOCK:   -4.45 KCAL/MOL
REMARK 924 INTRA-LIGAND FREE ENERGY PREDICTED BY IDOCK:   -0.41 KCAL/MOL
REMARK 927      BINDING AFFINITY PREDICTED BY RF-SCORE:    0.00 PKD
ROOT
HETATM    1  C   UNL     1     -10.316   8.234  70.422  1.00  0.00    -0.214 C  
HETATM    2  C   UNL     1      -9.435   7.336  71.310  1.00  0.00    -0.155 C  
HETATM    3  C   UNL     1     -10.027   5.914  71.296  1.00  0.00    -0.232 C  
HETATM    4  C   UNL     1      -9.450   7.852  72.760  1.00  0.00    -0.304 C  
HETATM    5  N   UNL     1      -8.054   7.232  70.803  1.00  0.00    -0.110 NA 
HETATM    6  H   UNL     1      -8.044   6.736  69.912  1.00  0.00     0.000 HD 
ENDROOT
BRANCH   5   7
HETATM    7  C   UNL     1      -7.335   8.505  70.680  1.00  0.00    -0.061 C  
BRANCH   7   8
HETATM    8  C   UNL     1      -6.679   8.650  69.294  1.00  0.00    -0.050 C  
HETATM    9  H   UNL     1      -5.472   7.586  68.155  1.00  0.00     0.000 HD 
HETATM   10  O   UNL     1      -5.876   7.496  69.010  1.00  0.00    -0.025 OA 
BRANCH   8  11
HETATM   11  C   UNL     1      -7.760   8.820  68.215  1.00  0.00    -0.100 C  
BRANCH  11  12
HETATM   12  O   UNL     1      -7.473   9.979  67.406  1.00  0.00    -0.090 OA 
BRANCH  12  13
HETATM   13  C   UNL     1      -8.065   9.959  66.164  1.00  0.00    -0.119 A  
HETATM   14  C   UNL     1      -7.828   8.934  65.240  1.00  0.00    -0.104 A  
HETATM   15  C   UNL     1      -8.483   8.920  64.014  1.00  0.00    -0.146 A  
HETATM   16  C   UNL     1      -9.379   9.934  63.696  1.00  0.00    -0.242 A  
HETATM   17  C   UNL     1      -9.605  10.990  64.589  1.00  0.00    -0.297 A  
HETATM   18  C   UNL     1      -8.905  11.035  65.818  1.00  0.00    -0.200 A  
HETATM   19  C   UNL     1      -9.096  12.199  66.769  1.00  0.00    -0.205 C  
HETATM   20  C   UNL     1      -9.795  13.404  66.128  1.00  0.00    -0.281 C  
HETATM   21  C   UNL     1     -11.028  12.965  65.322  1.00  0.00    -0.283 C  
HETATM   22  O   UNL     1     -10.177  14.346  67.132  1.00  0.00    -0.254 OA 
HETATM   23  H   UNL     1     -10.610  15.093  66.736  1.00  0.00     0.000 HD 
HETATM   24  O   UNL     1     -12.002  12.283  66.124  1.00  0.00    -0.579 OA 
HETATM   25  C   UNL     1     -10.585  12.065  64.168  1.00  0.00    -0.398 C  
HETATM   26  H   UNL     1     -12.764  12.012  65.626  1.00  0.00     0.000 HD 
ENDBRANCH  12  13
ENDBRANCH  11  12
ENDBRANCH   8  11
ENDBRANCH   7   8
ENDBRANCH   5   7
TORSDOF 5
ENDMDL
MODEL      286
REMARK 921   NORMALIZED FREE ENERGY PREDICTED BY IDOCK:   -3.17 KCAL/MOL
REMARK 922        TOTAL FREE ENERGY PREDICTED BY IDOCK:   -4.82 KCAL/MOL
REMARK 923 INTER-LIGAND FREE ENERGY PREDICTED BY IDOCK:   -4.38 KCAL/MOL
REMARK 924 INTRA-LIGAND FREE ENERGY PREDICTED BY IDOCK:   -0.45 KCAL/MOL
REMARK 927      BINDING AFFINITY PREDICTED BY RF-SCORE:    0.00 PKD
ROOT
HETATM    1  C   UNL     1      -5.933  16.554  67.620  1.00  0.00    -0.163 C  
HETATM    2  C   UNL     1      -7.300  15.851  67.540  1.00  0.00    -0.171 C  
HETATM    3  C   UNL     1      -8.182  16.622  66.540  1.00  0.00    -0.330 C  
HETATM    4  C   UNL     1      -7.989  15.882  68.916  1.00  0.00    -0.204 C  
HETATM    5  N   UNL     1      -7.189  14.469  67.038  1.00  0.00    -0.341 NA 
HETATM    6  H   UNL     1      -6.888  14.473  66.064  1.00  0.00     0.000 HD 
ENDROOT
BRANCH   5   7
HETATM    7  C   UNL     1      -6.327  13.583  67.830  1.00  0.00    -0.161 C  
BRANCH   7   8
HETATM    8  C   UNL     1      -6.475  12.114  67.392  1.00  0.00    -0.149 C  
HETATM    9  H   UNL     1      -5.550  10.409  67.739  1.00  0.00     0.000 HD 
HETATM   10  O   UNL     1      -5.458  11.315  68.009  1.00  0.00    -0.043 OA 
BRANCH   8  11
HETATM   11  C   UNL     1      -7.867  11.588  67.775  1.00  0.00    -0.126 C  
BRANCH  11  12
HETATM   12  O   UNL     1      -7.743  10.507  68.723  1.00  0.00    -0.093 OA 
BRANCH  12  13
HETATM   13  C   UNL     1      -8.889  10.254  69.441  1.00  0.00    -0.163 A  
HETATM   14  C   UNL     1     -10.135  10.770  69.066  1.00  0.00    -0.225 A  
HETATM   15  C   UNL     1     -11.279  10.452  69.787  1.00  0.00    -0.353 A  
HETATM   16  C   UNL     1     -11.190   9.619  70.896  1.00  0.00    -0.422 A  
HETATM   17  C   UNL     1      -9.949   9.121  71.314  1.00  0.00    -0.373 A  
HETATM   18  C   UNL     1      -8.774   9.480  70.612  1.00  0.00    -0.189 A  
HETATM   19  C   UNL     1      -7.419   8.996  71.085  1.00  0.00    -0.119 C  
HETATM   20  C   UNL     1      -7.435   8.427  72.509  1.00  0.00    -0.077 C  
HETATM   21  C   UNL     1      -8.617   7.465  72.708  1.00  0.00    -0.117 C  
HETATM   22  O   UNL     1      -6.204   7.756  72.788  1.00  0.00    -0.057 OA 
HETATM   23  H   UNL     1      -6.214   7.403  73.670  1.00  0.00     0.000 HD 
HETATM   24  O   UNL     1      -8.584   6.352  71.804  1.00  0.00    -0.128 OA 
HETATM   25  C   UNL     1      -9.928   8.231  72.540  1.00  0.00    -0.373 C  
HETATM   26  H   UNL     1      -9.315   5.757  71.926  1.00  0.00     0.000 HD 
ENDBRANCH  12  13
ENDBRANCH  11  12
ENDBRANCH   8  11
ENDBRANCH   7   8
ENDBRANCH   5   7
TORSDOF 5
ENDMDL
MODEL      287
REMARK 921   NORMALIZED FREE ENERGY PREDICTED BY IDOCK:   -3.14 KCAL/MOL
REMARK 922        TOTAL FREE ENERGY PREDICTED BY IDOCK:   -4.78 KCAL/MOL
REMARK 923 INTER-LIGAND FREE ENERGY PREDICTED BY IDOCK:   -4.34 KCAL/MOL
REMARK 924 INTRA-LIGAND FREE ENERGY PREDICTED BY IDOCK:   -0.44 KCAL/MOL
REMARK 927      BINDING AFFINITY PREDICTED BY RF-SCORE:    0.00 PKD
ROOT
HETATM    1  C   UNL     1     -10.424  11.131  64.265  1.00  0.00    -0.427 C  
HETATM    2  C   UNL     1     -11.193  12.198  65.066  1.00  0.00    -0.322 C  
HETATM    3  C   UNL     1     -12.529  12.470  64.351  1.00  0.00    -0.530 C  
HETATM    4  C   UNL     1     -10.389  13.510  65.102  1.00  0.00    -0.368 C  
HETATM    5  N   UNL     1     -11.520  11.745  66.431  1.00  0.00    -0.435 NA 
HETATM    6  H   UNL     1     -12.188  10.976  66.394  1.00  0.00     0.000 HD 
ENDROOT
BRANCH   5   7
HETATM    7  C   UNL     1     -10.367  11.373  67.259  1.00  0.00    -0.198 C  
BRANCH   7   8
HETATM    8  C   UNL     1     -10.624  11.672  68.748  1.00  0.00    -0.212 C  
HETATM    9  H   UNL     1     -12.117  12.351  69.843  1.00  0.00     0.000 HD 
HETATM   10  O   UNL     1     -11.958  12.166  68.924  1.00  0.00    -0.299 OA 
BRANCH   8  11
HETATM   11  C   UNL     1     -10.417  10.400  69.585  1.00  0.00    -0.243 C  
BRANCH  11  12
HETATM   12  O   UNL     1      -9.344   9.612  69.029  1.00  0.00    -0.148 OA 
BRANCH  12  13
HETATM   13  C   UNL     1      -8.176   9.660  69.754  1.00  0.00    -0.161 A  
HETATM   14  C   UNL     1      -7.334  10.779  69.741  1.00  0.00    -0.072 A  
HETATM   15  C   UNL     1      -6.187  10.812  70.525  1.00  0.00    -0.086 A  
HETATM   16  C   UNL     1      -5.866   9.725  71.329  1.00  0.00    -0.052 A  
HETATM   17  C   UNL     1      -6.673   8.578  71.331  1.00  0.00    -0.069 A  
HETATM   18  C   UNL     1      -7.815   8.520  70.498  1.00  0.00    -0.086 A  
HETATM   19  C   UNL     1      -8.665   7.267  70.447  1.00  0.00    -0.146 C  
HETATM   20  C   UNL     1      -7.986   6.041  71.069  1.00  0.00    -0.116 C  
HETATM   21  C   UNL     1      -7.353   6.388  72.426  1.00  0.00    -0.088 C  
HETATM   22  O   UNL     1      -8.929   4.979  71.226  1.00  0.00    -0.133 OA 
HETATM   23  H   UNL     1      -8.508   4.220  71.611  1.00  0.00     0.000 HD 
HETATM   24  O   UNL     1      -8.310   6.875  73.377  1.00  0.00    -0.114 OA 
HETATM   25  C   UNL     1      -6.251   7.428  72.221  1.00  0.00    -0.040 C  
HETATM   26  H   UNL     1      -7.919   7.089  74.216  1.00  0.00     0.000 HD 
ENDBRANCH  12  13
ENDBRANCH  11  12
ENDBRANCH   8  11
ENDBRANCH   7   8
ENDBRANCH   5   7
TORSDOF 5
ENDMDL
MODEL      288
REMARK 921   NORMALIZED FREE ENERGY PREDICTED BY IDOCK:   -3.14 KCAL/MOL
REMARK 922        TOTAL FREE ENERGY PREDICTED BY IDOCK:   -4.78 KCAL/MOL
REMARK 923 INTER-LIGAND FREE ENERGY PREDICTED BY IDOCK:   -4.12 KCAL/MOL
REMARK 924 INTRA-LIGAND FREE ENERGY PREDICTED BY IDOCK:   -0.66 KCAL/MOL
REMARK 927      BINDING AFFINITY PREDICTED BY RF-SCORE:    0.00 PKD
ROOT
HETATM    1  C   UNL     1     -10.763  10.029  67.313  1.00  0.00    -0.309 C  
HETATM    2  C   UNL     1     -10.690  10.185  68.843  1.00  0.00    -0.223 C  
HETATM    3  C   UNL     1     -11.439  11.472  69.234  1.00  0.00    -0.370 C  
HETATM    4  C   UNL     1      -9.223  10.326  69.288  1.00  0.00    -0.215 C  
HETATM    5  N   UNL     1     -11.349   9.071  69.550  1.00  0.00    -0.432 NA 
HETATM    6  H   UNL     1     -12.353   9.092  69.376  1.00  0.00     0.000 HD 
ENDROOT
BRANCH   5   7
HETATM    7  C   UNL     1     -10.812   7.738  69.255  1.00  0.00    -0.080 C  
BRANCH   7   8
HETATM    8  C   UNL     1     -10.848   6.829  70.499  1.00  0.00    -0.258 C  
HETATM    9  H   UNL     1     -12.211   6.174  71.763  1.00  0.00     0.000 HD 
HETATM   10  O   UNL     1     -12.189   6.735  70.996  1.00  0.00    -0.377 OA 
BRANCH   8  11
HETATM   11  C   UNL     1     -10.316   5.432  70.146  1.00  0.00    -0.290 C  
BRANCH  11  12
HETATM   12  O   UNL     1      -9.032   5.541  69.497  1.00  0.00    -0.112 OA 
BRANCH  12  13
HETATM   13  C   UNL     1      -8.927   4.816  68.332  1.00  0.00    -0.111 A  
HETATM   14  C   UNL     1      -9.480   3.537  68.197  1.00  0.00    -0.215 A  
HETATM   15  C   UNL     1      -9.397   2.853  66.989  1.00  0.00    -0.132 A  
HETATM   16  C   UNL     1      -8.756   3.439  65.905  1.00  0.00    -0.124 A  
HETATM   17  C   UNL     1      -8.161   4.703  66.027  1.00  0.00    -0.110 A  
HETATM   18  C   UNL     1      -8.200   5.382  67.267  1.00  0.00    -0.104 A  
HETATM   19  C   UNL     1      -7.514   6.722  67.430  1.00  0.00    -0.096 C  
HETATM   20  C   UNL     1      -6.538   7.053  66.295  1.00  0.00    -0.052 C  
HETATM   21  C   UNL     1      -7.167   6.765  64.922  1.00  0.00    -0.075 C  
HETATM   22  O   UNL     1      -6.134   8.421  66.371  1.00  0.00    -0.050 OA 
HETATM   23  H   UNL     1      -5.529   8.626  65.668  1.00  0.00     0.000 HD 
HETATM   24  O   UNL     1      -8.363   7.521  64.691  1.00  0.00    -0.310 OA 
HETATM   25  C   UNL     1      -7.468   5.271  64.806  1.00  0.00    -0.069 C  
HETATM   26  H   UNL     1      -8.752   7.343  63.842  1.00  0.00     0.000 HD 
ENDBRANCH  12  13
ENDBRANCH  11  12
ENDBRANCH   8  11
ENDBRANCH   7   8
ENDBRANCH   5   7
TORSDOF 5
ENDMDL
MODEL      289
REMARK 921   NORMALIZED FREE ENERGY PREDICTED BY IDOCK:   -3.13 KCAL/MOL
REMARK 922        TOTAL FREE ENERGY PREDICTED BY IDOCK:   -4.77 KCAL/MOL
REMARK 923 INTER-LIGAND FREE ENERGY PREDICTED BY IDOCK:   -4.00 KCAL/MOL
REMARK 924 INTRA-LIGAND FREE ENERGY PREDICTED BY IDOCK:   -0.77 KCAL/MOL
REMARK 927      BINDING AFFINITY PREDICTED BY RF-SCORE:    0.00 PKD
ROOT
HETATM    1  C   UNL     1     -12.152  12.356  70.612  1.00  0.00    -0.317 C  
HETATM    2  C   UNL     1     -12.112  10.951  69.981  1.00  0.00    -0.355 C  
HETATM    3  C   UNL     1     -13.238  10.108  70.609  1.00  0.00    -0.197 C  
HETATM    4  C   UNL     1     -10.768  10.271  70.295  1.00  0.00    -0.310 C  
HETATM    5  N   UNL     1     -12.359  10.984  68.528  1.00  0.00    -0.724 NA 
HETATM    6  H   UNL     1     -13.316  11.281  68.342  1.00  0.00     0.000 HD 
ENDROOT
BRANCH   5   7
HETATM    7  C   UNL     1     -11.418  11.800  67.752  1.00  0.00    -0.311 C  
BRANCH   7   8
HETATM    8  C   UNL     1     -11.047  11.119  66.421  1.00  0.00    -0.138 C  
HETATM    9  H   UNL     1      -9.817  11.467  64.920  1.00  0.00     0.000 HD 
HETATM   10  O   UNL     1     -10.046  11.887  65.741  1.00  0.00    -0.226 OA 
BRANCH   8  11
HETATM   11  C   UNL     1     -10.535   9.695  66.682  1.00  0.00    -0.163 C  
BRANCH  11  12
HETATM   12  O   UNL     1      -9.177   9.564  66.211  1.00  0.00    -0.153 OA 
BRANCH  12  13
HETATM   13  C   UNL     1      -8.302   9.067  67.150  1.00  0.00    -0.110 A  
HETATM   14  C   UNL     1      -7.728   9.876  68.138  1.00  0.00    -0.082 A  
HETATM   15  C   UNL     1      -6.887   9.330  69.101  1.00  0.00    -0.050 A  
HETATM   16  C   UNL     1      -6.605   7.969  69.082  1.00  0.00    -0.040 A  
HETATM   17  C   UNL     1      -7.137   7.146  68.080  1.00  0.00    -0.085 A  
HETATM   18  C   UNL     1      -7.955   7.704  67.070  1.00  0.00    -0.116 A  
HETATM   19  C   UNL     1      -8.491   6.838  65.949  1.00  0.00    -0.146 C  
HETATM   20  C   UNL     1      -7.794   5.476  65.842  1.00  0.00    -0.104 C  
HETATM   21  C   UNL     1      -7.661   4.812  67.221  1.00  0.00    -0.086 C  
HETATM   22  O   UNL     1      -8.515   4.620  64.953  1.00  0.00    -0.123 OA 
HETATM   23  H   UNL     1      -8.083   3.777  64.887  1.00  0.00     0.000 HD 
HETATM   24  O   UNL     1      -8.928   4.594  67.857  1.00  0.00    -0.107 OA 
HETATM   25  C   UNL     1      -6.774   5.676  68.117  1.00  0.00    -0.054 C  
HETATM   26  H   UNL     1      -8.846   4.183  68.709  1.00  0.00     0.000 HD 
ENDBRANCH  12  13
ENDBRANCH  11  12
ENDBRANCH   8  11
ENDBRANCH   7   8
ENDBRANCH   5   7
TORSDOF 5
ENDMDL
MODEL      290
REMARK 921   NORMALIZED FREE ENERGY PREDICTED BY IDOCK:   -3.13 KCAL/MOL
REMARK 922        TOTAL FREE ENERGY PREDICTED BY IDOCK:   -4.77 KCAL/MOL
REMARK 923 INTER-LIGAND FREE ENERGY PREDICTED BY IDOCK:   -4.45 KCAL/MOL
REMARK 924 INTRA-LIGAND FREE ENERGY PREDICTED BY IDOCK:   -0.31 KCAL/MOL
REMARK 927      BINDING AFFINITY PREDICTED BY RF-SCORE:    0.00 PKD
ROOT
HETATM    1  C   UNL     1      -8.407  10.948  65.752  1.00  0.00    -0.133 C  
HETATM    2  C   UNL     1      -9.789  10.359  65.416  1.00  0.00    -0.283 C  
HETATM    3  C   UNL     1     -10.026  10.515  63.902  1.00  0.00    -0.348 C  
HETATM    4  C   UNL     1     -10.889  11.139  66.159  1.00  0.00    -0.247 C  
HETATM    5  N   UNL     1      -9.872   8.918  65.717  1.00  0.00    -0.465 NA 
HETATM    6  H   UNL     1      -9.254   8.395  65.097  1.00  0.00     0.000 HD 
ENDROOT
BRANCH   5   7
HETATM    7  C   UNL     1      -9.609   8.556  67.115  1.00  0.00    -0.178 C  
BRANCH   7   8
HETATM    8  C   UNL     1     -10.633   7.528  67.632  1.00  0.00    -0.233 C  
HETATM    9  H   UNL     1     -11.441   5.850  66.984  1.00  0.00     0.000 HD 
HETATM   10  O   UNL     1     -10.809   6.484  66.665  1.00  0.00    -0.275 OA 
BRANCH   8  11
HETATM   11  C   UNL     1     -10.158   6.936  68.967  1.00  0.00    -0.170 C  
BRANCH  11  12
HETATM   12  O   UNL     1     -10.778   5.653  69.188  1.00  0.00    -0.276 OA 
BRANCH  12  13
HETATM   13  C   UNL     1      -9.889   4.635  69.448  1.00  0.00    -0.202 A  
HETATM   14  C   UNL     1      -9.339   3.846  68.431  1.00  0.00    -0.222 A  
HETATM   15  C   UNL     1      -8.405   2.860  68.726  1.00  0.00    -0.086 A  
HETATM   16  C   UNL     1      -8.014   2.648  70.043  1.00  0.00    -0.053 A  
HETATM   17  C   UNL     1      -8.578   3.400  71.083  1.00  0.00    -0.110 A  
HETATM   18  C   UNL     1      -9.565   4.372  70.793  1.00  0.00    -0.259 A  
HETATM   19  C   UNL     1     -10.225   5.153  71.911  1.00  0.00    -0.269 C  
HETATM   20  C   UNL     1      -9.985   4.551  73.302  1.00  0.00    -0.141 C  
HETATM   21  C   UNL     1      -8.506   4.184  73.499  1.00  0.00    -0.093 C  
HETATM   22  O   UNL     1     -10.402   5.468  74.315  1.00  0.00    -0.253 OA 
HETATM   23  H   UNL     1     -10.254   5.096  75.176  1.00  0.00     0.000 HD 
HETATM   24  O   UNL     1      -7.632   5.313  73.365  1.00  0.00    -0.094 OA 
HETATM   25  C   UNL     1      -8.113   3.103  72.493  1.00  0.00    -0.064 C  
HETATM   26  H   UNL     1      -6.717   5.087  73.488  1.00  0.00     0.000 HD 
ENDBRANCH  12  13
ENDBRANCH  11  12
ENDBRANCH   8  11
ENDBRANCH   7   8
ENDBRANCH   5   7
TORSDOF 5
ENDMDL
MODEL      291
REMARK 921   NORMALIZED FREE ENERGY PREDICTED BY IDOCK:   -3.13 KCAL/MOL
REMARK 922        TOTAL FREE ENERGY PREDICTED BY IDOCK:   -4.77 KCAL/MOL
REMARK 923 INTER-LIGAND FREE ENERGY PREDICTED BY IDOCK:   -4.22 KCAL/MOL
REMARK 924 INTRA-LIGAND FREE ENERGY PREDICTED BY IDOCK:   -0.55 KCAL/MOL
REMARK 927      BINDING AFFINITY PREDICTED BY RF-SCORE:    0.00 PKD
ROOT
HETATM    1  C   UNL     1     -10.831   9.554  67.885  1.00  0.00    -0.240 C  
HETATM    2  C   UNL     1     -10.657  10.218  69.263  1.00  0.00    -0.230 C  
HETATM    3  C   UNL     1     -10.807  11.741  69.088  1.00  0.00    -0.221 C  
HETATM    4  C   UNL     1      -9.248   9.931  69.812  1.00  0.00    -0.252 C  
HETATM    5  N   UNL     1     -11.692   9.792  70.223  1.00  0.00    -0.398 NA 
HETATM    6  H   UNL     1     -12.606  10.135  69.929  1.00  0.00     0.000 HD 
ENDROOT
BRANCH   5   7
HETATM    7  C   UNL     1     -11.753   8.348  70.477  1.00  0.00    -0.070 C  
BRANCH   7   8
HETATM    8  C   UNL     1     -12.289   8.047  71.890  1.00  0.00    -0.323 C  
HETATM    9  H   UNL     1     -14.041   8.041  72.793  1.00  0.00     0.000 HD 
HETATM   10  O   UNL     1     -13.711   8.227  71.922  1.00  0.00    -0.353 OA 
BRANCH   8  11
HETATM   11  C   UNL     1     -11.929   6.609  72.294  1.00  0.00    -0.222 C  
BRANCH  11  12
HETATM   12  O   UNL     1     -11.142   6.618  73.503  1.00  0.00    -0.164 OA 
BRANCH  12  13
HETATM   13  C   UNL     1     -10.221   5.598  73.583  1.00  0.00    -0.218 A  
HETATM   14  C   UNL     1     -10.596   4.250  73.555  1.00  0.00    -0.291 A  
HETATM   15  C   UNL     1      -9.634   3.247  73.587  1.00  0.00    -0.137 A  
HETATM   16  C   UNL     1      -8.287   3.581  73.652  1.00  0.00    -0.083 A  
HETATM   17  C   UNL     1      -7.889   4.923  73.719  1.00  0.00    -0.099 A  
HETATM   18  C   UNL     1      -8.865   5.947  73.736  1.00  0.00    -0.124 A  
HETATM   19  C   UNL     1      -8.453   7.399  73.864  1.00  0.00    -0.225 C  
HETATM   20  C   UNL     1      -6.998   7.585  74.312  1.00  0.00    -0.098 C  
HETATM   21  C   UNL     1      -6.053   6.669  73.518  1.00  0.00    -0.063 C  
HETATM   22  O   UNL     1      -6.603   8.949  74.158  1.00  0.00    -0.308 OA 
HETATM   23  H   UNL     1      -5.702   9.064  74.435  1.00  0.00     0.000 HD 
HETATM   24  O   UNL     1      -6.100   6.915  72.106  1.00  0.00    -0.038 OA 
HETATM   25  C   UNL     1      -6.403   5.209  73.802  1.00  0.00    -0.065 C  
HETATM   26  H   UNL     1      -5.515   6.349  71.615  1.00  0.00     0.000 HD 
ENDBRANCH  12  13
ENDBRANCH  11  12
ENDBRANCH   8  11
ENDBRANCH   7   8
ENDBRANCH   5   7
TORSDOF 5
ENDMDL
MODEL      292
REMARK 921   NORMALIZED FREE ENERGY PREDICTED BY IDOCK:   -3.06 KCAL/MOL
REMARK 922        TOTAL FREE ENERGY PREDICTED BY IDOCK:   -4.67 KCAL/MOL
REMARK 923 INTER-LIGAND FREE ENERGY PREDICTED BY IDOCK:   -4.42 KCAL/MOL
REMARK 924 INTRA-LIGAND FREE ENERGY PREDICTED BY IDOCK:   -0.25 KCAL/MOL
REMARK 927      BINDING AFFINITY PREDICTED BY RF-SCORE:    0.00 PKD
ROOT
HETATM    1  C   UNL     1      -8.251   6.188  68.061  1.00  0.00    -0.114 C  
HETATM    2  C   UNL     1      -8.902   7.044  66.959  1.00  0.00    -0.124 C  
HETATM    3  C   UNL     1      -9.922   6.169  66.207  1.00  0.00    -0.058 C  
HETATM    4  C   UNL     1      -7.833   7.511  65.954  1.00  0.00    -0.107 C  
HETATM    5  N   UNL     1      -9.644   8.194  67.509  1.00  0.00    -0.151 NA 
HETATM    6  H   UNL     1     -10.452   7.868  68.039  1.00  0.00     0.000 HD 
ENDROOT
BRANCH   5   7
HETATM    7  C   UNL     1      -8.848   9.121  68.321  1.00  0.00    -0.129 C  
BRANCH   7   8
HETATM    8  C   UNL     1      -9.658   9.662  69.514  1.00  0.00    -0.198 C  
HETATM    9  H   UNL     1      -9.414   9.826  71.463  1.00  0.00     0.000 HD 
HETATM   10  O   UNL     1      -8.914   9.492  70.727  1.00  0.00    -0.220 OA 
BRANCH   8  11
HETATM   11  C   UNL     1      -9.986  11.147  69.298  1.00  0.00    -0.007 C  
BRANCH  11  12
HETATM   12  O   UNL     1      -8.922  11.787  68.563  1.00  0.00    -0.180 OA 
BRANCH  12  13
HETATM   13  C   UNL     1      -9.330  12.857  67.799  1.00  0.00    -0.203 A  
HETATM   14  C   UNL     1      -9.330  14.168  68.290  1.00  0.00    -0.203 A  
HETATM   15  C   UNL     1      -9.701  15.230  67.474  1.00  0.00    -0.204 A  
HETATM   16  C   UNL     1     -10.082  14.992  66.159  1.00  0.00    -0.312 A  
HETATM   17  C   UNL     1     -10.126  13.685  65.656  1.00  0.00    -0.299 A  
HETATM   18  C   UNL     1      -9.796  12.596  66.496  1.00  0.00    -0.258 A  
HETATM   19  C   UNL     1      -9.893  11.174  65.984  1.00  0.00    -0.270 C  
HETATM   20  C   UNL     1     -10.683  11.047  64.675  1.00  0.00    -0.248 C  
HETATM   21  C   UNL     1     -10.248  12.115  63.660  1.00  0.00    -0.433 C  
HETATM   22  O   UNL     1     -10.511   9.742  64.118  1.00  0.00    -0.002 OA 
HETATM   23  H   UNL     1     -11.000   9.664  63.308  1.00  0.00     0.000 HD 
HETATM   24  O   UNL     1      -8.855  12.030  63.328  1.00  0.00    -0.399 OA 
HETATM   25  C   UNL     1     -10.564  13.503  64.217  1.00  0.00    -0.304 C  
HETATM   26  H   UNL     1      -8.585  12.691  62.700  1.00  0.00     0.000 HD 
ENDBRANCH  12  13
ENDBRANCH  11  12
ENDBRANCH   8  11
ENDBRANCH   7   8
ENDBRANCH   5   7
TORSDOF 5
ENDMDL
MODEL      293
REMARK 921   NORMALIZED FREE ENERGY PREDICTED BY IDOCK:   -3.04 KCAL/MOL
REMARK 922        TOTAL FREE ENERGY PREDICTED BY IDOCK:   -4.66 KCAL/MOL
REMARK 923 INTER-LIGAND FREE ENERGY PREDICTED BY IDOCK:   -3.77 KCAL/MOL
REMARK 924 INTRA-LIGAND FREE ENERGY PREDICTED BY IDOCK:   -0.89 KCAL/MOL
REMARK 927      BINDING AFFINITY PREDICTED BY RF-SCORE:    0.00 PKD
ROOT
HETATM    1  C   UNL     1     -12.951  10.841  72.074  1.00  0.00    -0.444 C  
HETATM    2  C   UNL     1     -12.596   9.740  71.057  1.00  0.00    -0.314 C  
HETATM    3  C   UNL     1     -12.447  10.393  69.670  1.00  0.00     0.022 C  
HETATM    4  C   UNL     1     -13.732   8.704  70.984  1.00  0.00     0.050 C  
HETATM    5  N   UNL     1     -11.310   9.088  71.366  1.00  0.00    -0.295 NA 
HETATM    6  H   UNL     1     -10.544   9.751  71.248  1.00  0.00     0.000 HD 
ENDROOT
BRANCH   5   7
HETATM    7  C   UNL     1     -11.230   8.456  72.688  1.00  0.00    -0.269 C  
BRANCH   7   8
HETATM    8  C   UNL     1     -10.455   7.126  72.630  1.00  0.00    -0.237 C  
HETATM    9  H   UNL     1     -10.464   5.411  73.603  1.00  0.00     0.000 HD 
HETATM   10  O   UNL     1     -10.942   6.232  73.639  1.00  0.00    -0.184 OA 
BRANCH   8  11
HETATM   11  C   UNL     1     -10.607   6.488  71.241  1.00  0.00    -0.227 C  
BRANCH  11  12
HETATM   12  O   UNL     1      -9.385   6.644  70.489  1.00  0.00    -0.164 OA 
BRANCH  12  13
HETATM   13  C   UNL     1      -9.556   6.609  69.124  1.00  0.00    -0.135 A  
HETATM   14  C   UNL     1     -10.387   5.671  68.499  1.00  0.00    -0.265 A  
HETATM   15  C   UNL     1     -10.575   5.698  67.122  1.00  0.00    -0.344 A  
HETATM   16  C   UNL     1      -9.930   6.659  66.354  1.00  0.00    -0.076 A  
HETATM   17  C   UNL     1      -9.064   7.585  66.951  1.00  0.00    -0.166 A  
HETATM   18  C   UNL     1      -8.832   7.533  68.346  1.00  0.00    -0.126 A  
HETATM   19  C   UNL     1      -7.856   8.490  68.998  1.00  0.00    -0.104 C  
HETATM   20  C   UNL     1      -6.947   9.214  67.997  1.00  0.00    -0.077 C  
HETATM   21  C   UNL     1      -7.756   9.760  66.810  1.00  0.00    -0.098 C  
HETATM   22  O   UNL     1      -6.248  10.279  68.645  1.00  0.00    -0.047 OA 
HETATM   23  H   UNL     1      -5.686  10.728  68.025  1.00  0.00     0.000 HD 
HETATM   24  O   UNL     1      -8.774  10.687  67.211  1.00  0.00    -0.129 OA 
HETATM   25  C   UNL     1      -8.387   8.595  66.048  1.00  0.00    -0.135 C  
HETATM   26  H   UNL     1      -9.274  11.024  66.476  1.00  0.00     0.000 HD 
ENDBRANCH  12  13
ENDBRANCH  11  12
ENDBRANCH   8  11
ENDBRANCH   7   8
ENDBRANCH   5   7
TORSDOF 5
ENDMDL
MODEL      294
REMARK 921   NORMALIZED FREE ENERGY PREDICTED BY IDOCK:   -3.04 KCAL/MOL
REMARK 922        TOTAL FREE ENERGY PREDICTED BY IDOCK:   -4.65 KCAL/MOL
REMARK 923 INTER-LIGAND FREE ENERGY PREDICTED BY IDOCK:   -3.91 KCAL/MOL
REMARK 924 INTRA-LIGAND FREE ENERGY PREDICTED BY IDOCK:   -0.74 KCAL/MOL
REMARK 927      BINDING AFFINITY PREDICTED BY RF-SCORE:    0.00 PKD
ROOT
HETATM    1  C   UNL     1     -13.098  10.982  72.182  1.00  0.00    -0.300 C  
HETATM    2  C   UNL     1     -12.865  10.048  70.981  1.00  0.00    -0.365 C  
HETATM    3  C   UNL     1     -12.626  10.917  69.732  1.00  0.00    -0.150 C  
HETATM    4  C   UNL     1     -14.115   9.183  70.735  1.00  0.00     0.334 C  
HETATM    5  N   UNL     1     -11.668   9.204  71.153  1.00  0.00    -0.294 NA 
HETATM    6  H   UNL     1     -10.828   9.782  71.147  1.00  0.00     0.000 HD 
ENDROOT
BRANCH   5   7
HETATM    7  C   UNL     1     -11.677   8.339  72.339  1.00  0.00    -0.397 C  
BRANCH   7   8
HETATM    8  C   UNL     1     -11.510   6.857  71.956  1.00  0.00    -0.274 C  
HETATM    9  H   UNL     1     -12.462   5.165  72.302  1.00  0.00     0.000 HD 
HETATM   10  O   UNL     1     -12.565   6.080  72.538  1.00  0.00    -0.066 OA 
BRANCH   8  11
HETATM   11  C   UNL     1     -11.522   6.703  70.428  1.00  0.00    -0.386 C  
BRANCH  11  12
HETATM   12  O   UNL     1     -10.179   6.499  69.941  1.00  0.00    -0.176 OA 
BRANCH  12  13
HETATM   13  C   UNL     1      -9.976   6.936  68.652  1.00  0.00    -0.149 A  
HETATM   14  C   UNL     1     -10.038   8.290  68.303  1.00  0.00    -0.231 A  
HETATM   15  C   UNL     1      -9.777   8.699  67.000  1.00  0.00    -0.262 A  
HETATM   16  C   UNL     1      -9.457   7.757  66.030  1.00  0.00    -0.058 A  
HETATM   17  C   UNL     1      -9.425   6.392  66.346  1.00  0.00    -0.169 A  
HETATM   18  C   UNL     1      -9.737   5.966  67.658  1.00  0.00    -0.122 A  
HETATM   19  C   UNL     1      -9.762   4.491  68.001  1.00  0.00    -0.192 C  
HETATM   20  C   UNL     1      -9.775   3.576  66.770  1.00  0.00    -0.013 C  
HETATM   21  C   UNL     1      -8.730   4.024  65.737  1.00  0.00    -0.119 C  
HETATM   22  O   UNL     1      -9.533   2.222  67.157  1.00  0.00    -0.378 OA 
HETATM   23  H   UNL     1      -9.541   1.656  66.394  1.00  0.00     0.000 HD 
HETATM   24  O   UNL     1      -7.394   4.018  66.260  1.00  0.00    -0.076 OA 
HETATM   25  C   UNL     1      -9.081   5.424  65.233  1.00  0.00    -0.062 C  
HETATM   26  H   UNL     1      -6.747   4.294  65.621  1.00  0.00     0.000 HD 
ENDBRANCH  12  13
ENDBRANCH  11  12
ENDBRANCH   8  11
ENDBRANCH   7   8
ENDBRANCH   5   7
TORSDOF 5
ENDMDL
MODEL      295
REMARK 921   NORMALIZED FREE ENERGY PREDICTED BY IDOCK:   -3.04 KCAL/MOL
REMARK 922        TOTAL FREE ENERGY PREDICTED BY IDOCK:   -4.65 KCAL/MOL
REMARK 923 INTER-LIGAND FREE ENERGY PREDICTED BY IDOCK:   -3.26 KCAL/MOL
REMARK 924 INTRA-LIGAND FREE ENERGY PREDICTED BY IDOCK:   -1.39 KCAL/MOL
REMARK 927      BINDING AFFINITY PREDICTED BY RF-SCORE:    0.00 PKD
ROOT
HETATM    1  C   UNL     1     -11.395  10.650  70.033  1.00  0.00    -0.400 C  
HETATM    2  C   UNL     1     -10.255   9.651  69.759  1.00  0.00    -0.237 C  
HETATM    3  C   UNL     1      -9.013  10.446  69.315  1.00  0.00    -0.176 C  
HETATM    4  C   UNL     1     -10.653   8.699  68.618  1.00  0.00    -0.165 C  
HETATM    5  N   UNL     1      -9.873   8.895  70.966  1.00  0.00    -0.228 NA 
HETATM    6  H   UNL     1      -9.455   9.521  71.654  1.00  0.00     0.000 HD 
ENDROOT
BRANCH   5   7
HETATM    7  C   UNL     1     -10.951   8.115  71.583  1.00  0.00    -0.250 C  
BRANCH   7   8
HETATM    8  C   UNL     1     -10.457   6.726  72.030  1.00  0.00    -0.202 C  
HETATM    9  H   UNL     1     -11.058   5.314  73.268  1.00  0.00     0.000 HD 
HETATM   10  O   UNL     1     -11.363   6.171  72.992  1.00  0.00    -0.218 OA 
BRANCH   8  11
HETATM   11  C   UNL     1     -10.338   5.793  70.816  1.00  0.00    -0.237 C  
BRANCH  11  12
HETATM   12  O   UNL     1      -8.971   5.361  70.655  1.00  0.00    -0.138 OA 
BRANCH  12  13
HETATM   13  C   UNL     1      -8.276   6.041  69.682  1.00  0.00    -0.115 A  
HETATM   14  C   UNL     1      -8.581   5.916  68.321  1.00  0.00    -0.113 A  
HETATM   15  C   UNL     1      -7.890   6.657  67.370  1.00  0.00    -0.113 A  
HETATM   16  C   UNL     1      -6.884   7.528  67.768  1.00  0.00    -0.071 A  
HETATM   17  C   UNL     1      -6.535   7.643  69.120  1.00  0.00    -0.040 A  
HETATM   18  C   UNL     1      -7.201   6.855  70.088  1.00  0.00    -0.076 A  
HETATM   19  C   UNL     1      -6.798   6.926  71.546  1.00  0.00    -0.065 C  
HETATM   20  C   UNL     1      -5.447   7.616  71.774  1.00  0.00    -0.035 C  
HETATM   21  C   UNL     1      -5.348   8.921  70.969  1.00  0.00    -0.030 C  
HETATM   22  O   UNL     1      -5.256   7.882  73.165  1.00  0.00    -0.040 OA 
HETATM   23  H   UNL     1      -4.420   8.309  73.307  1.00  0.00     0.000 HD 
HETATM   24  O   UNL     1      -6.373   9.864  71.313  1.00  0.00    -0.279 OA 
HETATM   25  C   UNL     1      -5.418   8.602  69.476  1.00  0.00    -0.030 C  
HETATM   26  H   UNL     1      -6.312  10.671  70.816  1.00  0.00     0.000 HD 
ENDBRANCH  12  13
ENDBRANCH  11  12
ENDBRANCH   8  11
ENDBRANCH   7   8
ENDBRANCH   5   7
TORSDOF 5
ENDMDL
MODEL      296
REMARK 921   NORMALIZED FREE ENERGY PREDICTED BY IDOCK:   -3.03 KCAL/MOL
REMARK 922        TOTAL FREE ENERGY PREDICTED BY IDOCK:   -4.64 KCAL/MOL
REMARK 923 INTER-LIGAND FREE ENERGY PREDICTED BY IDOCK:   -3.99 KCAL/MOL
REMARK 924 INTRA-LIGAND FREE ENERGY PREDICTED BY IDOCK:   -0.65 KCAL/MOL
REMARK 927      BINDING AFFINITY PREDICTED BY RF-SCORE:    0.00 PKD
ROOT
HETATM    1  C   UNL     1      -7.845   7.452  64.170  1.00  0.00    -0.120 C  
HETATM    2  C   UNL     1      -7.480   8.929  63.931  1.00  0.00    -0.112 C  
HETATM    3  C   UNL     1      -8.466   9.509  62.899  1.00  0.00    -0.192 C  
HETATM    4  C   UNL     1      -6.058   9.032  63.351  1.00  0.00    -0.088 C  
HETATM    5  N   UNL     1      -7.610   9.742  65.154  1.00  0.00    -0.119 NA 
HETATM    6  H   UNL     1      -8.588   9.801  65.433  1.00  0.00     0.000 HD 
ENDROOT
BRANCH   5   7
HETATM    7  C   UNL     1      -6.787   9.303  66.287  1.00  0.00    -0.082 C  
BRANCH   7   8
HETATM    8  C   UNL     1      -7.001  10.201  67.520  1.00  0.00    -0.085 C  
HETATM    9  H   UNL     1      -8.490  11.216  68.319  1.00  0.00     0.000 HD 
HETATM   10  O   UNL     1      -8.358  10.662  67.558  1.00  0.00    -0.115 OA 
BRANCH   8  11
HETATM   11  C   UNL     1      -6.670   9.423  68.802  1.00  0.00    -0.052 C  
BRANCH  11  12
HETATM   12  O   UNL     1      -6.742   8.004  68.553  1.00  0.00    -0.062 OA 
BRANCH  12  13
HETATM   13  C   UNL     1      -7.217   7.270  69.615  1.00  0.00    -0.079 A  
HETATM   14  C   UNL     1      -6.438   7.009  70.750  1.00  0.00    -0.047 A  
HETATM   15  C   UNL     1      -6.968   6.306  71.825  1.00  0.00    -0.076 A  
HETATM   16  C   UNL     1      -8.280   5.851  71.777  1.00  0.00    -0.119 A  
HETATM   17  C   UNL     1      -9.067   6.067  70.637  1.00  0.00    -0.157 A  
HETATM   18  C   UNL     1      -8.518   6.739  69.520  1.00  0.00    -0.133 A  
HETATM   19  C   UNL     1      -9.337   6.931  68.261  1.00  0.00    -0.125 C  
HETATM   20  C   UNL     1     -10.595   6.055  68.210  1.00  0.00    -0.261 C  
HETATM   21  C   UNL     1     -11.360   6.106  69.541  1.00  0.00    -0.356 C  
HETATM   22  O   UNL     1     -11.445   6.473  67.140  1.00  0.00    -0.768 OA 
HETATM   23  H   UNL     1     -12.224   5.930  67.108  1.00  0.00     0.000 HD 
HETATM   24  O   UNL     1     -11.777   7.433  69.891  1.00  0.00    -0.501 OA 
HETATM   25  C   UNL     1     -10.483   5.529  70.653  1.00  0.00    -0.342 C  
HETATM   26  H   UNL     1     -12.250   7.465  70.714  1.00  0.00     0.000 HD 
ENDBRANCH  12  13
ENDBRANCH  11  12
ENDBRANCH   8  11
ENDBRANCH   7   8
ENDBRANCH   5   7
TORSDOF 5
ENDMDL
MODEL      297
REMARK 921   NORMALIZED FREE ENERGY PREDICTED BY IDOCK:   -3.02 KCAL/MOL
REMARK 922        TOTAL FREE ENERGY PREDICTED BY IDOCK:   -4.62 KCAL/MOL
REMARK 923 INTER-LIGAND FREE ENERGY PREDICTED BY IDOCK:   -3.85 KCAL/MOL
REMARK 924 INTRA-LIGAND FREE ENERGY PREDICTED BY IDOCK:   -0.77 KCAL/MOL
REMARK 927      BINDING AFFINITY PREDICTED BY RF-SCORE:    0.00 PKD
ROOT
HETATM    1  C   UNL     1     -11.155   8.548  72.420  1.00  0.00    -0.397 C  
HETATM    2  C   UNL     1     -11.963   8.112  71.184  1.00  0.00    -0.273 C  
HETATM    3  C   UNL     1     -13.459   8.320  71.487  1.00  0.00    -0.320 C  
HETATM    4  C   UNL     1     -11.731   6.616  70.904  1.00  0.00    -0.431 C  
HETATM    5  N   UNL     1     -11.648   8.925  69.995  1.00  0.00    -0.457 NA 
HETATM    6  H   UNL     1     -11.962   9.885  70.134  1.00  0.00     0.000 HD 
ENDROOT
BRANCH   5   7
HETATM    7  C   UNL     1     -10.241   8.909  69.581  1.00  0.00    -0.206 C  
BRANCH   7   8
HETATM    8  C   UNL     1     -10.085   9.302  68.100  1.00  0.00    -0.187 C  
HETATM    9  H   UNL     1      -8.835  10.380  67.022  1.00  0.00     0.000 HD 
HETATM   10  O   UNL     1      -8.931  10.137  67.935  1.00  0.00    -0.127 OA 
BRANCH   8  11
HETATM   11  C   UNL     1      -9.954   8.042  67.231  1.00  0.00    -0.217 C  
BRANCH  11  12
HETATM   12  O   UNL     1      -9.571   6.916  68.047  1.00  0.00    -0.124 OA 
BRANCH  12  13
HETATM   13  C   UNL     1      -9.664   5.701  67.408  1.00  0.00    -0.127 A  
HETATM   14  C   UNL     1     -10.259   5.563  66.149  1.00  0.00    -0.136 A  
HETATM   15  C   UNL     1     -10.290   4.328  65.512  1.00  0.00    -0.210 A  
HETATM   16  C   UNL     1      -9.731   3.216  66.130  1.00  0.00     0.137 A  
HETATM   17  C   UNL     1      -9.163   3.321  67.406  1.00  0.00    -0.233 A  
HETATM   18  C   UNL     1      -9.171   4.565  68.080  1.00  0.00    -0.166 A  
HETATM   19  C   UNL     1      -8.612   4.682  69.482  1.00  0.00    -0.103 C  
HETATM   20  C   UNL     1      -8.394   3.329  70.170  1.00  0.00    -0.048 C  
HETATM   21  C   UNL     1      -7.691   2.337  69.230  1.00  0.00    -0.042 C  
HETATM   22  O   UNL     1      -7.629   3.498  71.365  1.00  0.00    -0.049 OA 
HETATM   23  H   UNL     1      -7.494   2.660  71.791  1.00  0.00     0.000 HD 
HETATM   24  O   UNL     1      -6.408   2.804  68.790  1.00  0.00    -0.028 OA 
HETATM   25  C   UNL     1      -8.585   2.063  68.021  1.00  0.00    -0.105 C  
HETATM   26  H   UNL     1      -5.973   2.191  68.209  1.00  0.00     0.000 HD 
ENDBRANCH  12  13
ENDBRANCH  11  12
ENDBRANCH   8  11
ENDBRANCH   7   8
ENDBRANCH   5   7
TORSDOF 5
ENDMDL
MODEL      298
REMARK 921   NORMALIZED FREE ENERGY PREDICTED BY IDOCK:   -3.00 KCAL/MOL
REMARK 922        TOTAL FREE ENERGY PREDICTED BY IDOCK:   -4.60 KCAL/MOL
REMARK 923 INTER-LIGAND FREE ENERGY PREDICTED BY IDOCK:   -3.93 KCAL/MOL
REMARK 924 INTRA-LIGAND FREE ENERGY PREDICTED BY IDOCK:   -0.67 KCAL/MOL
REMARK 927      BINDING AFFINITY PREDICTED BY RF-SCORE:    0.00 PKD
ROOT
HETATM    1  C   UNL     1     -10.900   8.999  70.702  1.00  0.00    -0.295 C  
HETATM    2  C   UNL     1     -10.637   9.919  69.496  1.00  0.00    -0.242 C  
HETATM    3  C   UNL     1     -11.751  10.981  69.447  1.00  0.00    -0.394 C  
HETATM    4  C   UNL     1     -10.689   9.104  68.191  1.00  0.00    -0.186 C  
HETATM    5  N   UNL     1      -9.358  10.643  69.613  1.00  0.00    -0.413 NA 
HETATM    6  H   UNL     1      -9.399  11.304  70.388  1.00  0.00     0.000 HD 
ENDROOT
BRANCH   5   7
HETATM    7  C   UNL     1      -8.167   9.793  69.738  1.00  0.00    -0.173 C  
BRANCH   7   8
HETATM    8  C   UNL     1      -6.909  10.505  69.207  1.00  0.00    -0.079 C  
HETATM    9  H   UNL     1      -5.353  11.442  69.974  1.00  0.00     0.000 HD 
HETATM   10  O   UNL     1      -6.130  11.002  70.302  1.00  0.00    -0.123 OA 
BRANCH   8  11
HETATM   11  C   UNL     1      -6.073   9.535  68.360  1.00  0.00    -0.044 C  
BRANCH  11  12
HETATM   12  O   UNL     1      -6.300   9.781  66.956  1.00  0.00    -0.063 OA 
BRANCH  12  13
HETATM   13  C   UNL     1      -6.731   8.679  66.254  1.00  0.00    -0.069 A  
HETATM   14  C   UNL     1      -6.617   7.379  66.761  1.00  0.00    -0.057 A  
HETATM   15  C   UNL     1      -7.109   6.294  66.045  1.00  0.00    -0.067 A  
HETATM   16  C   UNL     1      -7.717   6.496  64.812  1.00  0.00    -0.106 A  
HETATM   17  C   UNL     1      -7.809   7.784  64.267  1.00  0.00    -0.138 A  
HETATM   18  C   UNL     1      -7.267   8.886  64.968  1.00  0.00    -0.091 A  
HETATM   19  C   UNL     1      -7.309  10.275  64.367  1.00  0.00    -0.075 C  
HETATM   20  C   UNL     1      -7.646  10.285  62.871  1.00  0.00    -0.141 C  
HETATM   21  C   UNL     1      -8.840   9.367  62.566  1.00  0.00    -0.236 C  
HETATM   22  O   UNL     1      -7.927  11.616  62.435  1.00  0.00    -0.635 OA 
HETATM   23  H   UNL     1      -8.135  11.622  61.508  1.00  0.00     0.000 HD 
HETATM   24  O   UNL     1     -10.028   9.749  63.273  1.00  0.00    -0.401 OA 
HETATM   25  C   UNL     1      -8.473   7.924  62.912  1.00  0.00     0.096 C  
HETATM   26  H   UNL     1     -10.767   9.182  63.085  1.00  0.00     0.000 HD 
ENDBRANCH  12  13
ENDBRANCH  11  12
ENDBRANCH   8  11
ENDBRANCH   7   8
ENDBRANCH   5   7
TORSDOF 5
ENDMDL
MODEL      299
REMARK 921   NORMALIZED FREE ENERGY PREDICTED BY IDOCK:   -2.97 KCAL/MOL
REMARK 922        TOTAL FREE ENERGY PREDICTED BY IDOCK:   -4.57 KCAL/MOL
REMARK 923 INTER-LIGAND FREE ENERGY PREDICTED BY IDOCK:   -3.56 KCAL/MOL
REMARK 924 INTRA-LIGAND FREE ENERGY PREDICTED BY IDOCK:   -1.01 KCAL/MOL
REMARK 927      BINDING AFFINITY PREDICTED BY RF-SCORE:    0.00 PKD
ROOT
HETATM    1  C   UNL     1     -11.575   8.665  71.369  1.00  0.00    -0.354 C  
HETATM    2  C   UNL     1     -10.640   9.370  70.369  1.00  0.00    -0.261 C  
HETATM    3  C   UNL     1     -11.324  10.669  69.902  1.00  0.00    -0.386 C  
HETATM    4  C   UNL     1     -10.414   8.474  69.137  1.00  0.00    -0.217 C  
HETATM    5  N   UNL     1      -9.355   9.756  70.981  1.00  0.00    -0.311 NA 
HETATM    6  H   UNL     1      -9.506  10.477  71.686  1.00  0.00     0.000 HD 
ENDROOT
BRANCH   5   7
HETATM    7  C   UNL     1      -8.575   8.650  71.549  1.00  0.00    -0.195 C  
BRANCH   7   8
HETATM    8  C   UNL     1      -7.083   9.014  71.661  1.00  0.00     0.023 C  
HETATM    9  H   UNL     1      -5.776   9.296  73.109  1.00  0.00     0.000 HD 
HETATM   10  O   UNL     1      -6.697   9.072  73.040  1.00  0.00    -0.324 OA 
BRANCH   8  11
HETATM   11  C   UNL     1      -6.230   7.975  70.917  1.00  0.00    -0.033 C  
BRANCH  11  12
HETATM   12  O   UNL     1      -6.200   8.279  69.507  1.00  0.00    -0.033 OA 
BRANCH  12  13
HETATM   13  C   UNL     1      -6.893   7.385  68.723  1.00  0.00    -0.072 A  
HETATM   14  C   UNL     1      -7.195   6.089  69.157  1.00  0.00    -0.082 A  
HETATM   15  C   UNL     1      -7.940   5.230  68.359  1.00  0.00    -0.087 A  
HETATM   16  C   UNL     1      -8.388   5.655  67.114  1.00  0.00    -0.104 A  
HETATM   17  C   UNL     1      -8.066   6.935  66.641  1.00  0.00    -0.110 A  
HETATM   18  C   UNL     1      -7.267   7.796  67.429  1.00  0.00    -0.091 A  
HETATM   19  C   UNL     1      -6.863   9.160  66.908  1.00  0.00    -0.080 C  
HETATM   20  C   UNL     1      -7.093   9.332  65.402  1.00  0.00    -0.086 C  
HETATM   21  C   UNL     1      -8.483   8.823  64.991  1.00  0.00    -0.175 C  
HETATM   22  O   UNL     1      -6.945  10.705  65.032  1.00  0.00    -0.333 OA 
HETATM   23  H   UNL     1      -7.087  10.811  64.099  1.00  0.00     0.000 HD 
HETATM   24  O   UNL     1      -9.547   9.509  65.667  1.00  0.00    -0.245 OA 
HETATM   25  C   UNL     1      -8.577   7.323  65.269  1.00  0.00    -0.002 C  
HETATM   26  H   UNL     1     -10.407   9.195  65.413  1.00  0.00     0.000 HD 
ENDBRANCH  12  13
ENDBRANCH  11  12
ENDBRANCH   8  11
ENDBRANCH   7   8
ENDBRANCH   5   7
TORSDOF 5
ENDMDL
MODEL      300
REMARK 921   NORMALIZED FREE ENERGY PREDICTED BY IDOCK:   -2.96 KCAL/MOL
REMARK 922        TOTAL FREE ENERGY PREDICTED BY IDOCK:   -4.55 KCAL/MOL
REMARK 923 INTER-LIGAND FREE ENERGY PREDICTED BY IDOCK:   -3.81 KCAL/MOL
REMARK 924 INTRA-LIGAND FREE ENERGY PREDICTED BY IDOCK:   -0.73 KCAL/MOL
REMARK 927      BINDING AFFINITY PREDICTED BY RF-SCORE:    0.00 PKD
ROOT
HETATM    1  C   UNL     1      -9.202   1.950  65.322  1.00  0.00    -0.059 C  
HETATM    2  C   UNL     1      -9.045   3.416  64.880  1.00  0.00    -0.139 C  
HETATM    3  C   UNL     1     -10.319   3.831  64.120  1.00  0.00    -0.260 C  
HETATM    4  C   UNL     1      -7.846   3.552  63.923  1.00  0.00    -0.080 C  
HETATM    5  N   UNL     1      -8.909   4.335  66.025  1.00  0.00    -0.117 NA 
HETATM    6  H   UNL     1      -9.778   4.359  66.559  1.00  0.00     0.000 HD 
ENDROOT
BRANCH   5   7
HETATM    7  C   UNL     1      -7.776   4.061  66.917  1.00  0.00    -0.088 C  
BRANCH   7   8
HETATM    8  C   UNL     1      -8.251   3.534  68.284  1.00  0.00    -0.081 C  
HETATM    9  H   UNL     1      -7.539   2.360  69.699  1.00  0.00     0.000 HD 
HETATM   10  O   UNL     1      -7.247   2.685  68.856  1.00  0.00    -0.044 OA 
BRANCH   8  11
HETATM   11  C   UNL     1      -8.548   4.710  69.227  1.00  0.00    -0.082 C  
BRANCH  11  12
HETATM   12  O   UNL     1      -9.787   5.346  68.849  1.00  0.00    -0.142 OA 
BRANCH  12  13
HETATM   13  C   UNL     1     -10.022   6.543  69.486  1.00  0.00    -0.159 A  
HETATM   14  C   UNL     1     -10.281   6.620  70.859  1.00  0.00    -0.219 A  
HETATM   15  C   UNL     1     -10.464   7.851  71.477  1.00  0.00    -0.251 A  
HETATM   16  C   UNL     1     -10.396   9.019  70.727  1.00  0.00    -0.305 A  
HETATM   17  C   UNL     1     -10.176   8.966  69.344  1.00  0.00    -0.210 A  
HETATM   18  C   UNL     1     -10.037   7.713  68.702  1.00  0.00    -0.201 A  
HETATM   19  C   UNL     1      -9.855   7.636  67.200  1.00  0.00    -0.265 C  
HETATM   20  C   UNL     1     -10.185   8.947  66.476  1.00  0.00    -0.249 C  
HETATM   21  C   UNL     1      -9.544  10.149  67.186  1.00  0.00    -0.169 C  
HETATM   22  O   UNL     1      -9.744   8.886  65.118  1.00  0.00    -0.391 OA 
HETATM   23  H   UNL     1      -9.949   9.698  64.669  1.00  0.00     0.000 HD 
HETATM   24  O   UNL     1      -8.115  10.051  67.260  1.00  0.00    -0.113 OA 
HETATM   25  C   UNL     1     -10.128  10.279  68.592  1.00  0.00    -0.187 C  
HETATM   26  H   UNL     1      -7.717  10.795  67.699  1.00  0.00     0.000 HD 
ENDBRANCH  12  13
ENDBRANCH  11  12
ENDBRANCH   8  11
ENDBRANCH   7   8
ENDBRANCH   5   7
TORSDOF 5
ENDMDL
MODEL      301
REMARK 921   NORMALIZED FREE ENERGY PREDICTED BY IDOCK:   -2.93 KCAL/MOL
REMARK 922        TOTAL FREE ENERGY PREDICTED BY IDOCK:   -4.52 KCAL/MOL
REMARK 923 INTER-LIGAND FREE ENERGY PREDICTED BY IDOCK:   -4.26 KCAL/MOL
REMARK 924 INTRA-LIGAND FREE ENERGY PREDICTED BY IDOCK:   -0.26 KCAL/MOL
REMARK 927      BINDING AFFINITY PREDICTED BY RF-SCORE:    0.00 PKD
ROOT
HETATM    1  C   UNL     1     -12.853   6.736  71.228  1.00  0.00    -0.260 C  
HETATM    2  C   UNL     1     -12.518   8.177  71.654  1.00  0.00    -0.319 C  
HETATM    3  C   UNL     1     -13.837   8.964  71.772  1.00  0.00    -0.465 C  
HETATM    4  C   UNL     1     -11.646   8.854  70.582  1.00  0.00    -0.251 C  
HETATM    5  N   UNL     1     -11.865   8.232  72.975  1.00  0.00    -0.479 NA 
HETATM    6  H   UNL     1     -12.516   7.935  73.701  1.00  0.00     0.000 HD 
ENDROOT
BRANCH   5   7
HETATM    7  C   UNL     1     -10.610   7.479  73.084  1.00  0.00    -0.388 C  
BRANCH   7   8
HETATM    8  C   UNL     1      -9.386   8.394  72.895  1.00  0.00    -0.212 C  
HETATM    9  H   UNL     1      -7.812   8.931  73.955  1.00  0.00     0.000 HD 
HETATM   10  O   UNL     1      -8.568   8.366  74.072  1.00  0.00    -0.225 OA 
BRANCH   8  11
HETATM   11  C   UNL     1      -8.572   7.940  71.674  1.00  0.00    -0.120 C  
BRANCH  11  12
HETATM   12  O   UNL     1      -7.920   6.683  71.955  1.00  0.00    -0.101 OA 
BRANCH  12  13
HETATM   13  C   UNL     1      -8.054   5.745  70.958  1.00  0.00    -0.120 A  
HETATM   14  C   UNL     1      -7.563   5.954  69.664  1.00  0.00    -0.081 A  
HETATM   15  C   UNL     1      -7.673   4.963  68.695  1.00  0.00    -0.077 A  
HETATM   16  C   UNL     1      -8.280   3.753  69.009  1.00  0.00    -0.076 A  
HETATM   17  C   UNL     1      -8.813   3.534  70.287  1.00  0.00    -0.151 A  
HETATM   18  C   UNL     1      -8.747   4.557  71.261  1.00  0.00    -0.137 A  
HETATM   19  C   UNL     1      -9.368   4.356  72.628  1.00  0.00    -0.157 C  
HETATM   20  C   UNL     1     -10.322   3.157  72.697  1.00  0.00    -0.133 C  
HETATM   21  C   UNL     1      -9.701   1.917  72.035  1.00  0.00    -0.126 C  
HETATM   22  O   UNL     1     -10.659   2.870  74.056  1.00  0.00    -0.154 OA 
HETATM   23  H   UNL     1     -11.250   2.128  74.099  1.00  0.00     0.000 HD 
HETATM   24  O   UNL     1      -8.468   1.518  72.651  1.00  0.00    -0.052 OA 
HETATM   25  C   UNL     1      -9.472   2.195  70.550  1.00  0.00    -0.172 C  
HETATM   26  H   UNL     1      -8.084   0.751  72.242  1.00  0.00     0.000 HD 
ENDBRANCH  12  13
ENDBRANCH  11  12
ENDBRANCH   8  11
ENDBRANCH   7   8
ENDBRANCH   5   7
TORSDOF 5
ENDMDL
MODEL      302
REMARK 921   NORMALIZED FREE ENERGY PREDICTED BY IDOCK:   -2.92 KCAL/MOL
REMARK 922        TOTAL FREE ENERGY PREDICTED BY IDOCK:   -4.49 KCAL/MOL
REMARK 923 INTER-LIGAND FREE ENERGY PREDICTED BY IDOCK:   -3.62 KCAL/MOL
REMARK 924 INTRA-LIGAND FREE ENERGY PREDICTED BY IDOCK:   -0.87 KCAL/MOL
REMARK 927      BINDING AFFINITY PREDICTED BY RF-SCORE:    0.00 PKD
ROOT
HETATM    1  C   UNL     1      -7.838   7.816  64.085  1.00  0.00    -0.133 C  
HETATM    2  C   UNL     1      -6.904   8.988  63.732  1.00  0.00    -0.088 C  
HETATM    3  C   UNL     1      -7.747  10.094  63.069  1.00  0.00    -0.149 C  
HETATM    4  C   UNL     1      -5.835   8.526  62.726  1.00  0.00    -0.082 C  
HETATM    5  N   UNL     1      -6.278   9.584  64.928  1.00  0.00    -0.076 NA 
HETATM    6  H   UNL     1      -6.987  10.034  65.506  1.00  0.00     0.000 HD 
ENDROOT
BRANCH   5   7
HETATM    7  C   UNL     1      -5.476   8.661  65.739  1.00  0.00    -0.034 C  
BRANCH   7   8
HETATM    8  C   UNL     1      -5.280   9.194  67.171  1.00  0.00    -0.036 C  
HETATM    9  H   UNL     1      -5.268  10.953  68.062  1.00  0.00     0.000 HD 
HETATM   10  O   UNL     1      -5.388  10.624  67.178  1.00  0.00    -0.040 OA 
BRANCH   8  11
HETATM   11  C   UNL     1      -6.329   8.579  68.109  1.00  0.00    -0.056 C  
BRANCH  11  12
HETATM   12  O   UNL     1      -7.603   8.490  67.437  1.00  0.00    -0.095 OA 
BRANCH  12  13
HETATM   13  C   UNL     1      -8.468   7.574  67.991  1.00  0.00    -0.123 A  
HETATM   14  C   UNL     1      -8.378   6.203  67.720  1.00  0.00    -0.116 A  
HETATM   15  C   UNL     1      -9.237   5.301  68.336  1.00  0.00    -0.135 A  
HETATM   16  C   UNL     1     -10.200   5.761  69.227  1.00  0.00    -0.292 A  
HETATM   17  C   UNL     1     -10.334   7.131  69.486  1.00  0.00    -0.224 A  
HETATM   18  C   UNL     1      -9.494   8.058  68.825  1.00  0.00    -0.147 A  
HETATM   19  C   UNL     1      -9.664   9.546  69.051  1.00  0.00    -0.170 C  
HETATM   20  C   UNL     1     -10.986   9.914  69.736  1.00  0.00    -0.268 C  
HETATM   21  C   UNL     1     -11.259   9.000  70.940  1.00  0.00    -0.287 C  
HETATM   22  O   UNL     1     -10.963  11.281  70.153  1.00  0.00    -0.468 OA 
HETATM   23  H   UNL     1     -11.782  11.508  70.577  1.00  0.00     0.000 HD 
HETATM   24  O   UNL     1     -10.228   9.070  71.935  1.00  0.00    -0.343 OA 
HETATM   25  C   UNL     1     -11.415   7.558  70.458  1.00  0.00    -0.259 C  
HETATM   26  H   UNL     1     -10.397   8.505  72.680  1.00  0.00     0.000 HD 
ENDBRANCH  12  13
ENDBRANCH  11  12
ENDBRANCH   8  11
ENDBRANCH   7   8
ENDBRANCH   5   7
TORSDOF 5
ENDMDL
MODEL      303
REMARK 921   NORMALIZED FREE ENERGY PREDICTED BY IDOCK:   -2.89 KCAL/MOL
REMARK 922        TOTAL FREE ENERGY PREDICTED BY IDOCK:   -4.46 KCAL/MOL
REMARK 923 INTER-LIGAND FREE ENERGY PREDICTED BY IDOCK:   -4.00 KCAL/MOL
REMARK 924 INTRA-LIGAND FREE ENERGY PREDICTED BY IDOCK:   -0.47 KCAL/MOL
REMARK 927      BINDING AFFINITY PREDICTED BY RF-SCORE:    0.00 PKD
ROOT
HETATM    1  C   UNL     1     -11.186   9.568  67.812  1.00  0.00     0.147 C  
HETATM    2  C   UNL     1     -10.991  10.153  69.223  1.00  0.00    -0.240 C  
HETATM    3  C   UNL     1     -11.103  11.687  69.128  1.00  0.00    -0.302 C  
HETATM    4  C   UNL     1      -9.588   9.803  69.749  1.00  0.00    -0.256 C  
HETATM    5  N   UNL     1     -12.033   9.704  70.164  1.00  0.00    -0.464 NA 
HETATM    6  H   UNL     1     -12.939  10.085  69.892  1.00  0.00     0.000 HD 
ENDROOT
BRANCH   5   7
HETATM    7  C   UNL     1     -12.130   8.250  70.342  1.00  0.00     0.275 C  
BRANCH   7   8
HETATM    8  C   UNL     1     -12.935   7.890  71.605  1.00  0.00    -0.334 C  
HETATM    9  H   UNL     1     -14.833   7.842  72.137  1.00  0.00     0.000 HD 
HETATM   10  O   UNL     1     -14.336   8.064  71.358  1.00  0.00    -0.410 OA 
BRANCH   8  11
HETATM   11  C   UNL     1     -12.647   6.439  72.018  1.00  0.00    -0.089 C  
BRANCH  11  12
HETATM   12  O   UNL     1     -11.422   6.374  72.776  1.00  0.00    -0.229 OA 
BRANCH  12  13
HETATM   13  C   UNL     1     -10.777   5.161  72.701  1.00  0.00    -0.237 A  
HETATM   14  C   UNL     1     -11.027   4.124  73.608  1.00  0.00    -0.351 A  
HETATM   15  C   UNL     1     -10.394   2.895  73.471  1.00  0.00    -0.219 A  
HETATM   16  C   UNL     1      -9.498   2.690  72.428  1.00  0.00    -0.168 A  
HETATM   17  C   UNL     1      -9.203   3.724  71.530  1.00  0.00    -0.188 A  
HETATM   18  C   UNL     1      -9.808   4.992  71.693  1.00  0.00    -0.239 A  
HETATM   19  C   UNL     1      -9.456   6.136  70.765  1.00  0.00    -0.184 C  
HETATM   20  C   UNL     1      -8.194   5.882  69.930  1.00  0.00    -0.117 C  
HETATM   21  C   UNL     1      -8.214   4.475  69.312  1.00  0.00    -0.068 C  
HETATM   22  O   UNL     1      -8.074   6.868  68.903  1.00  0.00    -0.117 OA 
HETATM   23  H   UNL     1      -7.292   6.710  68.386  1.00  0.00     0.000 HD 
HETATM   24  O   UNL     1      -9.344   4.262  68.454  1.00  0.00    -0.133 OA 
HETATM   25  C   UNL     1      -8.206   3.430  70.427  1.00  0.00    -0.072 C  
HETATM   26  H   UNL     1      -9.356   3.393  68.071  1.00  0.00     0.000 HD 
ENDBRANCH  12  13
ENDBRANCH  11  12
ENDBRANCH   8  11
ENDBRANCH   7   8
ENDBRANCH   5   7
TORSDOF 5
ENDMDL
MODEL      304
REMARK 921   NORMALIZED FREE ENERGY PREDICTED BY IDOCK:   -2.89 KCAL/MOL
REMARK 922        TOTAL FREE ENERGY PREDICTED BY IDOCK:   -4.45 KCAL/MOL
REMARK 923 INTER-LIGAND FREE ENERGY PREDICTED BY IDOCK:   -3.84 KCAL/MOL
REMARK 924 INTRA-LIGAND FREE ENERGY PREDICTED BY IDOCK:   -0.61 KCAL/MOL
REMARK 927      BINDING AFFINITY PREDICTED BY RF-SCORE:    0.00 PKD
ROOT
HETATM    1  C   UNL     1     -11.183  13.100  66.451  1.00  0.00    -0.328 C  
HETATM    2  C   UNL     1     -10.814  14.399  67.191  1.00  0.00    -0.292 C  
HETATM    3  C   UNL     1     -11.804  14.588  68.356  1.00  0.00    -0.351 C  
HETATM    4  C   UNL     1     -10.951  15.603  66.242  1.00  0.00    -0.201 C  
HETATM    5  N   UNL     1      -9.463  14.344  67.779  1.00  0.00    -0.207 NA 
HETATM    6  H   UNL     1      -9.434  13.650  68.526  1.00  0.00     0.000 HD 
ENDROOT
BRANCH   5   7
HETATM    7  C   UNL     1      -8.375  14.103  66.825  1.00  0.00     0.086 C  
BRANCH   7   8
HETATM    8  C   UNL     1      -7.153  13.467  67.513  1.00  0.00    -0.144 C  
HETATM    9  H   UNL     1      -5.382  14.064  68.141  1.00  0.00     0.000 HD 
HETATM   10  O   UNL     1      -6.136  14.457  67.716  1.00  0.00    -0.181 OA 
BRANCH   8  11
HETATM   11  C   UNL     1      -7.567  12.851  68.858  1.00  0.00     0.054 C  
BRANCH  11  12
HETATM   12  O   UNL     1      -7.840  11.444  68.695  1.00  0.00    -0.128 OA 
BRANCH  12  13
HETATM   13  C   UNL     1      -7.318  10.650  69.691  1.00  0.00    -0.130 A  
HETATM   14  C   UNL     1      -6.043  10.867  70.227  1.00  0.00    -0.142 A  
HETATM   15  C   UNL     1      -5.569  10.076  71.267  1.00  0.00    -0.061 A  
HETATM   16  C   UNL     1      -6.362   9.056  71.778  1.00  0.00    -0.049 A  
HETATM   17  C   UNL     1      -7.626   8.795  71.233  1.00  0.00    -0.134 A  
HETATM   18  C   UNL     1      -8.095   9.565  70.143  1.00  0.00    -0.186 A  
HETATM   19  C   UNL     1      -9.434   9.260  69.506  1.00  0.00    -0.178 C  
HETATM   20  C   UNL     1     -10.006   7.894  69.908  1.00  0.00    -0.192 C  
HETATM   21  C   UNL     1      -9.899   7.675  71.425  1.00  0.00    -0.174 C  
HETATM   22  O   UNL     1     -11.368   7.786  69.491  1.00  0.00    -0.451 OA 
HETATM   23  H   UNL     1     -11.722   6.941  69.740  1.00  0.00     0.000 HD 
HETATM   24  O   UNL     1     -10.602   8.671  72.180  1.00  0.00    -0.321 OA 
HETATM   25  C   UNL     1      -8.427   7.658  71.833  1.00  0.00    -0.128 C  
HETATM   26  H   UNL     1     -10.537   8.536  73.118  1.00  0.00     0.000 HD 
ENDBRANCH  12  13
ENDBRANCH  11  12
ENDBRANCH   8  11
ENDBRANCH   7   8
ENDBRANCH   5   7
TORSDOF 5
ENDMDL
MODEL      305
REMARK 921   NORMALIZED FREE ENERGY PREDICTED BY IDOCK:   -2.88 KCAL/MOL
REMARK 922        TOTAL FREE ENERGY PREDICTED BY IDOCK:   -4.45 KCAL/MOL
REMARK 923 INTER-LIGAND FREE ENERGY PREDICTED BY IDOCK:   -3.84 KCAL/MOL
REMARK 924 INTRA-LIGAND FREE ENERGY PREDICTED BY IDOCK:   -0.61 KCAL/MOL
REMARK 927      BINDING AFFINITY PREDICTED BY RF-SCORE:    0.00 PKD
ROOT
HETATM    1  C   UNL     1     -11.905  11.650  67.719  1.00  0.00    -0.247 C  
HETATM    2  C   UNL     1     -11.506  12.295  69.059  1.00  0.00    -0.297 C  
HETATM    3  C   UNL     1     -11.722  11.257  70.177  1.00  0.00    -0.429 C  
HETATM    4  C   UNL     1     -12.405  13.510  69.348  1.00  0.00    -0.162 C  
HETATM    5  N   UNL     1     -10.082  12.674  69.095  1.00  0.00    -0.379 NA 
HETATM    6  H   UNL     1      -9.496  11.840  69.070  1.00  0.00     0.000 HD 
ENDROOT
BRANCH   5   7
HETATM    7  C   UNL     1      -9.660  13.618  68.053  1.00  0.00    -0.216 C  
BRANCH   7   8
HETATM    8  C   UNL     1      -8.459  13.076  67.255  1.00  0.00    -0.199 C  
HETATM    9  H   UNL     1      -6.882  11.950  67.617  1.00  0.00     0.000 HD 
HETATM   10  O   UNL     1      -7.623  12.284  68.109  1.00  0.00    -0.108 OA 
BRANCH   8  11
HETATM   11  C   UNL     1      -8.951  12.235  66.068  1.00  0.00     0.066 C  
BRANCH  11  12
HETATM   12  O   UNL     1      -9.259  10.895  66.506  1.00  0.00    -0.164 OA 
BRANCH  12  13
HETATM   13  C   UNL     1      -8.885   9.913  65.617  1.00  0.00    -0.158 A  
HETATM   14  C   UNL     1      -8.290  10.208  64.385  1.00  0.00    -0.171 A  
HETATM   15  C   UNL     1      -7.879   9.188  63.535  1.00  0.00    -0.132 A  
HETATM   16  C   UNL     1      -8.065   7.862  63.904  1.00  0.00    -0.082 A  
HETATM   17  C   UNL     1      -8.693   7.541  65.115  1.00  0.00     0.106 A  
HETATM   18  C   UNL     1      -9.156   8.575  65.963  1.00  0.00    -0.246 A  
HETATM   19  C   UNL     1      -9.887   8.245  67.248  1.00  0.00    -0.258 C  
HETATM   20  C   UNL     1     -10.354   6.786  67.329  1.00  0.00    -0.244 C  
HETATM   21  C   UNL     1      -9.234   5.822  66.907  1.00  0.00    -0.122 C  
HETATM   22  O   UNL     1     -10.791   6.480  68.655  1.00  0.00    -0.251 OA 
HETATM   23  H   UNL     1     -11.081   5.576  68.705  1.00  0.00     0.000 HD 
HETATM   24  O   UNL     1      -8.062   5.941  67.725  1.00  0.00    -0.104 OA 
HETATM   25  C   UNL     1      -8.872   6.073  65.444  1.00  0.00    -0.042 C  
HETATM   26  H   UNL     1      -7.370   5.345  67.465  1.00  0.00     0.000 HD 
ENDBRANCH  12  13
ENDBRANCH  11  12
ENDBRANCH   8  11
ENDBRANCH   7   8
ENDBRANCH   5   7
TORSDOF 5
ENDMDL
MODEL      306
REMARK 921   NORMALIZED FREE ENERGY PREDICTED BY IDOCK:   -2.88 KCAL/MOL
REMARK 922        TOTAL FREE ENERGY PREDICTED BY IDOCK:   -4.45 KCAL/MOL
REMARK 923 INTER-LIGAND FREE ENERGY PREDICTED BY IDOCK:   -4.22 KCAL/MOL
REMARK 924 INTRA-LIGAND FREE ENERGY PREDICTED BY IDOCK:   -0.23 KCAL/MOL
REMARK 927      BINDING AFFINITY PREDICTED BY RF-SCORE:    0.00 PKD
ROOT
HETATM    1  C   UNL     1      -9.013  11.339  65.033  1.00  0.00    -0.015 C  
HETATM    2  C   UNL     1     -10.001  11.574  66.190  1.00  0.00    -0.224 C  
HETATM    3  C   UNL     1     -11.423  11.654  65.603  1.00  0.00    -0.171 C  
HETATM    4  C   UNL     1      -9.690  12.912  66.885  1.00  0.00    -0.240 C  
HETATM    5  N   UNL     1      -9.999  10.464  67.161  1.00  0.00    -0.187 NA 
HETATM    6  H   UNL     1     -10.367   9.618  66.727  1.00  0.00     0.000 HD 
ENDROOT
BRANCH   5   7
HETATM    7  C   UNL     1      -8.702  10.185  67.790  1.00  0.00    -0.121 C  
BRANCH   7   8
HETATM    8  C   UNL     1      -8.710  10.557  69.284  1.00  0.00    -0.123 C  
HETATM    9  H   UNL     1     -10.051  10.718  70.721  1.00  0.00     0.000 HD 
HETATM   10  O   UNL     1     -10.046  10.488  69.798  1.00  0.00    -0.194 OA 
BRANCH   8  11
HETATM   11  C   UNL     1      -7.792   9.607  70.068  1.00  0.00    -0.165 C  
BRANCH  11  12
HETATM   12  O   UNL     1      -8.275   9.455  71.419  1.00  0.00    -0.302 OA 
BRANCH  12  13
HETATM   13  C   UNL     1      -8.052   8.210  71.960  1.00  0.00    -0.138 A  
HETATM   14  C   UNL     1      -6.871   7.893  72.642  1.00  0.00    -0.083 A  
HETATM   15  C   UNL     1      -6.701   6.640  73.219  1.00  0.00    -0.075 A  
HETATM   16  C   UNL     1      -7.707   5.688  73.116  1.00  0.00    -0.100 A  
HETATM   17  C   UNL     1      -8.883   5.968  72.406  1.00  0.00    -0.133 A  
HETATM   18  C   UNL     1      -9.041   7.224  71.776  1.00  0.00    -0.141 A  
HETATM   19  C   UNL     1     -10.281   7.523  70.957  1.00  0.00    -0.194 C  
HETATM   20  C   UNL     1     -11.102   6.274  70.614  1.00  0.00    -0.327 C  
HETATM   21  C   UNL     1     -11.291   5.379  71.848  1.00  0.00     0.013 C  
HETATM   22  O   UNL     1     -12.373   6.649  70.080  1.00  0.00    -0.561 OA 
HETATM   23  H   UNL     1     -12.882   5.876  69.867  1.00  0.00     0.000 HD 
HETATM   24  O   UNL     1     -11.964   6.050  72.922  1.00  0.00    -0.510 OA 
HETATM   25  C   UNL     1      -9.929   4.876  72.324  1.00  0.00    -0.232 C  
HETATM   26  H   UNL     1     -12.082   5.496  73.686  1.00  0.00     0.000 HD 
ENDBRANCH  12  13
ENDBRANCH  11  12
ENDBRANCH   8  11
ENDBRANCH   7   8
ENDBRANCH   5   7
TORSDOF 5
ENDMDL
MODEL      307
REMARK 921   NORMALIZED FREE ENERGY PREDICTED BY IDOCK:   -2.84 KCAL/MOL
REMARK 922        TOTAL FREE ENERGY PREDICTED BY IDOCK:   -4.39 KCAL/MOL
REMARK 923 INTER-LIGAND FREE ENERGY PREDICTED BY IDOCK:   -3.78 KCAL/MOL
REMARK 924 INTRA-LIGAND FREE ENERGY PREDICTED BY IDOCK:   -0.61 KCAL/MOL
REMARK 927      BINDING AFFINITY PREDICTED BY RF-SCORE:    0.00 PKD
ROOT
HETATM    1  C   UNL     1     -10.888   8.713  70.132  1.00  0.00    -0.242 C  
HETATM    2  C   UNL     1     -10.958   7.659  71.252  1.00  0.00    -0.238 C  
HETATM    3  C   UNL     1     -12.353   7.007  71.215  1.00  0.00    -0.426 C  
HETATM    4  C   UNL     1     -10.777   8.334  72.623  1.00  0.00    -0.384 C  
HETATM    5  N   UNL     1      -9.973   6.577  71.064  1.00  0.00    -0.183 NA 
HETATM    6  H   UNL     1     -10.206   6.032  70.234  1.00  0.00     0.000 HD 
ENDROOT
BRANCH   5   7
HETATM    7  C   UNL     1      -8.572   7.010  71.006  1.00  0.00    -0.134 C  
BRANCH   7   8
HETATM    8  C   UNL     1      -8.010   6.909  69.575  1.00  0.00    -0.125 C  
HETATM    9  H   UNL     1      -6.233   6.764  68.735  1.00  0.00     0.000 HD 
HETATM   10  O   UNL     1      -6.579   6.827  69.617  1.00  0.00    -0.045 OA 
BRANCH   8  11
HETATM   11  C   UNL     1      -8.590   5.675  68.868  1.00  0.00    -0.101 C  
BRANCH  11  12
HETATM   12  O   UNL     1      -9.459   6.085  67.791  1.00  0.00    -0.113 OA 
BRANCH  12  13
HETATM   13  C   UNL     1      -9.218   5.443  66.598  1.00  0.00    -0.132 A  
HETATM   14  C   UNL     1      -9.606   4.117  66.372  1.00  0.00    -0.215 A  
HETATM   15  C   UNL     1      -9.391   3.517  65.136  1.00  0.00    -0.156 A  
HETATM   16  C   UNL     1      -8.779   4.235  64.116  1.00  0.00    -0.127 A  
HETATM   17  C   UNL     1      -8.348   5.551  64.330  1.00  0.00    -0.107 A  
HETATM   18  C   UNL     1      -8.521   6.150  65.599  1.00  0.00    -0.151 A  
HETATM   19  C   UNL     1      -8.009   7.551  65.864  1.00  0.00    -0.117 C  
HETATM   20  C   UNL     1      -7.033   8.058  64.795  1.00  0.00    -0.070 C  
HETATM   21  C   UNL     1      -7.564   7.775  63.381  1.00  0.00    -0.123 C  
HETATM   22  O   UNL     1      -6.801   9.458  64.960  1.00  0.00    -0.083 OA 
HETATM   23  H   UNL     1      -6.197   9.772  64.298  1.00  0.00     0.000 HD 
HETATM   24  O   UNL     1      -8.832   8.396  63.130  1.00  0.00    -0.411 OA 
HETATM   25  C   UNL     1      -7.677   6.265  63.174  1.00  0.00    -0.098 C  
HETATM   26  H   UNL     1      -9.161   8.222  62.256  1.00  0.00     0.000 HD 
ENDBRANCH  12  13
ENDBRANCH  11  12
ENDBRANCH   8  11
ENDBRANCH   7   8
ENDBRANCH   5   7
TORSDOF 5
ENDMDL
MODEL      308
REMARK 921   NORMALIZED FREE ENERGY PREDICTED BY IDOCK:   -2.84 KCAL/MOL
REMARK 922        TOTAL FREE ENERGY PREDICTED BY IDOCK:   -4.39 KCAL/MOL
REMARK 923 INTER-LIGAND FREE ENERGY PREDICTED BY IDOCK:   -3.76 KCAL/MOL
REMARK 924 INTRA-LIGAND FREE ENERGY PREDICTED BY IDOCK:   -0.63 KCAL/MOL
REMARK 927      BINDING AFFINITY PREDICTED BY RF-SCORE:    0.00 PKD
ROOT
HETATM    1  C   UNL     1      -7.148  13.442  67.432  1.00  0.00    -0.108 C  
HETATM    2  C   UNL     1      -8.215  12.382  67.101  1.00  0.00    -0.176 C  
HETATM    3  C   UNL     1      -9.474  13.106  66.591  1.00  0.00    -0.260 C  
HETATM    4  C   UNL     1      -8.589  11.598  68.372  1.00  0.00    -0.156 C  
HETATM    5  N   UNL     1      -7.780  11.468  66.028  1.00  0.00    -0.367 NA 
HETATM    6  H   UNL     1      -7.696  11.976  65.148  1.00  0.00     0.000 HD 
ENDROOT
BRANCH   5   7
HETATM    7  C   UNL     1      -6.545  10.724  66.302  1.00  0.00    -0.132 C  
BRANCH   7   8
HETATM    8  C   UNL     1      -6.793   9.204  66.308  1.00  0.00    -0.082 C  
HETATM    9  H   UNL     1      -7.018   7.777  64.967  1.00  0.00     0.000 HD 
HETATM   10  O   UNL     1      -6.865   8.715  64.963  1.00  0.00    -0.071 OA 
BRANCH   8  11
HETATM   11  C   UNL     1      -5.667   8.490  67.071  1.00  0.00    -0.042 C  
BRANCH  11  12
HETATM   12  O   UNL     1      -6.114   7.191  67.511  1.00  0.00    -0.037 OA 
BRANCH  12  13
HETATM   13  C   UNL     1      -7.064   7.230  68.506  1.00  0.00    -0.085 A  
HETATM   14  C   UNL     1      -6.766   7.651  69.807  1.00  0.00    -0.039 A  
HETATM   15  C   UNL     1      -7.762   7.726  70.774  1.00  0.00    -0.084 A  
HETATM   16  C   UNL     1      -9.067   7.375  70.451  1.00  0.00    -0.157 A  
HETATM   17  C   UNL     1      -9.384   6.914  69.166  1.00  0.00    -0.140 A  
HETATM   18  C   UNL     1      -8.365   6.790  68.192  1.00  0.00    -0.118 A  
HETATM   19  C   UNL     1      -8.680   6.240  66.816  1.00  0.00    -0.117 C  
HETATM   20  C   UNL     1     -10.044   5.544  66.733  1.00  0.00    -0.207 C  
HETATM   21  C   UNL     1     -11.139   6.388  67.404  1.00  0.00    -0.322 C  
HETATM   22  O   UNL     1     -10.387   5.290  65.370  1.00  0.00    -0.396 OA 
HETATM   23  H   UNL     1     -11.232   4.858  65.318  1.00  0.00     0.000 HD 
HETATM   24  O   UNL     1     -11.284   7.684  66.807  1.00  0.00    -0.313 OA 
HETATM   25  C   UNL     1     -10.825   6.536  68.893  1.00  0.00    -0.354 C  
HETATM   26  H   UNL     1     -11.961   8.206  67.221  1.00  0.00     0.000 HD 
ENDBRANCH  12  13
ENDBRANCH  11  12
ENDBRANCH   8  11
ENDBRANCH   7   8
ENDBRANCH   5   7
TORSDOF 5
ENDMDL
MODEL      309
REMARK 921   NORMALIZED FREE ENERGY PREDICTED BY IDOCK:   -2.83 KCAL/MOL
REMARK 922        TOTAL FREE ENERGY PREDICTED BY IDOCK:   -4.38 KCAL/MOL
REMARK 923 INTER-LIGAND FREE ENERGY PREDICTED BY IDOCK:   -4.00 KCAL/MOL
REMARK 924 INTRA-LIGAND FREE ENERGY PREDICTED BY IDOCK:   -0.38 KCAL/MOL
REMARK 927      BINDING AFFINITY PREDICTED BY RF-SCORE:    0.00 PKD
ROOT
HETATM    1  C   UNL     1     -11.792  15.119  72.246  1.00  0.00    -0.493 C  
HETATM    2  C   UNL     1     -12.901  14.539  71.349  1.00  0.00    -0.336 C  
HETATM    3  C   UNL     1     -14.110  15.491  71.399  1.00  0.00    -0.440 C  
HETATM    4  C   UNL     1     -13.344  13.165  71.881  1.00  0.00    -0.546 C  
HETATM    5  N   UNL     1     -12.485  14.447  69.937  1.00  0.00    -0.479 NA 
HETATM    6  H   UNL     1     -12.355  15.380  69.548  1.00  0.00     0.000 HD 
ENDROOT
BRANCH   5   7
HETATM    7  C   UNL     1     -11.295  13.625  69.687  1.00  0.00    -0.161 C  
BRANCH   7   8
HETATM    8  C   UNL     1     -11.588  12.504  68.673  1.00  0.00    -0.314 C  
HETATM    9  H   UNL     1     -12.056  12.378  66.762  1.00  0.00     0.000 HD 
HETATM   10  O   UNL     1     -11.876  13.070  67.388  1.00  0.00    -0.358 OA 
BRANCH   8  11
HETATM   11  C   UNL     1     -10.384  11.555  68.575  1.00  0.00    -0.210 C  
BRANCH  11  12
HETATM   12  O   UNL     1     -10.198  10.861  69.826  1.00  0.00    -0.088 OA 
BRANCH  12  13
HETATM   13  C   UNL     1      -9.632   9.613  69.698  1.00  0.00    -0.208 A  
HETATM   14  C   UNL     1     -10.391   8.477  69.389  1.00  0.00    -0.218 A  
HETATM   15  C   UNL     1      -9.778   7.241  69.218  1.00  0.00    -0.161 A  
HETATM   16  C   UNL     1      -8.401   7.126  69.360  1.00  0.00    -0.133 A  
HETATM   17  C   UNL     1      -7.625   8.240  69.706  1.00  0.00    -0.092 A  
HETATM   18  C   UNL     1      -8.248   9.490  69.929  1.00  0.00    -0.169 A  
HETATM   19  C   UNL     1      -7.431  10.691  70.358  1.00  0.00     0.670 C  
HETATM   20  C   UNL     1      -6.022  10.329  70.844  1.00  0.00    -0.054 C  
HETATM   21  C   UNL     1      -5.341   9.341  69.884  1.00  0.00    -0.032 C  
HETATM   22  O   UNL     1      -5.227  11.509  70.979  1.00  0.00    -0.118 OA 
HETATM   23  H   UNL     1      -4.354  11.285  71.280  1.00  0.00     0.000 HD 
HETATM   24  O   UNL     1      -5.213   9.860  68.553  1.00  0.00    -0.033 OA 
HETATM   25  C   UNL     1      -6.132   8.034  69.857  1.00  0.00    -0.026 C  
HETATM   26  H   UNL     1      -4.792   9.250  67.959  1.00  0.00     0.000 HD 
ENDBRANCH  12  13
ENDBRANCH  11  12
ENDBRANCH   8  11
ENDBRANCH   7   8
ENDBRANCH   5   7
TORSDOF 5
ENDMDL
MODEL      310
REMARK 921   NORMALIZED FREE ENERGY PREDICTED BY IDOCK:   -2.83 KCAL/MOL
REMARK 922        TOTAL FREE ENERGY PREDICTED BY IDOCK:   -4.38 KCAL/MOL
REMARK 923 INTER-LIGAND FREE ENERGY PREDICTED BY IDOCK:   -3.55 KCAL/MOL
REMARK 924 INTRA-LIGAND FREE ENERGY PREDICTED BY IDOCK:   -0.83 KCAL/MOL
REMARK 927      BINDING AFFINITY PREDICTED BY RF-SCORE:    0.00 PKD
ROOT
HETATM    1  C   UNL     1      -9.518  15.553  68.380  1.00  0.00    -0.196 C  
HETATM    2  C   UNL     1      -9.226  14.205  67.695  1.00  0.00    -0.193 C  
HETATM    3  C   UNL     1      -9.668  14.306  66.223  1.00  0.00    -0.321 C  
HETATM    4  C   UNL     1     -10.040  13.086  68.368  1.00  0.00    -0.225 C  
HETATM    5  N   UNL     1      -7.788  13.880  67.691  1.00  0.00    -0.164 NA 
HETATM    6  H   UNL     1      -7.281  14.539  67.101  1.00  0.00     0.000 HD 
ENDROOT
BRANCH   5   7
HETATM    7  C   UNL     1      -7.161  13.802  69.015  1.00  0.00    -0.088 C  
BRANCH   7   8
HETATM    8  C   UNL     1      -6.167  12.628  69.099  1.00  0.00    -0.098 C  
HETATM    9  H   UNL     1      -4.558  12.177  70.145  1.00  0.00     0.000 HD 
HETATM   10  O   UNL     1      -5.171  12.902  70.093  1.00  0.00    -0.087 OA 
BRANCH   8  11
HETATM   11  C   UNL     1      -6.913  11.330  69.442  1.00  0.00    -0.109 C  
BRANCH  11  12
HETATM   12  O   UNL     1      -6.624  10.318  68.454  1.00  0.00    -0.056 OA 
BRANCH  12  13
HETATM   13  C   UNL     1      -7.711   9.943  67.698  1.00  0.00    -0.091 A  
HETATM   14  C   UNL     1      -8.087  10.631  66.538  1.00  0.00    -0.140 A  
HETATM   15  C   UNL     1      -9.160  10.194  65.772  1.00  0.00    -0.206 A  
HETATM   16  C   UNL     1      -9.874   9.066  66.160  1.00  0.00    -0.349 A  
HETATM   17  C   UNL     1      -9.541   8.383  67.337  1.00  0.00    -0.202 A  
HETATM   18  C   UNL     1      -8.480   8.852  68.146  1.00  0.00    -0.129 A  
HETATM   19  C   UNL     1      -8.144   8.158  69.450  1.00  0.00    -0.116 C  
HETATM   20  C   UNL     1      -9.237   7.196  69.931  1.00  0.00    -0.141 C  
HETATM   21  C   UNL     1      -9.732   6.302  68.783  1.00  0.00    -0.128 C  
HETATM   22  O   UNL     1      -8.750   6.390  71.005  1.00  0.00    -0.134 OA 
HETATM   23  H   UNL     1      -9.427   5.794  71.303  1.00  0.00     0.000 HD 
HETATM   24  O   UNL     1      -8.685   5.506  68.209  1.00  0.00    -0.100 OA 
HETATM   25  C   UNL     1     -10.373   7.171  67.702  1.00  0.00    -0.276 C  
HETATM   26  H   UNL     1      -8.990   4.953  67.500  1.00  0.00     0.000 HD 
ENDBRANCH  12  13
ENDBRANCH  11  12
ENDBRANCH   8  11
ENDBRANCH   7   8
ENDBRANCH   5   7
TORSDOF 5
ENDMDL
MODEL      311
REMARK 921   NORMALIZED FREE ENERGY PREDICTED BY IDOCK:   -2.83 KCAL/MOL
REMARK 922        TOTAL FREE ENERGY PREDICTED BY IDOCK:   -4.38 KCAL/MOL
REMARK 923 INTER-LIGAND FREE ENERGY PREDICTED BY IDOCK:   -3.68 KCAL/MOL
REMARK 924 INTRA-LIGAND FREE ENERGY PREDICTED BY IDOCK:   -0.69 KCAL/MOL
REMARK 927      BINDING AFFINITY PREDICTED BY RF-SCORE:    0.00 PKD
ROOT
HETATM    1  C   UNL     1     -11.699  11.825  69.876  1.00  0.00    -0.399 C  
HETATM    2  C   UNL     1     -11.200  10.417  69.500  1.00  0.00    -0.269 C  
HETATM    3  C   UNL     1     -11.905   9.396  70.412  1.00  0.00    -0.140 C  
HETATM    4  C   UNL     1      -9.684  10.315  69.742  1.00  0.00    -0.183 C  
HETATM    5  N   UNL     1     -11.536  10.057  68.111  1.00  0.00    -0.636 NA 
HETATM    6  H   UNL     1     -12.547   9.966  68.007  1.00  0.00     0.000 HD 
ENDROOT
BRANCH   5   7
HETATM    7  C   UNL     1     -11.003  10.959  67.084  1.00  0.00    -0.272 C  
BRANCH   7   8
HETATM    8  C   UNL     1     -10.234  10.184  65.997  1.00  0.00    -0.218 C  
HETATM    9  H   UNL     1      -8.448  10.262  65.166  1.00  0.00     0.000 HD 
HETATM   10  O   UNL     1      -8.923  10.740  65.836  1.00  0.00    -0.171 OA 
BRANCH   8  11
HETATM   11  C   UNL     1     -10.136   8.700  66.379  1.00  0.00    -0.224 C  
BRANCH  11  12
HETATM   12  O   UNL     1      -8.790   8.224  66.174  1.00  0.00    -0.149 OA 
BRANCH  12  13
HETATM   13  C   UNL     1      -8.503   7.048  66.827  1.00  0.00    -0.118 A  
HETATM   14  C   UNL     1      -8.705   6.889  68.203  1.00  0.00    -0.126 A  
HETATM   15  C   UNL     1      -8.452   5.670  68.820  1.00  0.00    -0.102 A  
HETATM   16  C   UNL     1      -7.987   4.597  68.069  1.00  0.00    -0.085 A  
HETATM   17  C   UNL     1      -7.741   4.742  66.697  1.00  0.00    -0.095 A  
HETATM   18  C   UNL     1      -7.952   5.993  66.073  1.00  0.00    -0.109 A  
HETATM   19  C   UNL     1      -7.637   6.181  64.603  1.00  0.00    -0.093 C  
HETATM   20  C   UNL     1      -6.783   5.053  64.011  1.00  0.00    -0.046 C  
HETATM   21  C   UNL     1      -7.320   3.675  64.429  1.00  0.00    -0.067 C  
HETATM   22  O   UNL     1      -6.749   5.154  62.586  1.00  0.00    -0.025 OA 
HETATM   23  H   UNL     1      -6.220   4.456  62.220  1.00  0.00     0.000 HD 
HETATM   24  O   UNL     1      -8.672   3.455  64.005  1.00  0.00    -0.090 OA 
HETATM   25  C   UNL     1      -7.223   3.532  65.948  1.00  0.00    -0.068 C  
HETATM   26  H   UNL     1      -9.004   2.603  64.263  1.00  0.00     0.000 HD 
ENDBRANCH  12  13
ENDBRANCH  11  12
ENDBRANCH   8  11
ENDBRANCH   7   8
ENDBRANCH   5   7
TORSDOF 5
ENDMDL
MODEL      312
REMARK 921   NORMALIZED FREE ENERGY PREDICTED BY IDOCK:   -2.82 KCAL/MOL
REMARK 922        TOTAL FREE ENERGY PREDICTED BY IDOCK:   -4.37 KCAL/MOL
REMARK 923 INTER-LIGAND FREE ENERGY PREDICTED BY IDOCK:   -3.77 KCAL/MOL
REMARK 924 INTRA-LIGAND FREE ENERGY PREDICTED BY IDOCK:   -0.60 KCAL/MOL
REMARK 927      BINDING AFFINITY PREDICTED BY RF-SCORE:    0.00 PKD
ROOT
HETATM    1  C   UNL     1      -7.765   7.862  64.253  1.00  0.00    -0.128 C  
HETATM    2  C   UNL     1      -7.264   9.197  63.674  1.00  0.00    -0.093 C  
HETATM    3  C   UNL     1      -8.412   9.838  62.872  1.00  0.00    -0.177 C  
HETATM    4  C   UNL     1      -6.087   8.946  62.714  1.00  0.00    -0.090 C  
HETATM    5  N   UNL     1      -6.887  10.158  64.727  1.00  0.00    -0.142 NA 
HETATM    6  H   UNL     1      -7.713  10.444  65.252  1.00  0.00     0.000 HD 
ENDROOT
BRANCH   5   7
HETATM    7  C   UNL     1      -5.838   9.699  65.646  1.00  0.00    -0.060 C  
BRANCH   7   8
HETATM    8  C   UNL     1      -5.661  10.671  66.828  1.00  0.00    -0.060 C  
HETATM    9  H   UNL     1      -5.721  12.622  67.108  1.00  0.00     0.000 HD 
HETATM   10  O   UNL     1      -5.831  12.022  66.379  1.00  0.00    -0.183 OA 
BRANCH   8  11
HETATM   11  C   UNL     1      -6.678  10.349  67.933  1.00  0.00    -0.066 C  
BRANCH  11  12
HETATM   12  O   UNL     1      -7.930   9.937  67.347  1.00  0.00    -0.105 OA 
BRANCH  12  13
HETATM   13  C   UNL     1      -9.038  10.295  68.080  1.00  0.00    -0.136 A  
HETATM   14  C   UNL     1      -9.709  11.507  67.878  1.00  0.00    -0.187 A  
HETATM   15  C   UNL     1     -10.855  11.812  68.603  1.00  0.00    -0.259 A  
HETATM   16  C   UNL     1     -11.340  10.911  69.542  1.00  0.00    -0.351 A  
HETATM   17  C   UNL     1     -10.666   9.708  69.790  1.00  0.00    -0.269 A  
HETATM   18  C   UNL     1      -9.472   9.413  69.090  1.00  0.00    -0.163 A  
HETATM   19  C   UNL     1      -8.701   8.144  69.387  1.00  0.00    -0.143 C  
HETATM   20  C   UNL     1      -9.132   7.457  70.689  1.00  0.00    -0.156 C  
HETATM   21  C   UNL     1     -10.662   7.371  70.790  1.00  0.00    -0.232 C  
HETATM   22  O   UNL     1      -8.561   6.149  70.769  1.00  0.00    -0.132 OA 
HETATM   23  H   UNL     1      -8.828   5.723  71.576  1.00  0.00     0.000 HD 
HETATM   24  O   UNL     1     -11.250   6.639  69.706  1.00  0.00    -0.315 OA 
HETATM   25  C   UNL     1     -11.247   8.782  70.839  1.00  0.00    -0.320 C  
HETATM   26  H   UNL     1     -12.197   6.585  69.768  1.00  0.00     0.000 HD 
ENDBRANCH  12  13
ENDBRANCH  11  12
ENDBRANCH   8  11
ENDBRANCH   7   8
ENDBRANCH   5   7
TORSDOF 5
ENDMDL
MODEL      313
REMARK 921   NORMALIZED FREE ENERGY PREDICTED BY IDOCK:   -2.81 KCAL/MOL
REMARK 922        TOTAL FREE ENERGY PREDICTED BY IDOCK:   -4.36 KCAL/MOL
REMARK 923 INTER-LIGAND FREE ENERGY PREDICTED BY IDOCK:   -3.92 KCAL/MOL
REMARK 924 INTRA-LIGAND FREE ENERGY PREDICTED BY IDOCK:   -0.44 KCAL/MOL
REMARK 927      BINDING AFFINITY PREDICTED BY RF-SCORE:    0.00 PKD
ROOT
HETATM    1  C   UNL     1      -8.213  15.967  68.365  1.00  0.00    -0.161 C  
HETATM    2  C   UNL     1      -9.700  16.305  68.152  1.00  0.00    -0.227 C  
HETATM    3  C   UNL     1      -9.802  17.343  67.019  1.00  0.00    -0.286 C  
HETATM    4  C   UNL     1     -10.287  16.927  69.432  1.00  0.00    -0.250 C  
HETATM    5  N   UNL     1     -10.486  15.130  67.730  1.00  0.00    -0.244 NA 
HETATM    6  H   UNL     1     -10.194  14.829  66.801  1.00  0.00     0.000 HD 
ENDROOT
BRANCH   5   7
HETATM    7  C   UNL     1     -10.461  13.994  68.659  1.00  0.00    -0.247 C  
BRANCH   7   8
HETATM    8  C   UNL     1     -10.204  12.668  67.920  1.00  0.00    -0.220 C  
HETATM    9  H   UNL     1     -11.269  11.357  66.904  1.00  0.00     0.000 HD 
HETATM   10  O   UNL     1     -11.428  12.175  67.360  1.00  0.00    -0.305 OA 
BRANCH   8  11
HETATM   11  C   UNL     1      -9.162  12.877  66.810  1.00  0.00    -0.230 C  
BRANCH  11  12
HETATM   12  O   UNL     1      -8.611  11.607  66.404  1.00  0.00    -0.185 OA 
BRANCH  12  13
HETATM   13  C   UNL     1      -8.865  11.277  65.092  1.00  0.00     0.029 A  
HETATM   14  C   UNL     1      -9.865  11.909  64.343  1.00  0.00    -0.203 A  
HETATM   15  C   UNL     1     -10.060  11.585  63.006  1.00  0.00    -0.330 A  
HETATM   16  C   UNL     1      -9.261  10.621  62.404  1.00  0.00    -0.300 A  
HETATM   17  C   UNL     1      -8.279   9.946  63.143  1.00  0.00    -0.155 A  
HETATM   18  C   UNL     1      -8.109  10.238  64.516  1.00  0.00    -0.150 A  
HETATM   19  C   UNL     1      -7.091   9.478  65.342  1.00  0.00    -0.095 C  
HETATM   20  C   UNL     1      -6.574   8.207  64.657  1.00  0.00    -0.064 C  
HETATM   21  C   UNL     1      -6.205   8.479  63.191  1.00  0.00    -0.086 C  
HETATM   22  O   UNL     1      -5.441   7.693  65.360  1.00  0.00    -0.032 OA 
HETATM   23  H   UNL     1      -5.121   6.905  64.936  1.00  0.00     0.000 HD 
HETATM   24  O   UNL     1      -5.190   9.482  63.050  1.00  0.00    -0.072 OA 
HETATM   25  C   UNL     1      -7.458   8.898  62.422  1.00  0.00    -0.103 C  
HETATM   26  H   UNL     1      -4.961   9.650  62.143  1.00  0.00     0.000 HD 
ENDBRANCH  12  13
ENDBRANCH  11  12
ENDBRANCH   8  11
ENDBRANCH   7   8
ENDBRANCH   5   7
TORSDOF 5
ENDMDL
MODEL      314
REMARK 921   NORMALIZED FREE ENERGY PREDICTED BY IDOCK:   -2.80 KCAL/MOL
REMARK 922        TOTAL FREE ENERGY PREDICTED BY IDOCK:   -4.34 KCAL/MOL
REMARK 923 INTER-LIGAND FREE ENERGY PREDICTED BY IDOCK:   -3.71 KCAL/MOL
REMARK 924 INTRA-LIGAND FREE ENERGY PREDICTED BY IDOCK:   -0.64 KCAL/MOL
REMARK 927      BINDING AFFINITY PREDICTED BY RF-SCORE:    0.00 PKD
ROOT
HETATM    1  C   UNL     1      -9.000   4.895  69.830  1.00  0.00    -0.138 C  
HETATM    2  C   UNL     1      -9.486   5.880  68.751  1.00  0.00    -0.126 C  
HETATM    3  C   UNL     1     -10.759   6.575  69.271  1.00  0.00    -0.329 C  
HETATM    4  C   UNL     1      -9.845   5.116  67.464  1.00  0.00    -0.193 C  
HETATM    5  N   UNL     1      -8.499   6.940  68.476  1.00  0.00    -0.123 NA 
HETATM    6  H   UNL     1      -8.395   7.543  69.292  1.00  0.00     0.000 HD 
ENDROOT
BRANCH   5   7
HETATM    7  C   UNL     1      -7.184   6.468  68.026  1.00  0.00    -0.088 C  
BRANCH   7   8
HETATM    8  C   UNL     1      -6.596   7.391  66.942  1.00  0.00    -0.057 C  
HETATM    9  H   UNL     1      -5.187   7.280  65.568  1.00  0.00     0.000 HD 
HETATM   10  O   UNL     1      -5.549   6.710  66.237  1.00  0.00    -0.017 OA 
BRANCH   8  11
HETATM   11  C   UNL     1      -7.698   7.824  65.964  1.00  0.00    -0.093 C  
BRANCH  11  12
HETATM   12  O   UNL     1      -7.538   9.216  65.623  1.00  0.00    -0.092 OA 
BRANCH  12  13
HETATM   13  C   UNL     1      -8.625   9.767  64.983  1.00  0.00    -0.162 A  
HETATM   14  C   UNL     1      -8.925   9.486  63.645  1.00  0.00    -0.207 A  
HETATM   15  C   UNL     1     -10.059  10.021  63.046  1.00  0.00     0.741 A  
HETATM   16  C   UNL     1     -10.903  10.849  63.777  1.00  0.00    -0.027 A  
HETATM   17  C   UNL     1     -10.604  11.175  65.106  1.00  0.00    -0.319 A  
HETATM   18  C   UNL     1      -9.425  10.672  65.706  1.00  0.00    -0.244 A  
HETATM   19  C   UNL     1      -9.059  11.061  67.124  1.00  0.00    -0.151 C  
HETATM   20  C   UNL     1      -9.855  12.259  67.655  1.00  0.00    -0.196 C  
HETATM   21  C   UNL     1     -11.353  12.108  67.349  1.00  0.00    -0.326 C  
HETATM   22  O   UNL     1      -9.654  12.402  69.062  1.00  0.00    -0.397 OA 
HETATM   23  H   UNL     1     -10.147  13.144  69.391  1.00  0.00     0.000 HD 
HETATM   24  O   UNL     1     -11.922  10.926  67.930  1.00  0.00    -0.735 OA 
HETATM   25  C   UNL     1     -11.563  12.093  65.835  1.00  0.00    -0.425 C  
HETATM   26  H   UNL     1     -12.848  10.833  67.741  1.00  0.00     0.000 HD 
ENDBRANCH  12  13
ENDBRANCH  11  12
ENDBRANCH   8  11
ENDBRANCH   7   8
ENDBRANCH   5   7
TORSDOF 5
ENDMDL
MODEL      315
REMARK 921   NORMALIZED FREE ENERGY PREDICTED BY IDOCK:   -2.78 KCAL/MOL
REMARK 922        TOTAL FREE ENERGY PREDICTED BY IDOCK:   -4.32 KCAL/MOL
REMARK 923 INTER-LIGAND FREE ENERGY PREDICTED BY IDOCK:   -3.60 KCAL/MOL
REMARK 924 INTRA-LIGAND FREE ENERGY PREDICTED BY IDOCK:   -0.72 KCAL/MOL
REMARK 927      BINDING AFFINITY PREDICTED BY RF-SCORE:    0.00 PKD
ROOT
HETATM    1  C   UNL     1      -9.709   8.782  66.458  1.00  0.00    -0.328 C  
HETATM    2  C   UNL     1      -8.224   8.744  66.862  1.00  0.00    -0.108 C  
HETATM    3  C   UNL     1      -8.013   9.738  68.020  1.00  0.00    -0.097 C  
HETATM    4  C   UNL     1      -7.345   9.187  65.679  1.00  0.00    -0.086 C  
HETATM    5  N   UNL     1      -7.812   7.416  67.355  1.00  0.00    -0.110 NA 
HETATM    6  H   UNL     1      -8.284   7.207  68.234  1.00  0.00     0.000 HD 
ENDROOT
BRANCH   5   7
HETATM    7  C   UNL     1      -7.999   6.312  66.407  1.00  0.00    -0.109 C  
BRANCH   7   8
HETATM    8  C   UNL     1      -8.944   5.236  66.975  1.00  0.00    -0.112 C  
HETATM    9  H   UNL     1      -9.723   3.534  66.357  1.00  0.00     0.000 HD 
HETATM   10  O   UNL     1      -9.140   4.198  66.006  1.00  0.00    -0.124 OA 
BRANCH   8  11
HETATM   11  C   UNL     1      -8.357   4.649  68.268  1.00  0.00    -0.090 C  
BRANCH  11  12
HETATM   12  O   UNL     1      -9.133   5.083  69.404  1.00  0.00    -0.097 OA 
BRANCH  12  13
HETATM   13  C   UNL     1      -8.377   5.438  70.498  1.00  0.00    -0.111 A  
HETATM   14  C   UNL     1      -7.002   5.686  70.408  1.00  0.00    -0.058 A  
HETATM   15  C   UNL     1      -6.281   6.092  71.525  1.00  0.00    -0.044 A  
HETATM   16  C   UNL     1      -6.926   6.250  72.745  1.00  0.00    -0.075 A  
HETATM   17  C   UNL     1      -8.294   5.972  72.869  1.00  0.00    -0.117 A  
HETATM   18  C   UNL     1      -9.023   5.512  71.748  1.00  0.00    -0.144 A  
HETATM   19  C   UNL     1     -10.489   5.154  71.879  1.00  0.00    -0.272 C  
HETATM   20  C   UNL     1     -10.955   5.006  73.332  1.00  0.00    -0.327 C  
HETATM   21  C   UNL     1     -10.452   6.172  74.197  1.00  0.00    -0.231 C  
HETATM   22  O   UNL     1     -12.381   4.932  73.390  1.00  0.00    -0.271 OA 
HETATM   23  H   UNL     1     -12.670   4.840  74.290  1.00  0.00     0.000 HD 
HETATM   24  O   UNL     1     -10.912   7.448  73.729  1.00  0.00    -0.548 OA 
HETATM   25  C   UNL     1      -8.924   6.154  74.235  1.00  0.00    -0.139 C  
HETATM   26  H   UNL     1     -10.601   8.170  74.263  1.00  0.00     0.000 HD 
ENDBRANCH  12  13
ENDBRANCH  11  12
ENDBRANCH   8  11
ENDBRANCH   7   8
ENDBRANCH   5   7
TORSDOF 5
ENDMDL
MODEL      316
REMARK 921   NORMALIZED FREE ENERGY PREDICTED BY IDOCK:   -2.69 KCAL/MOL
REMARK 922        TOTAL FREE ENERGY PREDICTED BY IDOCK:   -4.21 KCAL/MOL
REMARK 923 INTER-LIGAND FREE ENERGY PREDICTED BY IDOCK:   -3.57 KCAL/MOL
REMARK 924 INTRA-LIGAND FREE ENERGY PREDICTED BY IDOCK:   -0.64 KCAL/MOL
REMARK 927      BINDING AFFINITY PREDICTED BY RF-SCORE:    0.00 PKD
ROOT
HETATM    1  C   UNL     1     -10.336  10.036  66.843  1.00  0.00    -0.297 C  
HETATM    2  C   UNL     1     -10.611  11.118  67.904  1.00  0.00    -0.198 C  
HETATM    3  C   UNL     1     -11.242  12.334  67.201  1.00  0.00    -0.365 C  
HETATM    4  C   UNL     1      -9.290  11.567  68.554  1.00  0.00    -0.171 C  
HETATM    5  N   UNL     1     -11.573  10.666  68.926  1.00  0.00    -0.420 NA 
HETATM    6  H   UNL     1     -12.492  10.531  68.507  1.00  0.00     0.000 HD 
ENDROOT
BRANCH   5   7
HETATM    7  C   UNL     1     -11.176   9.465  69.671  1.00  0.00    -0.074 C  
BRANCH   7   8
HETATM    8  C   UNL     1     -10.732   9.812  71.104  1.00  0.00    -0.214 C  
HETATM    9  H   UNL     1     -11.600  10.364  72.786  1.00  0.00     0.000 HD 
HETATM   10  O   UNL     1     -11.875  10.150  71.901  1.00  0.00    -0.170 OA 
BRANCH   8  11
HETATM   11  C   UNL     1      -9.985   8.623  71.726  1.00  0.00    -0.301 C  
BRANCH  11  12
HETATM   12  O   UNL     1      -8.818   8.305  70.940  1.00  0.00    -0.137 OA 
BRANCH  12  13
HETATM   13  C   UNL     1      -8.541   6.960  70.863  1.00  0.00    -0.136 A  
HETATM   14  C   UNL     1      -8.614   6.116  71.978  1.00  0.00    -0.132 A  
HETATM   15  C   UNL     1      -8.376   4.753  71.851  1.00  0.00    -0.114 A  
HETATM   16  C   UNL     1      -8.058   4.218  70.609  1.00  0.00    -0.063 A  
HETATM   17  C   UNL     1      -7.942   5.047  69.485  1.00  0.00    -0.075 A  
HETATM   18  C   UNL     1      -8.135   6.442  69.617  1.00  0.00    -0.124 A  
HETATM   19  C   UNL     1      -7.959   7.358  68.424  1.00  0.00    -0.124 C  
HETATM   20  C   UNL     1      -7.241   6.693  67.243  1.00  0.00    -0.085 C  
HETATM   21  C   UNL     1      -7.818   5.298  66.959  1.00  0.00    -0.100 C  
HETATM   22  O   UNL     1      -7.344   7.513  66.077  1.00  0.00    -0.077 OA 
HETATM   23  H   UNL     1      -6.899   7.101  65.345  1.00  0.00     0.000 HD 
HETATM   24  O   UNL     1      -9.217   5.329  66.646  1.00  0.00    -0.124 OA 
HETATM   25  C   UNL     1      -7.578   4.394  68.168  1.00  0.00    -0.068 C  
HETATM   26  H   UNL     1      -9.574   4.466  66.470  1.00  0.00     0.000 HD 
ENDBRANCH  12  13
ENDBRANCH  11  12
ENDBRANCH   8  11
ENDBRANCH   7   8
ENDBRANCH   5   7
TORSDOF 5
ENDMDL
MODEL      317
REMARK 921   NORMALIZED FREE ENERGY PREDICTED BY IDOCK:   -2.69 KCAL/MOL
REMARK 922        TOTAL FREE ENERGY PREDICTED BY IDOCK:   -4.20 KCAL/MOL
REMARK 923 INTER-LIGAND FREE ENERGY PREDICTED BY IDOCK:   -3.40 KCAL/MOL
REMARK 924 INTRA-LIGAND FREE ENERGY PREDICTED BY IDOCK:   -0.80 KCAL/MOL
REMARK 927      BINDING AFFINITY PREDICTED BY RF-SCORE:    0.00 PKD
ROOT
HETATM    1  C   UNL     1      -9.266   2.496  65.279  1.00  0.00    -0.107 C  
HETATM    2  C   UNL     1      -9.436   4.000  64.999  1.00  0.00    -0.172 C  
HETATM    3  C   UNL     1     -10.904   4.380  65.270  1.00  0.00    -0.088 C  
HETATM    4  C   UNL     1      -9.124   4.299  63.522  1.00  0.00    -0.138 C  
HETATM    5  N   UNL     1      -8.605   4.832  65.890  1.00  0.00    -0.117 NA 
HETATM    6  H   UNL     1      -8.933   4.750  66.852  1.00  0.00     0.000 HD 
ENDROOT
BRANCH   5   7
HETATM    7  C   UNL     1      -7.163   4.570  65.825  1.00  0.00    -0.075 C  
BRANCH   7   8
HETATM    8  C   UNL     1      -6.613   4.104  67.187  1.00  0.00    -0.046 C  
HETATM    9  H   UNL     1      -5.090   3.032  67.833  1.00  0.00     0.000 HD 
HETATM   10  O   UNL     1      -5.430   3.319  66.993  1.00  0.00    -0.019 OA 
BRANCH   8  11
HETATM   11  C   UNL     1      -6.302   5.320  68.073  1.00  0.00    -0.039 C  
BRANCH  11  12
HETATM   12  O   UNL     1      -6.962   6.493  67.553  1.00  0.00    -0.073 OA 
BRANCH  12  13
HETATM   13  C   UNL     1      -7.017   7.546  68.438  1.00  0.00    -0.079 A  
HETATM   14  C   UNL     1      -5.882   8.288  68.787  1.00  0.00    -0.043 A  
HETATM   15  C   UNL     1      -5.985   9.376  69.645  1.00  0.00    -0.036 A  
HETATM   16  C   UNL     1      -7.222   9.732  70.168  1.00  0.00    -0.146 A  
HETATM   17  C   UNL     1      -8.366   8.982  69.863  1.00  0.00    -0.134 A  
HETATM   18  C   UNL     1      -8.260   7.844  69.029  1.00  0.00    -0.126 A  
HETATM   19  C   UNL     1      -9.476   6.991  68.735  1.00  0.00    -0.136 C  
HETATM   20  C   UNL     1     -10.659   7.269  69.672  1.00  0.00    -0.235 C  
HETATM   21  C   UNL     1     -10.899   8.778  69.827  1.00  0.00    -0.193 C  
HETATM   22  O   UNL     1     -11.840   6.632  69.179  1.00  0.00    -0.592 OA 
HETATM   23  H   UNL     1     -12.572   6.805  69.759  1.00  0.00     0.000 HD 
HETATM   24  O   UNL     1     -11.181   9.427  68.579  1.00  0.00    -0.474 OA 
HETATM   25  C   UNL     1      -9.677   9.422  70.481  1.00  0.00    -0.331 C  
HETATM   26  H   UNL     1     -11.330  10.360  68.675  1.00  0.00     0.000 HD 
ENDBRANCH  12  13
ENDBRANCH  11  12
ENDBRANCH   8  11
ENDBRANCH   7   8
ENDBRANCH   5   7
TORSDOF 5
ENDMDL
MODEL      318
REMARK 921   NORMALIZED FREE ENERGY PREDICTED BY IDOCK:   -2.64 KCAL/MOL
REMARK 922        TOTAL FREE ENERGY PREDICTED BY IDOCK:   -4.13 KCAL/MOL
REMARK 923 INTER-LIGAND FREE ENERGY PREDICTED BY IDOCK:   -3.26 KCAL/MOL
REMARK 924 INTRA-LIGAND FREE ENERGY PREDICTED BY IDOCK:   -0.87 KCAL/MOL
REMARK 927      BINDING AFFINITY PREDICTED BY RF-SCORE:    0.00 PKD
ROOT
HETATM    1  C   UNL     1     -10.758   8.411  69.971  1.00  0.00    -0.236 C  
HETATM    2  C   UNL     1     -10.285   6.967  70.218  1.00  0.00    -0.192 C  
HETATM    3  C   UNL     1     -11.134   6.024  69.344  1.00  0.00    -0.445 C  
HETATM    4  C   UNL     1     -10.503   6.585  71.693  1.00  0.00    -0.241 C  
HETATM    5  N   UNL     1      -8.878   6.765  69.825  1.00  0.00    -0.141 NA 
HETATM    6  H   UNL     1      -8.779   6.858  68.815  1.00  0.00     0.000 HD 
ENDROOT
BRANCH   5   7
HETATM    7  C   UNL     1      -7.908   7.628  70.509  1.00  0.00    -0.095 C  
BRANCH   7   8
HETATM    8  C   UNL     1      -7.223   8.595  69.525  1.00  0.00    -0.060 C  
HETATM    9  H   UNL     1      -5.522   9.588  69.432  1.00  0.00     0.000 HD 
HETATM   10  O   UNL     1      -5.945   8.991  70.039  1.00  0.00    -0.030 OA 
BRANCH   8  11
HETATM   11  C   UNL     1      -7.057   7.922  68.155  1.00  0.00    -0.089 C  
BRANCH  11  12
HETATM   12  O   UNL     1      -8.174   8.250  67.303  1.00  0.00    -0.118 OA 
BRANCH  12  13
HETATM   13  C   UNL     1      -7.944   8.035  65.964  1.00  0.00    -0.101 A  
HETATM   14  C   UNL     1      -7.419   9.027  65.127  1.00  0.00    -0.097 A  
HETATM   15  C   UNL     1      -7.152   8.758  63.790  1.00  0.00    -0.092 A  
HETATM   16  C   UNL     1      -7.412   7.495  63.273  1.00  0.00    -0.105 A  
HETATM   17  C   UNL     1      -7.973   6.496  64.081  1.00  0.00    -0.088 A  
HETATM   18  C   UNL     1      -8.291   6.778  65.430  1.00  0.00    -0.123 A  
HETATM   19  C   UNL     1      -8.949   5.728  66.300  1.00  0.00    -0.149 C  
HETATM   20  C   UNL     1      -9.521   4.546  65.506  1.00  0.00    -0.173 C  
HETATM   21  C   UNL     1      -8.513   4.042  64.462  1.00  0.00    -0.104 C  
HETATM   22  O   UNL     1      -9.882   3.484  66.392  1.00  0.00    -0.407 OA 
HETATM   23  H   UNL     1     -10.236   2.753  65.900  1.00  0.00     0.000 HD 
HETATM   24  O   UNL     1      -7.278   3.606  65.047  1.00  0.00    -0.064 OA 
HETATM   25  C   UNL     1      -8.241   5.148  63.443  1.00  0.00    -0.114 C  
HETATM   26  H   UNL     1      -6.655   3.293  64.401  1.00  0.00     0.000 HD 
ENDBRANCH  12  13
ENDBRANCH  11  12
ENDBRANCH   8  11
ENDBRANCH   7   8
ENDBRANCH   5   7
TORSDOF 5
ENDMDL
MODEL      319
REMARK 921   NORMALIZED FREE ENERGY PREDICTED BY IDOCK:   -2.53 KCAL/MOL
REMARK 922        TOTAL FREE ENERGY PREDICTED BY IDOCK:   -3.99 KCAL/MOL
REMARK 923 INTER-LIGAND FREE ENERGY PREDICTED BY IDOCK:   -3.71 KCAL/MOL
REMARK 924 INTRA-LIGAND FREE ENERGY PREDICTED BY IDOCK:   -0.28 KCAL/MOL
REMARK 927      BINDING AFFINITY PREDICTED BY RF-SCORE:    0.00 PKD
ROOT
HETATM    1  C   UNL     1      -8.490  10.972  65.833  1.00  0.00    -0.140 C  
HETATM    2  C   UNL     1      -9.952  10.555  65.590  1.00  0.00    -0.270 C  
HETATM    3  C   UNL     1     -10.316  10.896  64.133  1.00  0.00    -0.432 C  
HETATM    4  C   UNL     1     -10.887  11.350  66.520  1.00  0.00    -0.334 C  
HETATM    5  N   UNL     1     -10.156   9.104  65.756  1.00  0.00    -0.380 NA 
HETATM    6  H   UNL     1      -9.659   8.595  65.025  1.00  0.00     0.000 HD 
ENDROOT
BRANCH   5   7
HETATM    7  C   UNL     1      -9.799   8.569  67.075  1.00  0.00    -0.224 C  
BRANCH   7   8
HETATM    8  C   UNL     1     -10.389   7.163  67.290  1.00  0.00    -0.272 C  
HETATM    9  H   UNL     1     -10.232   5.391  66.439  1.00  0.00     0.000 HD 
HETATM   10  O   UNL     1      -9.869   6.259  66.306  1.00  0.00    -0.120 OA 
BRANCH   8  11
HETATM   11  C   UNL     1     -10.050   6.660  68.702  1.00  0.00    -0.161 C  
BRANCH  11  12
HETATM   12  O   UNL     1      -8.742   6.050  68.709  1.00  0.00    -0.111 OA 
BRANCH  12  13
HETATM   13  C   UNL     1      -7.993   6.339  69.827  1.00  0.00    -0.118 A  
HETATM   14  C   UNL     1      -7.056   7.378  69.851  1.00  0.00    -0.065 A  
HETATM   15  C   UNL     1      -6.354   7.672  71.014  1.00  0.00    -0.035 A  
HETATM   16  C   UNL     1      -6.577   6.927  72.165  1.00  0.00    -0.057 A  
HETATM   17  C   UNL     1      -7.483   5.858  72.156  1.00  0.00    -0.096 A  
HETATM   18  C   UNL     1      -8.165   5.523  70.962  1.00  0.00    -0.120 A  
HETATM   19  C   UNL     1      -9.104   4.335  70.922  1.00  0.00    -0.186 C  
HETATM   20  C   UNL     1      -8.954   3.395  72.124  1.00  0.00    -0.099 C  
HETATM   21  C   UNL     1      -8.901   4.185  73.441  1.00  0.00    -0.097 C  
HETATM   22  O   UNL     1     -10.034   2.459  72.158  1.00  0.00    -0.145 OA 
HETATM   23  H   UNL     1      -9.941   1.877  72.902  1.00  0.00     0.000 HD 
HETATM   24  O   UNL     1     -10.076   4.976  73.662  1.00  0.00    -0.156 OA 
HETATM   25  C   UNL     1      -7.664   5.083  73.445  1.00  0.00    -0.096 C  
HETATM   26  H   UNL     1     -10.044   5.465  74.476  1.00  0.00     0.000 HD 
ENDBRANCH  12  13
ENDBRANCH  11  12
ENDBRANCH   8  11
ENDBRANCH   7   8
ENDBRANCH   5   7
TORSDOF 5
ENDMDL
MODEL      320
REMARK 921   NORMALIZED FREE ENERGY PREDICTED BY IDOCK:   -2.50 KCAL/MOL
REMARK 922        TOTAL FREE ENERGY PREDICTED BY IDOCK:   -3.96 KCAL/MOL
REMARK 923 INTER-LIGAND FREE ENERGY PREDICTED BY IDOCK:   -3.72 KCAL/MOL
REMARK 924 INTRA-LIGAND FREE ENERGY PREDICTED BY IDOCK:   -0.25 KCAL/MOL
REMARK 927      BINDING AFFINITY PREDICTED BY RF-SCORE:    0.00 PKD
ROOT
HETATM    1  C   UNL     1     -11.741   7.536  70.920  1.00  0.00    -0.307 C  
HETATM    2  C   UNL     1     -10.645   7.138  69.914  1.00  0.00    -0.230 C  
HETATM    3  C   UNL     1     -10.020   8.427  69.347  1.00  0.00    -0.191 C  
HETATM    4  C   UNL     1     -11.262   6.347  68.748  1.00  0.00    -0.358 C  
HETATM    5  N   UNL     1      -9.554   6.375  70.549  1.00  0.00    -0.165 NA 
HETATM    6  H   UNL     1      -9.046   6.968  71.203  1.00  0.00     0.000 HD 
ENDROOT
BRANCH   5   7
HETATM    7  C   UNL     1      -9.964   5.130  71.209  1.00  0.00    -0.192 C  
BRANCH   7   8
HETATM    8  C   UNL     1      -9.021   3.966  70.851  1.00  0.00    -0.097 C  
HETATM    9  H   UNL     1      -8.279   2.383  71.762  1.00  0.00     0.000 HD 
HETATM   10  O   UNL     1      -8.860   3.102  71.983  1.00  0.00    -0.080 OA 
BRANCH   8  11
HETATM   11  C   UNL     1      -9.587   3.178  69.660  1.00  0.00    -0.045 C  
BRANCH  11  12
HETATM   12  O   UNL     1      -8.518   2.522  68.948  1.00  0.00    -0.061 OA 
BRANCH  12  13
HETATM   13  C   UNL     1      -7.682   3.381  68.271  1.00  0.00    -0.059 A  
HETATM   14  C   UNL     1      -6.395   3.687  68.729  1.00  0.00    -0.032 A  
HETATM   15  C   UNL     1      -5.561   4.520  67.993  1.00  0.00    -0.017 A  
HETATM   16  C   UNL     1      -6.007   5.062  66.793  1.00  0.00    -0.026 A  
HETATM   17  C   UNL     1      -7.304   4.801  66.333  1.00  0.00    -0.082 A  
HETATM   18  C   UNL     1      -8.175   3.993  67.102  1.00  0.00    -0.099 A  
HETATM   19  C   UNL     1      -9.598   3.749  66.646  1.00  0.00    -0.197 C  
HETATM   20  C   UNL     1     -10.059   4.704  65.539  1.00  0.00    -0.183 C  
HETATM   21  C   UNL     1      -8.996   4.828  64.436  1.00  0.00    -0.117 C  
HETATM   22  O   UNL     1     -11.295   4.254  64.980  1.00  0.00    -0.996 OA 
HETATM   23  H   UNL     1     -11.581   4.846  64.294  1.00  0.00     0.000 HD 
HETATM   24  O   UNL     1      -8.691   3.572  63.816  1.00  0.00    -0.093 OA 
HETATM   25  C   UNL     1      -7.724   5.438  65.024  1.00  0.00    -0.087 C  
HETATM   26  H   UNL     1      -8.034   3.648  63.134  1.00  0.00     0.000 HD 
ENDBRANCH  12  13
ENDBRANCH  11  12
ENDBRANCH   8  11
ENDBRANCH   7   8
ENDBRANCH   5   7
TORSDOF 5
ENDMDL
MODEL      321
REMARK 921   NORMALIZED FREE ENERGY PREDICTED BY IDOCK:   -2.48 KCAL/MOL
REMARK 922        TOTAL FREE ENERGY PREDICTED BY IDOCK:   -3.93 KCAL/MOL
REMARK 923 INTER-LIGAND FREE ENERGY PREDICTED BY IDOCK:   -3.98 KCAL/MOL
REMARK 924 INTRA-LIGAND FREE ENERGY PREDICTED BY IDOCK:    0.05 KCAL/MOL
REMARK 927      BINDING AFFINITY PREDICTED BY RF-SCORE:    0.00 PKD
ROOT
HETATM    1  C   UNL     1     -10.368   9.599  71.068  1.00  0.00    -0.292 C  
HETATM    2  C   UNL     1      -9.827   8.240  71.550  1.00  0.00    -0.189 C  
HETATM    3  C   UNL     1     -10.902   7.170  71.281  1.00  0.00    -0.254 C  
HETATM    4  C   UNL     1      -9.561   8.287  73.065  1.00  0.00    -0.295 C  
HETATM    5  N   UNL     1      -8.617   7.828  70.815  1.00  0.00    -0.131 NA 
HETATM    6  H   UNL     1      -8.846   7.640  69.840  1.00  0.00     0.000 HD 
ENDROOT
BRANCH   5   7
HETATM    7  C   UNL     1      -7.488   8.762  70.896  1.00  0.00    -0.091 C  
BRANCH   7   8
HETATM    8  C   UNL     1      -6.929   9.092  69.499  1.00  0.00    -0.051 C  
HETATM    9  H   UNL     1      -5.854   8.174  68.126  1.00  0.00     0.000 HD 
HETATM   10  O   UNL     1      -6.198   7.970  68.988  1.00  0.00    -0.038 OA 
BRANCH   8  11
HETATM   11  C   UNL     1      -8.076   9.456  68.545  1.00  0.00    -0.105 C  
BRANCH  11  12
HETATM   12  O   UNL     1      -7.862  10.771  67.992  1.00  0.00    -0.102 OA 
BRANCH  12  13
HETATM   13  C   UNL     1      -8.815  11.159  67.078  1.00  0.00    -0.149 A  
HETATM   14  C   UNL     1      -9.779  12.131  67.372  1.00  0.00    -0.180 A  
HETATM   15  C   UNL     1     -10.694  12.535  66.407  1.00  0.00    -0.275 A  
HETATM   16  C   UNL     1     -10.660  11.966  65.139  1.00  0.00    -0.333 A  
HETATM   17  C   UNL     1      -9.729  10.965  64.833  1.00  0.00    -0.318 A  
HETATM   18  C   UNL     1      -8.826  10.516  65.825  1.00  0.00    -0.190 A  
HETATM   19  C   UNL     1      -7.852   9.395  65.527  1.00  0.00    -0.103 C  
HETATM   20  C   UNL     1      -8.187   8.618  64.248  1.00  0.00    -0.158 C  
HETATM   21  C   UNL     1      -8.512   9.572  63.089  1.00  0.00    -0.199 C  
HETATM   22  O   UNL     1      -7.098   7.764  63.889  1.00  0.00    -0.064 OA 
HETATM   23  H   UNL     1      -7.305   7.282  63.097  1.00  0.00     0.000 HD 
HETATM   24  O   UNL     1      -7.428  10.459  62.779  1.00  0.00    -0.141 OA 
HETATM   25  C   UNL     1      -9.761  10.383  63.435  1.00  0.00    -0.318 C  
HETATM   26  H   UNL     1      -7.629  11.049  62.062  1.00  0.00     0.000 HD 
ENDBRANCH  12  13
ENDBRANCH  11  12
ENDBRANCH   8  11
ENDBRANCH   7   8
ENDBRANCH   5   7
TORSDOF 5
ENDMDL
MODEL      322
REMARK 921   NORMALIZED FREE ENERGY PREDICTED BY IDOCK:   -2.47 KCAL/MOL
REMARK 922        TOTAL FREE ENERGY PREDICTED BY IDOCK:   -3.92 KCAL/MOL
REMARK 923 INTER-LIGAND FREE ENERGY PREDICTED BY IDOCK:   -3.28 KCAL/MOL
REMARK 924 INTRA-LIGAND FREE ENERGY PREDICTED BY IDOCK:   -0.64 KCAL/MOL
REMARK 927      BINDING AFFINITY PREDICTED BY RF-SCORE:    0.00 PKD
ROOT
HETATM    1  C   UNL     1     -10.595   8.581  70.067  1.00  0.00    -0.230 C  
HETATM    2  C   UNL     1     -10.812   7.503  71.145  1.00  0.00    -0.238 C  
HETATM    3  C   UNL     1     -11.978   6.601  70.698  1.00  0.00    -0.404 C  
HETATM    4  C   UNL     1     -11.197   8.164  72.481  1.00  0.00    -0.459 C  
HETATM    5  N   UNL     1      -9.634   6.632  71.310  1.00  0.00    -0.169 NA 
HETATM    6  H   UNL     1      -9.490   6.074  70.468  1.00  0.00     0.000 HD 
ENDROOT
BRANCH   5   7
HETATM    7  C   UNL     1      -8.392   7.322  71.676  1.00  0.00    -0.108 C  
BRANCH   7   8
HETATM    8  C   UNL     1      -7.163   6.648  71.036  1.00  0.00    -0.078 C  
HETATM    9  H   UNL     1      -6.283   4.886  71.118  1.00  0.00     0.000 HD 
HETATM   10  O   UNL     1      -7.041   5.302  71.513  1.00  0.00    -0.062 OA 
BRANCH   8  11
HETATM   11  C   UNL     1      -7.295   6.658  69.506  1.00  0.00    -0.091 C  
BRANCH  11  12
HETATM   12  O   UNL     1      -6.461   7.692  68.944  1.00  0.00    -0.041 OA 
BRANCH  12  13
HETATM   13  C   UNL     1      -6.377   7.663  67.571  1.00  0.00    -0.054 A  
HETATM   14  C   UNL     1      -5.492   6.815  66.895  1.00  0.00    -0.017 A  
HETATM   15  C   UNL     1      -5.470   6.776  65.506  1.00  0.00    -0.026 A  
HETATM   16  C   UNL     1      -6.329   7.589  64.777  1.00  0.00    -0.038 A  
HETATM   17  C   UNL     1      -7.197   8.475  65.430  1.00  0.00    -0.083 A  
HETATM   18  C   UNL     1      -7.190   8.553  66.842  1.00  0.00    -0.075 A  
HETATM   19  C   UNL     1      -8.082   9.544  67.561  1.00  0.00    -0.110 C  
HETATM   20  C   UNL     1      -8.668  10.620  66.638  1.00  0.00    -0.140 C  
HETATM   21  C   UNL     1      -9.229   9.999  65.350  1.00  0.00    -0.210 C  
HETATM   22  O   UNL     1      -9.693  11.349  67.318  1.00  0.00    -0.183 OA 
HETATM   23  H   UNL     1     -10.056  12.015  66.746  1.00  0.00     0.000 HD 
HETATM   24  O   UNL     1     -10.266   9.040  65.602  1.00  0.00    -0.321 OA 
HETATM   25  C   UNL     1      -8.093   9.340  64.568  1.00  0.00    -0.139 C  
HETATM   26  H   UNL     1     -10.613   8.656  64.805  1.00  0.00     0.000 HD 
ENDBRANCH  12  13
ENDBRANCH  11  12
ENDBRANCH   8  11
ENDBRANCH   7   8
ENDBRANCH   5   7
TORSDOF 5
ENDMDL
MODEL      323
REMARK 921   NORMALIZED FREE ENERGY PREDICTED BY IDOCK:   -2.44 KCAL/MOL
REMARK 922        TOTAL FREE ENERGY PREDICTED BY IDOCK:   -3.88 KCAL/MOL
REMARK 923 INTER-LIGAND FREE ENERGY PREDICTED BY IDOCK:   -3.20 KCAL/MOL
REMARK 924 INTRA-LIGAND FREE ENERGY PREDICTED BY IDOCK:   -0.67 KCAL/MOL
REMARK 927      BINDING AFFINITY PREDICTED BY RF-SCORE:    0.00 PKD
ROOT
HETATM    1  C   UNL     1      -8.418   3.107  63.973  1.00  0.00    -0.089 C  
HETATM    2  C   UNL     1      -9.437   4.250  63.815  1.00  0.00    -0.118 C  
HETATM    3  C   UNL     1     -10.841   3.689  64.106  1.00  0.00    -0.151 C  
HETATM    4  C   UNL     1      -9.417   4.777  62.369  1.00  0.00    -0.020 C  
HETATM    5  N   UNL     1      -9.203   5.344  64.776  1.00  0.00    -0.358 NA 
HETATM    6  H   UNL     1      -9.383   5.020  65.726  1.00  0.00     0.000 HD 
ENDROOT
BRANCH   5   7
HETATM    7  C   UNL     1      -7.879   5.972  64.699  1.00  0.00    -0.112 C  
BRANCH   7   8
HETATM    8  C   UNL     1      -7.220   6.066  66.088  1.00  0.00    -0.076 C  
HETATM    9  H   UNL     1      -5.771   5.146  67.058  1.00  0.00     0.000 HD 
HETATM   10  O   UNL     1      -6.178   5.088  66.201  1.00  0.00    -0.033 OA 
BRANCH   8  11
HETATM   11  C   UNL     1      -6.648   7.475  66.305  1.00  0.00    -0.049 C  
BRANCH  11  12
HETATM   12  O   UNL     1      -6.800   7.863  67.687  1.00  0.00    -0.066 OA 
BRANCH  12  13
HETATM   13  C   UNL     1      -8.007   8.460  67.974  1.00  0.00    -0.119 A  
HETATM   14  C   UNL     1      -8.528   9.502  67.198  1.00  0.00    -0.131 A  
HETATM   15  C   UNL     1      -9.773  10.047  67.488  1.00  0.00    -0.189 A  
HETATM   16  C   UNL     1     -10.509   9.559  68.561  1.00  0.00    -0.247 A  
HETATM   17  C   UNL     1      -9.992   8.542  69.375  1.00  0.00    -0.194 A  
HETATM   18  C   UNL     1      -8.705   8.017  69.114  1.00  0.00    -0.137 A  
HETATM   19  C   UNL     1      -8.110   6.957  70.018  1.00  0.00    -0.125 C  
HETATM   20  C   UNL     1      -8.851   6.804  71.351  1.00  0.00    -0.131 C  
HETATM   21  C   UNL     1     -10.372   6.750  71.137  1.00  0.00    -0.205 C  
HETATM   22  O   UNL     1      -8.409   5.627  72.030  1.00  0.00    -0.120 OA 
HETATM   23  H   UNL     1      -8.868   5.532  72.857  1.00  0.00     0.000 HD 
HETATM   24  O   UNL     1     -10.775   5.659  70.296  1.00  0.00    -0.290 OA 
HETATM   25  C   UNL     1     -10.847   8.071  70.534  1.00  0.00    -0.241 C  
HETATM   26  H   UNL     1     -11.715   5.625  70.164  1.00  0.00     0.000 HD 
ENDBRANCH  12  13
ENDBRANCH  11  12
ENDBRANCH   8  11
ENDBRANCH   7   8
ENDBRANCH   5   7
TORSDOF 5
ENDMDL
MODEL      324
REMARK 921   NORMALIZED FREE ENERGY PREDICTED BY IDOCK:   -2.40 KCAL/MOL
REMARK 922        TOTAL FREE ENERGY PREDICTED BY IDOCK:   -3.83 KCAL/MOL
REMARK 923 INTER-LIGAND FREE ENERGY PREDICTED BY IDOCK:   -3.42 KCAL/MOL
REMARK 924 INTRA-LIGAND FREE ENERGY PREDICTED BY IDOCK:   -0.41 KCAL/MOL
REMARK 927      BINDING AFFINITY PREDICTED BY RF-SCORE:    0.00 PKD
ROOT
HETATM    1  C   UNL     1     -11.290  11.498  67.377  1.00  0.00    -0.367 C  
HETATM    2  C   UNL     1     -10.836  12.742  68.163  1.00  0.00    -0.228 C  
HETATM    3  C   UNL     1     -11.785  12.928  69.362  1.00  0.00    -0.382 C  
HETATM    4  C   UNL     1     -10.934  13.993  67.272  1.00  0.00    -0.303 C  
HETATM    5  N   UNL     1      -9.475  12.592  68.710  1.00  0.00    -0.411 NA 
HETATM    6  H   UNL     1      -9.463  11.865  69.425  1.00  0.00     0.000 HD 
ENDROOT
BRANCH   5   7
HETATM    7  C   UNL     1      -8.425  12.340  67.716  1.00  0.00    -0.163 C  
BRANCH   7   8
HETATM    8  C   UNL     1      -7.429  11.273  68.208  1.00  0.00    -0.099 C  
HETATM    9  H   UNL     1      -6.383  10.926  69.843  1.00  0.00     0.000 HD 
HETATM   10  O   UNL     1      -6.998  11.585  69.540  1.00  0.00    -0.107 OA 
BRANCH   8  11
HETATM   11  C   UNL     1      -8.085   9.885  68.176  1.00  0.00    -0.104 C  
BRANCH  11  12
HETATM   12  O   UNL     1      -8.870   9.680  69.368  1.00  0.00    -0.153 OA 
BRANCH  12  13
HETATM   13  C   UNL     1      -9.543   8.480  69.400  1.00  0.00    -0.170 A  
HETATM   14  C   UNL     1     -10.941   8.408  69.422  1.00  0.00    -0.016 A  
HETATM   15  C   UNL     1     -11.587   7.178  69.403  1.00  0.00     0.165 A  
HETATM   16  C   UNL     1     -10.842   6.005  69.368  1.00  0.00    -0.433 A  
HETATM   17  C   UNL     1      -9.441   6.051  69.384  1.00  0.00    -0.155 A  
HETATM   18  C   UNL     1      -8.779   7.299  69.452  1.00  0.00    -0.137 A  
HETATM   19  C   UNL     1      -7.267   7.362  69.527  1.00  0.00    -0.082 C  
HETATM   20  C   UNL     1      -6.614   6.017  69.869  1.00  0.00    -0.047 C  
HETATM   21  C   UNL     1      -7.213   4.881  69.027  1.00  0.00    -0.053 C  
HETATM   22  O   UNL     1      -5.201   6.087  69.664  1.00  0.00    -0.008 OA 
HETATM   23  H   UNL     1      -4.797   5.254  69.876  1.00  0.00     0.000 HD 
HETATM   24  O   UNL     1      -7.049   5.089  67.617  1.00  0.00    -0.064 OA 
HETATM   25  C   UNL     1      -8.698   4.731  69.359  1.00  0.00    -0.107 C  
HETATM   26  H   UNL     1      -7.420   4.386  67.096  1.00  0.00     0.000 HD 
ENDBRANCH  12  13
ENDBRANCH  11  12
ENDBRANCH   8  11
ENDBRANCH   7   8
ENDBRANCH   5   7
TORSDOF 5
ENDMDL
MODEL      325
REMARK 921   NORMALIZED FREE ENERGY PREDICTED BY IDOCK:   -2.39 KCAL/MOL
REMARK 922        TOTAL FREE ENERGY PREDICTED BY IDOCK:   -3.81 KCAL/MOL
REMARK 923 INTER-LIGAND FREE ENERGY PREDICTED BY IDOCK:   -3.47 KCAL/MOL
REMARK 924 INTRA-LIGAND FREE ENERGY PREDICTED BY IDOCK:   -0.34 KCAL/MOL
REMARK 927      BINDING AFFINITY PREDICTED BY RF-SCORE:    0.00 PKD
ROOT
HETATM    1  C   UNL     1     -10.481  12.352  65.691  1.00  0.00    -0.290 C  
HETATM    2  C   UNL     1     -11.148  12.709  67.032  1.00  0.00    -0.281 C  
HETATM    3  C   UNL     1     -12.475  13.432  66.735  1.00  0.00    -0.162 C  
HETATM    4  C   UNL     1     -10.244  13.666  67.831  1.00  0.00    -0.250 C  
HETATM    5  N   UNL     1     -11.479  11.513  67.828  1.00  0.00    -0.406 NA 
HETATM    6  H   UNL     1     -12.205  10.971  67.361  1.00  0.00     0.000 HD 
ENDROOT
BRANCH   5   7
HETATM    7  C   UNL     1     -10.341  10.649  68.162  1.00  0.00    -0.176 C  
BRANCH   7   8
HETATM    8  C   UNL     1     -10.530   9.227  67.601  1.00  0.00    -0.264 C  
HETATM    9  H   UNL     1     -11.163   8.416  65.919  1.00  0.00     0.000 HD 
HETATM   10  O   UNL     1     -11.047   9.293  66.266  1.00  0.00     0.548 OA 
BRANCH   8  11
HETATM   11  C   UNL     1      -9.192   8.473  67.614  1.00  0.00    -0.134 C  
BRANCH  11  12
HETATM   12  O   UNL     1      -8.623   8.497  68.940  1.00  0.00    -0.125 OA 
BRANCH  12  13
HETATM   13  C   UNL     1      -8.147   7.280  69.370  1.00  0.00    -0.130 A  
HETATM   14  C   UNL     1      -7.025   6.671  68.795  1.00  0.00    -0.080 A  
HETATM   15  C   UNL     1      -6.543   5.465  69.289  1.00  0.00    -0.047 A  
HETATM   16  C   UNL     1      -7.181   4.851  70.360  1.00  0.00    -0.054 A  
HETATM   17  C   UNL     1      -8.328   5.422  70.928  1.00  0.00    -0.118 A  
HETATM   18  C   UNL     1      -8.851   6.624  70.399  1.00  0.00    -0.152 A  
HETATM   19  C   UNL     1     -10.122   7.224  70.964  1.00  0.00    -0.195 C  
HETATM   20  C   UNL     1     -10.911   6.257  71.856  1.00  0.00    -0.242 C  
HETATM   21  C   UNL     1      -9.985   5.541  72.852  1.00  0.00    -0.169 C  
HETATM   22  O   UNL     1     -11.938   6.958  72.559  1.00  0.00    -0.476 OA 
HETATM   23  H   UNL     1     -12.427   6.359  73.111  1.00  0.00     0.000 HD 
HETATM   24  O   UNL     1      -9.292   6.451  73.717  1.00  0.00    -0.129 OA 
HETATM   25  C   UNL     1      -8.976   4.687  72.084  1.00  0.00    -0.143 C  
HETATM   26  H   UNL     1      -8.720   6.009  74.334  1.00  0.00     0.000 HD 
ENDBRANCH  12  13
ENDBRANCH  11  12
ENDBRANCH   8  11
ENDBRANCH   7   8
ENDBRANCH   5   7
TORSDOF 5
ENDMDL
MODEL      326
REMARK 921   NORMALIZED FREE ENERGY PREDICTED BY IDOCK:   -2.37 KCAL/MOL
REMARK 922        TOTAL FREE ENERGY PREDICTED BY IDOCK:   -3.79 KCAL/MOL
REMARK 923 INTER-LIGAND FREE ENERGY PREDICTED BY IDOCK:   -3.42 KCAL/MOL
REMARK 924 INTRA-LIGAND FREE ENERGY PREDICTED BY IDOCK:   -0.37 KCAL/MOL
REMARK 927      BINDING AFFINITY PREDICTED BY RF-SCORE:    0.00 PKD
ROOT
HETATM    1  C   UNL     1      -9.529  10.490  69.521  1.00  0.00    -0.106 C  
HETATM    2  C   UNL     1      -8.720  11.187  68.411  1.00  0.00    -0.157 C  
HETATM    3  C   UNL     1      -9.149  12.666  68.357  1.00  0.00    -0.128 C  
HETATM    4  C   UNL     1      -9.034  10.543  67.048  1.00  0.00    -0.149 C  
HETATM    5  N   UNL     1      -7.271  11.169  68.680  1.00  0.00    -0.090 NA 
HETATM    6  H   UNL     1      -7.059  11.741  69.497  1.00  0.00     0.000 HD 
ENDROOT
BRANCH   5   7
HETATM    7  C   UNL     1      -6.679   9.835  68.831  1.00  0.00    -0.050 C  
BRANCH   7   8
HETATM    8  C   UNL     1      -6.061   9.649  70.229  1.00  0.00    -0.062 C  
HETATM    9  H   UNL     1      -6.693   9.669  72.097  1.00  0.00     0.000 HD 
HETATM   10  O   UNL     1      -7.074   9.784  71.234  1.00  0.00    -0.326 OA 
BRANCH   8  11
HETATM   11  C   UNL     1      -5.396   8.268  70.332  1.00  0.00    -0.022 C  
BRANCH  11  12
HETATM   12  O   UNL     1      -5.969   7.369  69.359  1.00  0.00    -0.028 OA 
BRANCH  12  13
HETATM   13  C   UNL     1      -6.789   6.405  69.899  1.00  0.00    -0.058 A  
HETATM   14  C   UNL     1      -6.356   5.535  70.907  1.00  0.00    -0.034 A  
HETATM   15  C   UNL     1      -7.227   4.606  71.464  1.00  0.00    -0.067 A  
HETATM   16  C   UNL     1      -8.540   4.533  71.015  1.00  0.00    -0.126 A  
HETATM   17  C   UNL     1      -8.987   5.367  69.981  1.00  0.00    -0.152 A  
HETATM   18  C   UNL     1      -8.092   6.281  69.378  1.00  0.00    -0.113 A  
HETATM   19  C   UNL     1      -8.544   7.150  68.222  1.00  0.00    -0.122 C  
HETATM   20  C   UNL     1      -9.866   6.692  67.594  1.00  0.00    -0.126 C  
HETATM   21  C   UNL     1     -10.915   6.384  68.674  1.00  0.00    -0.330 C  
HETATM   22  O   UNL     1     -10.361   7.692  66.701  1.00  0.00    -0.428 OA 
HETATM   23  H   UNL     1     -11.180   7.409  66.312  1.00  0.00     0.000 HD 
HETATM   24  O   UNL     1     -11.206   7.516  69.504  1.00  0.00    -0.444 OA 
HETATM   25  C   UNL     1     -10.428   5.220  69.537  1.00  0.00    -0.304 C  
HETATM   26  H   UNL     1     -11.855   7.326  70.172  1.00  0.00     0.000 HD 
ENDBRANCH  12  13
ENDBRANCH  11  12
ENDBRANCH   8  11
ENDBRANCH   7   8
ENDBRANCH   5   7
TORSDOF 5
ENDMDL
MODEL      327
REMARK 921   NORMALIZED FREE ENERGY PREDICTED BY IDOCK:   -2.30 KCAL/MOL
REMARK 922        TOTAL FREE ENERGY PREDICTED BY IDOCK:   -3.70 KCAL/MOL
REMARK 923 INTER-LIGAND FREE ENERGY PREDICTED BY IDOCK:   -3.17 KCAL/MOL
REMARK 924 INTRA-LIGAND FREE ENERGY PREDICTED BY IDOCK:   -0.53 KCAL/MOL
REMARK 927      BINDING AFFINITY PREDICTED BY RF-SCORE:    0.00 PKD
ROOT
HETATM    1  C   UNL     1      -5.990   9.066  64.936  1.00  0.00    -0.064 C  
HETATM    2  C   UNL     1      -7.189   8.328  64.311  1.00  0.00    -0.089 C  
HETATM    3  C   UNL     1      -7.105   8.480  62.781  1.00  0.00    -0.091 C  
HETATM    4  C   UNL     1      -8.506   8.965  64.788  1.00  0.00    -0.193 C  
HETATM    5  N   UNL     1      -7.168   6.883  64.601  1.00  0.00    -0.071 NA 
HETATM    6  H   UNL     1      -6.374   6.443  64.137  1.00  0.00     0.000 HD 
ENDROOT
BRANCH   5   7
HETATM    7  C   UNL     1      -7.177   6.530  66.026  1.00  0.00    -0.071 C  
BRANCH   7   8
HETATM    8  C   UNL     1      -8.383   5.639  66.378  1.00  0.00    -0.112 C  
HETATM    9  H   UNL     1      -8.768   3.707  66.463  1.00  0.00     0.000 HD 
HETATM   10  O   UNL     1      -8.024   4.257  66.246  1.00  0.00    -0.097 OA 
BRANCH   8  11
HETATM   11  C   UNL     1      -8.851   5.929  67.812  1.00  0.00    -0.109 C  
BRANCH  11  12
HETATM   12  O   UNL     1      -7.936   6.838  68.457  1.00  0.00    -0.115 OA 
BRANCH  12  13
HETATM   13  C   UNL     1      -8.549   7.844  69.168  1.00  0.00    -0.138 A  
HETATM   14  C   UNL     1      -8.891   9.069  68.585  1.00  0.00    -0.137 A  
HETATM   15  C   UNL     1      -9.555  10.044  69.321  1.00  0.00    -0.227 A  
HETATM   16  C   UNL     1      -9.879   9.805  70.651  1.00  0.00    -0.171 A  
HETATM   17  C   UNL     1      -9.514   8.601  71.268  1.00  0.00    -0.289 A  
HETATM   18  C   UNL     1      -8.796   7.626  70.538  1.00  0.00    -0.149 A  
HETATM   19  C   UNL     1      -8.345   6.343  71.206  1.00  0.00    -0.123 C  
HETATM   20  C   UNL     1      -8.427   6.390  72.737  1.00  0.00    -0.121 C  
HETATM   21  C   UNL     1      -9.771   6.972  73.202  1.00  0.00    -0.184 C  
HETATM   22  O   UNL     1      -8.245   5.081  73.282  1.00  0.00    -0.106 OA 
HETATM   23  H   UNL     1      -8.296   5.110  74.230  1.00  0.00     0.000 HD 
HETATM   24  O   UNL     1     -10.896   6.213  72.736  1.00  0.00    -0.226 OA 
HETATM   25  C   UNL     1      -9.890   8.419  72.724  1.00  0.00    -0.289 C  
HETATM   26  H   UNL     1     -11.727   6.572  73.024  1.00  0.00     0.000 HD 
ENDBRANCH  12  13
ENDBRANCH  11  12
ENDBRANCH   8  11
ENDBRANCH   7   8
ENDBRANCH   5   7
TORSDOF 5
ENDMDL
MODEL      328
REMARK 921   NORMALIZED FREE ENERGY PREDICTED BY IDOCK:   -2.22 KCAL/MOL
REMARK 922        TOTAL FREE ENERGY PREDICTED BY IDOCK:   -3.59 KCAL/MOL
REMARK 923 INTER-LIGAND FREE ENERGY PREDICTED BY IDOCK:   -3.42 KCAL/MOL
REMARK 924 INTRA-LIGAND FREE ENERGY PREDICTED BY IDOCK:   -0.17 KCAL/MOL
REMARK 927      BINDING AFFINITY PREDICTED BY RF-SCORE:    0.00 PKD
ROOT
HETATM    1  C   UNL     1      -8.213  15.967  68.365  1.00  0.00    -0.161 C  
HETATM    2  C   UNL     1      -9.700  16.305  68.152  1.00  0.00    -0.227 C  
HETATM    3  C   UNL     1      -9.802  17.343  67.019  1.00  0.00    -0.286 C  
HETATM    4  C   UNL     1     -10.287  16.927  69.432  1.00  0.00    -0.250 C  
HETATM    5  N   UNL     1     -10.486  15.130  67.730  1.00  0.00    -0.244 NA 
HETATM    6  H   UNL     1     -10.194  14.829  66.801  1.00  0.00     0.000 HD 
ENDROOT
BRANCH   5   7
HETATM    7  C   UNL     1     -10.461  13.994  68.659  1.00  0.00    -0.247 C  
BRANCH   7   8
HETATM    8  C   UNL     1     -10.204  12.668  67.920  1.00  0.00    -0.220 C  
HETATM    9  H   UNL     1     -11.269  11.357  66.904  1.00  0.00     0.000 HD 
HETATM   10  O   UNL     1     -11.428  12.175  67.360  1.00  0.00    -0.305 OA 
BRANCH   8  11
HETATM   11  C   UNL     1      -9.162  12.877  66.810  1.00  0.00    -0.230 C  
BRANCH  11  12
HETATM   12  O   UNL     1      -8.611  11.607  66.404  1.00  0.00    -0.185 OA 
BRANCH  12  13
HETATM   13  C   UNL     1      -7.830  11.000  67.361  1.00  0.00    -0.118 A  
HETATM   14  C   UNL     1      -7.312  11.701  68.456  1.00  0.00    -0.102 A  
HETATM   15  C   UNL     1      -6.568  11.045  69.430  1.00  0.00    -0.104 A  
HETATM   16  C   UNL     1      -6.330   9.680  69.316  1.00  0.00    -0.044 A  
HETATM   17  C   UNL     1      -6.806   8.964  68.210  1.00  0.00    -0.065 A  
HETATM   18  C   UNL     1      -7.522   9.636  67.192  1.00  0.00    -0.088 A  
HETATM   19  C   UNL     1      -7.995   8.888  65.963  1.00  0.00    -0.106 C  
HETATM   20  C   UNL     1      -7.336   7.513  65.793  1.00  0.00    -0.070 C  
HETATM   21  C   UNL     1      -7.336   6.732  67.116  1.00  0.00    -0.086 C  
HETATM   22  O   UNL     1      -8.011   6.763  64.781  1.00  0.00    -0.118 OA 
HETATM   23  H   UNL     1      -7.603   5.911  64.676  1.00  0.00     0.000 HD 
HETATM   24  O   UNL     1      -8.657   6.512  67.631  1.00  0.00    -0.117 OA 
HETATM   25  C   UNL     1      -6.496   7.483  68.149  1.00  0.00    -0.049 C  
HETATM   26  H   UNL     1      -8.657   6.029  68.449  1.00  0.00     0.000 HD 
ENDBRANCH  12  13
ENDBRANCH  11  12
ENDBRANCH   8  11
ENDBRANCH   7   8
ENDBRANCH   5   7
TORSDOF 5
ENDMDL
MODEL      329
REMARK 921   NORMALIZED FREE ENERGY PREDICTED BY IDOCK:   -1.70 KCAL/MOL
REMARK 922        TOTAL FREE ENERGY PREDICTED BY IDOCK:   -2.92 KCAL/MOL
REMARK 923 INTER-LIGAND FREE ENERGY PREDICTED BY IDOCK:   -3.10 KCAL/MOL
REMARK 924 INTRA-LIGAND FREE ENERGY PREDICTED BY IDOCK:    0.19 KCAL/MOL
REMARK 927      BINDING AFFINITY PREDICTED BY RF-SCORE:    0.00 PKD
ROOT
HETATM    1  C   UNL     1     -10.244  10.885  69.068  1.00  0.00    -0.219 C  
HETATM    2  C   UNL     1      -8.899  10.183  69.329  1.00  0.00    -0.183 C  
HETATM    3  C   UNL     1      -7.790  11.252  69.342  1.00  0.00     0.128 C  
HETATM    4  C   UNL     1      -8.596   9.186  68.196  1.00  0.00    -0.129 C  
HETATM    5  N   UNL     1      -8.864   9.512  70.642  1.00  0.00    -0.255 NA 
HETATM    6  H   UNL     1      -8.899  10.204  71.390  1.00  0.00     0.000 HD 
ENDROOT
BRANCH   5   7
HETATM    7  C   UNL     1      -9.898   8.491  70.851  1.00  0.00    -0.189 C  
BRANCH   7   8
HETATM    8  C   UNL     1      -9.277   7.101  71.080  1.00  0.00    -0.157 C  
HETATM    9  H   UNL     1      -8.898   5.498  69.997  1.00  0.00     0.000 HD 
HETATM   10  O   UNL     1      -9.281   6.356  69.855  1.00  0.00    -0.150 OA 
BRANCH   8  11
HETATM   11  C   UNL     1      -7.841   7.245  71.606  1.00  0.00    -0.091 C  
BRANCH  11  12
HETATM   12  O   UNL     1      -7.552   6.193  72.550  1.00  0.00    -0.097 OA 
BRANCH  12  13
HETATM   13  C   UNL     1      -8.649   5.446  72.914  1.00  0.00    -0.119 A  
HETATM   14  C   UNL     1      -9.643   5.944  73.764  1.00  0.00    -0.147 A  
HETATM   15  C   UNL     1     -10.763   5.179  74.069  1.00  0.00    -0.320 A  
HETATM   16  C   UNL     1     -10.897   3.905  73.532  1.00  0.00    -0.330 A  
HETATM   17  C   UNL     1      -9.897   3.369  72.709  1.00  0.00    -0.200 A  
HETATM   18  C   UNL     1      -8.734   4.125  72.433  1.00  0.00    -0.117 A  
HETATM   19  C   UNL     1      -7.619   3.539  71.592  1.00  0.00    -0.053 C  
HETATM   20  C   UNL     1      -7.729   2.021  71.402  1.00  0.00    -0.040 C  
HETATM   21  C   UNL     1      -9.162   1.613  71.026  1.00  0.00    -0.095 C  
HETATM   22  O   UNL     1      -6.814   1.581  70.396  1.00  0.00    -0.031 OA 
HETATM   23  H   UNL     1      -6.882   0.641  70.278  1.00  0.00     0.000 HD 
HETATM   24  O   UNL     1      -9.614   2.229  69.812  1.00  0.00    -0.081 OA 
HETATM   25  C   UNL     1     -10.108   1.969  72.172  1.00  0.00    -0.232 C  
HETATM   26  H   UNL     1     -10.500   1.977  69.579  1.00  0.00     0.000 HD 
ENDBRANCH  12  13
ENDBRANCH  11  12
ENDBRANCH   8  11
ENDBRANCH   7   8
ENDBRANCH   5   7
TORSDOF 5
ENDMDL
MODEL      330
REMARK 921   NORMALIZED FREE ENERGY PREDICTED BY IDOCK:   -1.69 KCAL/MOL
REMARK 922        TOTAL FREE ENERGY PREDICTED BY IDOCK:   -2.90 KCAL/MOL
REMARK 923 INTER-LIGAND FREE ENERGY PREDICTED BY IDOCK:   -3.46 KCAL/MOL
REMARK 924 INTRA-LIGAND FREE ENERGY PREDICTED BY IDOCK:    0.55 KCAL/MOL
REMARK 927      BINDING AFFINITY PREDICTED BY RF-SCORE:    0.00 PKD
ROOT
HETATM    1  C   UNL     1     -10.394  10.997  69.016  1.00  0.00    -0.229 C  
HETATM    2  C   UNL     1      -9.368  10.743  67.897  1.00  0.00    -0.150 C  
HETATM    3  C   UNL     1      -8.539  12.027  67.701  1.00  0.00    -0.163 C  
HETATM    4  C   UNL     1     -10.095  10.431  66.577  1.00  0.00    -0.285 C  
HETATM    5  N   UNL     1      -8.419   9.668  68.241  1.00  0.00    -0.118 NA 
HETATM    6  H   UNL     1      -7.827   9.959  69.019  1.00  0.00     0.000 HD 
ENDROOT
BRANCH   5   7
HETATM    7  C   UNL     1      -9.029   8.365  68.531  1.00  0.00    -0.136 C  
BRANCH   7   8
HETATM    8  C   UNL     1      -8.696   7.332  67.438  1.00  0.00    -0.121 C  
HETATM    9  H   UNL     1      -9.581   6.593  65.839  1.00  0.00     0.000 HD 
HETATM   10  O   UNL     1      -9.787   7.230  66.514  1.00  0.00    -0.193 OA 
BRANCH   8  11
HETATM   11  C   UNL     1      -7.413   7.742  66.699  1.00  0.00    -0.089 C  
BRANCH  11  12
HETATM   12  O   UNL     1      -6.792   6.583  66.107  1.00  0.00    -0.054 OA 
BRANCH  12  13
HETATM   13  C   UNL     1      -7.265   5.383  66.587  1.00  0.00    -0.074 A  
HETATM   14  C   UNL     1      -6.873   4.869  67.829  1.00  0.00    -0.060 A  
HETATM   15  C   UNL     1      -7.411   3.679  68.304  1.00  0.00    -0.054 A  
HETATM   16  C   UNL     1      -8.342   2.986  67.540  1.00  0.00    -0.092 A  
HETATM   17  C   UNL     1      -8.722   3.461  66.278  1.00  0.00    -0.126 A  
HETATM   18  C   UNL     1      -8.142   4.646  65.768  1.00  0.00    -0.103 A  
HETATM   19  C   UNL     1      -8.500   5.142  64.382  1.00  0.00    -0.138 C  
HETATM   20  C   UNL     1      -9.220   4.094  63.524  1.00  0.00    -0.141 C  
HETATM   21  C   UNL     1     -10.339   3.403  64.318  1.00  0.00    -0.153 C  
HETATM   22  O   UNL     1      -9.756   4.702  62.347  1.00  0.00    -0.285 OA 
HETATM   23  H   UNL     1     -10.202   4.052  61.816  1.00  0.00     0.000 HD 
HETATM   24  O   UNL     1     -11.333   4.323  64.791  1.00  0.00    -0.954 OA 
HETATM   25  C   UNL     1      -9.732   2.644  65.498  1.00  0.00     0.258 C  
HETATM   26  H   UNL     1     -12.026   3.895  65.282  1.00  0.00     0.000 HD 
ENDBRANCH  12  13
ENDBRANCH  11  12
ENDBRANCH   8  11
ENDBRANCH   7   8
ENDBRANCH   5   7
TORSDOF 5
ENDMDL
MODEL      331
REMARK 921   NORMALIZED FREE ENERGY PREDICTED BY IDOCK:   -1.68 KCAL/MOL
REMARK 922        TOTAL FREE ENERGY PREDICTED BY IDOCK:   -2.90 KCAL/MOL
REMARK 923 INTER-LIGAND FREE ENERGY PREDICTED BY IDOCK:   -4.27 KCAL/MOL
REMARK 924 INTRA-LIGAND FREE ENERGY PREDICTED BY IDOCK:    1.38 KCAL/MOL
REMARK 927      BINDING AFFINITY PREDICTED BY RF-SCORE:    0.00 PKD
ROOT
HETATM    1  C   UNL     1      -7.022  15.783  67.301  1.00  0.00    -0.232 C  
HETATM    2  C   UNL     1      -8.462  15.703  67.839  1.00  0.00    -0.150 C  
HETATM    3  C   UNL     1      -8.896  17.117  68.270  1.00  0.00    -0.245 C  
HETATM    4  C   UNL     1      -8.514  14.785  69.074  1.00  0.00    -0.140 C  
HETATM    5  N   UNL     1      -9.419  15.255  66.811  1.00  0.00    -0.232 NA 
HETATM    6  H   UNL     1      -9.498  15.957  66.076  1.00  0.00     0.000 HD 
ENDROOT
BRANCH   5   7
HETATM    7  C   UNL     1      -9.136  13.940  66.223  1.00  0.00     0.004 C  
BRANCH   7   8
HETATM    8  C   UNL     1     -10.434  13.177  65.899  1.00  0.00    -0.280 C  
HETATM    9  H   UNL     1     -10.963  11.655  64.763  1.00  0.00     0.000 HD 
HETATM   10  O   UNL     1     -10.162  12.126  64.963  1.00  0.00    -0.272 OA 
BRANCH   8  11
HETATM   11  C   UNL     1     -11.039  12.595  67.186  1.00  0.00    -0.280 C  
BRANCH  11  12
HETATM   12  O   UNL     1     -10.933  11.157  67.176  1.00  0.00    -0.265 OA 
BRANCH  12  13
HETATM   13  C   UNL     1      -9.663  10.684  67.416  1.00  0.00    -0.167 A  
HETATM   14  C   UNL     1      -8.558  11.535  67.527  1.00  0.00    -0.143 A  
HETATM   15  C   UNL     1      -7.298  11.026  67.820  1.00  0.00    -0.093 A  
HETATM   16  C   UNL     1      -7.129   9.659  67.999  1.00  0.00    -0.080 A  
HETATM   17  C   UNL     1      -8.213   8.782  67.855  1.00  0.00    -0.111 A  
HETATM   18  C   UNL     1      -9.487   9.290  67.510  1.00  0.00    -0.160 A  
HETATM   19  C   UNL     1     -10.656   8.350  67.296  1.00  0.00    -0.328 C  
HETATM   20  C   UNL     1     -10.240   6.881  67.144  1.00  0.00    -0.240 C  
HETATM   21  C   UNL     1      -9.224   6.479  68.224  1.00  0.00    -0.116 C  
HETATM   22  O   UNL     1     -11.388   6.033  67.211  1.00  0.00    -0.478 OA 
HETATM   23  H   UNL     1     -11.131   5.124  67.118  1.00  0.00     0.000 HD 
HETATM   24  O   UNL     1      -9.733   6.644  69.554  1.00  0.00    -0.149 OA 
HETATM   25  C   UNL     1      -7.948   7.304  68.052  1.00  0.00    -0.119 C  
HETATM   26  H   UNL     1      -9.104   6.395  70.222  1.00  0.00     0.000 HD 
ENDBRANCH  12  13
ENDBRANCH  11  12
ENDBRANCH   8  11
ENDBRANCH   7   8
ENDBRANCH   5   7
TORSDOF 5
ENDMDL
MODEL      332
REMARK 921   NORMALIZED FREE ENERGY PREDICTED BY IDOCK:   -1.68 KCAL/MOL
REMARK 922        TOTAL FREE ENERGY PREDICTED BY IDOCK:   -2.89 KCAL/MOL
REMARK 923 INTER-LIGAND FREE ENERGY PREDICTED BY IDOCK:   -2.24 KCAL/MOL
REMARK 924 INTRA-LIGAND FREE ENERGY PREDICTED BY IDOCK:   -0.65 KCAL/MOL
REMARK 927      BINDING AFFINITY PREDICTED BY RF-SCORE:    0.00 PKD
ROOT
HETATM    1  C   UNL     1      -9.817  10.309  69.386  1.00  0.00    -0.247 C  
HETATM    2  C   UNL     1      -8.856  10.787  68.282  1.00  0.00    -0.139 C  
HETATM    3  C   UNL     1      -9.257  12.219  67.881  1.00  0.00    -0.190 C  
HETATM    4  C   UNL     1      -8.988   9.884  67.042  1.00  0.00    -0.152 C  
HETATM    5  N   UNL     1      -7.457  10.845  68.744  1.00  0.00    -0.104 NA 
HETATM    6  H   UNL     1      -7.353  11.569  69.454  1.00  0.00     0.000 HD 
ENDROOT
BRANCH   5   7
HETATM    7  C   UNL     1      -6.907   9.575  69.233  1.00  0.00    -0.049 C  
BRANCH   7   8
HETATM    8  C   UNL     1      -6.001   9.790  70.460  1.00  0.00    -0.072 C  
HETATM    9  H   UNL     1      -5.410  11.314  71.563  1.00  0.00     0.000 HD 
HETATM   10  O   UNL     1      -5.969  11.181  70.806  1.00  0.00    -0.304 OA 
BRANCH   8  11
HETATM   11  C   UNL     1      -6.516   8.962  71.647  1.00  0.00    -0.076 C  
BRANCH  11  12
HETATM   12  O   UNL     1      -7.410   7.931  71.179  1.00  0.00    -0.059 OA 
BRANCH  12  13
HETATM   13  C   UNL     1      -7.187   6.695  71.742  1.00  0.00    -0.085 A  
HETATM   14  C   UNL     1      -5.908   6.266  72.119  1.00  0.00    -0.037 A  
HETATM   15  C   UNL     1      -5.728   5.031  72.731  1.00  0.00    -0.017 A  
HETATM   16  C   UNL     1      -6.822   4.209  72.967  1.00  0.00    -0.056 A  
HETATM   17  C   UNL     1      -8.106   4.599  72.565  1.00  0.00    -0.103 A  
HETATM   18  C   UNL     1      -8.290   5.834  71.899  1.00  0.00    -0.119 A  
HETATM   19  C   UNL     1      -9.663   6.245  71.407  1.00  0.00    -0.191 C  
HETATM   20  C   UNL     1     -10.676   5.093  71.388  1.00  0.00    -0.084 C  
HETATM   21  C   UNL     1     -10.626   4.290  72.697  1.00  0.00    -0.140 C  
HETATM   22  O   UNL     1     -11.995   5.599  71.173  1.00  0.00     0.411 OA 
HETATM   23  H   UNL     1     -12.622   4.886  71.161  1.00  0.00     0.000 HD 
HETATM   24  O   UNL     1     -10.912   5.092  73.851  1.00  0.00    -0.302 OA 
HETATM   25  C   UNL     1      -9.248   3.644  72.844  1.00  0.00    -0.124 C  
HETATM   26  H   UNL     1     -10.882   4.595  74.661  1.00  0.00     0.000 HD 
ENDBRANCH  12  13
ENDBRANCH  11  12
ENDBRANCH   8  11
ENDBRANCH   7   8
ENDBRANCH   5   7
TORSDOF 5
ENDMDL
MODEL      333
REMARK 921   NORMALIZED FREE ENERGY PREDICTED BY IDOCK:   -0.96 KCAL/MOL
REMARK 922        TOTAL FREE ENERGY PREDICTED BY IDOCK:   -1.96 KCAL/MOL
REMARK 923 INTER-LIGAND FREE ENERGY PREDICTED BY IDOCK:   -2.27 KCAL/MOL
REMARK 924 INTRA-LIGAND FREE ENERGY PREDICTED BY IDOCK:    0.31 KCAL/MOL
REMARK 927      BINDING AFFINITY PREDICTED BY RF-SCORE:    0.00 PKD
ROOT
HETATM    1  C   UNL     1     -10.183  10.789  68.828  1.00  0.00    -0.207 C  
HETATM    2  C   UNL     1      -8.799  10.246  68.425  1.00  0.00    -0.129 C  
HETATM    3  C   UNL     1      -7.827  11.435  68.316  1.00  0.00    -0.132 C  
HETATM    4  C   UNL     1      -8.883   9.563  67.048  1.00  0.00    -0.139 C  
HETATM    5  N   UNL     1      -8.243   9.327  69.435  1.00  0.00    -0.108 NA 
HETATM    6  H   UNL     1      -8.036   9.835  70.294  1.00  0.00     0.000 HD 
ENDROOT
BRANCH   5   7
HETATM    7  C   UNL     1      -9.066   8.149  69.730  1.00  0.00    -0.148 C  
BRANCH   7   8
HETATM    8  C   UNL     1      -8.289   6.842  69.482  1.00  0.00    -0.133 C  
HETATM    9  H   UNL     1      -8.153   5.500  68.045  1.00  0.00     0.000 HD 
HETATM   10  O   UNL     1      -8.633   6.306  68.198  1.00  0.00    -0.117 OA 
BRANCH   8  11
HETATM   11  C   UNL     1      -6.778   7.106  69.558  1.00  0.00    -0.049 C  
BRANCH  11  12
HETATM   12  O   UNL     1      -6.121   6.022  70.248  1.00  0.00    -0.028 OA 
BRANCH  12  13
HETATM   13  C   UNL     1      -6.977   5.187  70.927  1.00  0.00    -0.055 A  
HETATM   14  C   UNL     1      -7.388   5.445  72.240  1.00  0.00    -0.094 A  
HETATM   15  C   UNL     1      -8.294   4.605  72.877  1.00  0.00    -0.100 A  
HETATM   16  C   UNL     1      -8.794   3.493  72.210  1.00  0.00    -0.118 A  
HETATM   17  C   UNL     1      -8.369   3.193  70.909  1.00  0.00    -0.091 A  
HETATM   18  C   UNL     1      -7.412   4.017  70.273  1.00  0.00    -0.045 A  
HETATM   19  C   UNL     1      -6.900   3.674  68.890  1.00  0.00    -0.046 C  
HETATM   20  C   UNL     1      -7.237   2.243  68.450  1.00  0.00    -0.047 C  
HETATM   21  C   UNL     1      -8.707   1.906  68.743  1.00  0.00    -0.077 C  
HETATM   22  O   UNL     1      -6.965   2.077  67.057  1.00  0.00    -0.039 OA 
HETATM   23  H   UNL     1      -7.173   1.191  66.785  1.00  0.00     0.000 HD 
HETATM   24  O   UNL     1      -9.623   2.785  68.075  1.00  0.00    -0.232 OA 
HETATM   25  C   UNL     1      -8.949   1.957  70.252  1.00  0.00    -0.140 C  
HETATM   26  H   UNL     1     -10.532   2.577  68.256  1.00  0.00     0.000 HD 
ENDBRANCH  12  13
ENDBRANCH  11  12
ENDBRANCH   8  11
ENDBRANCH   7   8
ENDBRANCH   5   7
TORSDOF 5
ENDMDL
MODEL      334
REMARK 921   NORMALIZED FREE ENERGY PREDICTED BY IDOCK:   -0.89 KCAL/MOL
REMARK 922        TOTAL FREE ENERGY PREDICTED BY IDOCK:   -1.88 KCAL/MOL
REMARK 923 INTER-LIGAND FREE ENERGY PREDICTED BY IDOCK:   -3.39 KCAL/MOL
REMARK 924 INTRA-LIGAND FREE ENERGY PREDICTED BY IDOCK:    1.51 KCAL/MOL
REMARK 927      BINDING AFFINITY PREDICTED BY RF-SCORE:    0.00 PKD
ROOT
HETATM    1  C   UNL     1      -9.957  13.607  67.958  1.00  0.00    -0.247 C  
HETATM    2  C   UNL     1      -8.457  13.899  67.764  1.00  0.00    -0.183 C  
HETATM    3  C   UNL     1      -7.941  14.624  69.021  1.00  0.00    -0.122 C  
HETATM    4  C   UNL     1      -8.254  14.827  66.553  1.00  0.00     0.263 C  
HETATM    5  N   UNL     1      -7.662  12.666  67.621  1.00  0.00    -0.142 NA 
HETATM    6  H   UNL     1      -7.671  12.139  68.494  1.00  0.00     0.000 HD 
ENDROOT
BRANCH   5   7
HETATM    7  C   UNL     1      -8.049  11.797  66.504  1.00  0.00    -0.035 C  
BRANCH   7   8
HETATM    8  C   UNL     1      -9.550  11.453  66.553  1.00  0.00    -0.198 C  
HETATM    9  H   UNL     1     -10.997  11.139  65.252  1.00  0.00     0.000 HD 
HETATM   10  O   UNL     1     -10.071  11.351  65.221  1.00  0.00    -0.242 OA 
BRANCH   8  11
HETATM   11  C   UNL     1      -9.763  10.132  67.307  1.00  0.00    -0.167 C  
BRANCH  11  12
HETATM   12  O   UNL     1      -8.646   9.247  67.080  1.00  0.00    -0.126 OA 
BRANCH  12  13
HETATM   13  C   UNL     1      -7.982   8.875  68.227  1.00  0.00    -0.105 A  
HETATM   14  C   UNL     1      -6.598   9.026  68.370  1.00  0.00    -0.059 A  
HETATM   15  C   UNL     1      -5.968   8.686  69.561  1.00  0.00    -0.033 A  
HETATM   16  C   UNL     1      -6.714   8.185  70.621  1.00  0.00    -0.037 A  
HETATM   17  C   UNL     1      -8.096   7.989  70.489  1.00  0.00    -0.105 A  
HETATM   18  C   UNL     1      -8.735   8.289  69.263  1.00  0.00    -0.139 A  
HETATM   19  C   UNL     1     -10.216   8.029  69.085  1.00  0.00    -0.221 C  
HETATM   20  C   UNL     1     -10.815   7.132  70.175  1.00  0.00    -0.257 C  
HETATM   21  C   UNL     1     -10.357   7.578  71.573  1.00  0.00    -0.196 C  
HETATM   22  O   UNL     1     -12.242   7.147  70.099  1.00  0.00    -0.586 OA 
HETATM   23  H   UNL     1     -12.613   6.591  70.775  1.00  0.00     0.000 HD 
HETATM   24  O   UNL     1     -10.735   8.928  71.876  1.00  0.00    -0.330 OA 
HETATM   25  C   UNL     1      -8.840   7.427  71.682  1.00  0.00    -0.125 C  
HETATM   26  H   UNL     1     -10.452   9.204  72.740  1.00  0.00     0.000 HD 
ENDBRANCH  12  13
ENDBRANCH  11  12
ENDBRANCH   8  11
ENDBRANCH   7   8
ENDBRANCH   5   7
TORSDOF 5
ENDMDL
MODEL      335
REMARK 921   NORMALIZED FREE ENERGY PREDICTED BY IDOCK:   -0.82 KCAL/MOL
REMARK 922        TOTAL FREE ENERGY PREDICTED BY IDOCK:   -1.79 KCAL/MOL
REMARK 923 INTER-LIGAND FREE ENERGY PREDICTED BY IDOCK:   -3.88 KCAL/MOL
REMARK 924 INTRA-LIGAND FREE ENERGY PREDICTED BY IDOCK:    2.09 KCAL/MOL
REMARK 927      BINDING AFFINITY PREDICTED BY RF-SCORE:    0.00 PKD
ROOT
HETATM    1  C   UNL     1      -7.052   7.135  69.918  1.00  0.00    -0.073 C  
HETATM    2  C   UNL     1      -6.532   6.812  71.331  1.00  0.00    -0.042 C  
HETATM    3  C   UNL     1      -5.860   5.427  71.293  1.00  0.00    -0.017 C  
HETATM    4  C   UNL     1      -7.708   6.751  72.323  1.00  0.00    -0.094 C  
HETATM    5  N   UNL     1      -5.511   7.774  71.785  1.00  0.00    -0.035 NA 
HETATM    6  H   UNL     1      -4.669   7.685  71.216  1.00  0.00     0.000 HD 
ENDROOT
BRANCH   5   7
HETATM    7  C   UNL     1      -5.946   9.175  71.827  1.00  0.00    -0.067 C  
BRANCH   7   8
HETATM    8  C   UNL     1      -5.793   9.853  70.452  1.00  0.00    -0.065 C  
HETATM    9  H   UNL     1      -5.094   9.363  68.675  1.00  0.00     0.000 HD 
HETATM   10  O   UNL     1      -5.188   8.944  69.523  1.00  0.00    -0.034 OA 
BRANCH   8  11
HETATM   11  C   UNL     1      -7.165  10.306  69.932  1.00  0.00    -0.159 C  
BRANCH  11  12
HETATM   12  O   UNL     1      -8.203   9.463  70.475  1.00  0.00    -0.169 OA 
BRANCH  12  13
HETATM   13  C   UNL     1      -9.479   9.855  70.142  1.00  0.00    -0.163 A  
HETATM   14  C   UNL     1      -9.734  10.769  69.112  1.00  0.00    -0.181 A  
HETATM   15  C   UNL     1     -11.039  11.104  68.771  1.00  0.00    -0.291 A  
HETATM   16  C   UNL     1     -12.103  10.534  69.459  1.00  0.00    -0.208 A  
HETATM   17  C   UNL     1     -11.872   9.646  70.518  1.00  0.00    -0.284 A  
HETATM   18  C   UNL     1     -10.546   9.338  70.901  1.00  0.00    -0.366 A  
HETATM   19  C   UNL     1     -10.280   8.424  72.080  1.00  0.00    -0.364 C  
HETATM   20  C   UNL     1     -11.511   8.191  72.964  1.00  0.00    -0.020 C  
HETATM   21  C   UNL     1     -12.751   7.873  72.113  1.00  0.00    -0.224 C  
HETATM   22  O   UNL     1     -11.264   7.128  73.886  1.00  0.00    -0.440 OA 
HETATM   23  H   UNL     1     -12.026   6.983  74.434  1.00  0.00     0.000 HD 
HETATM   24  O   UNL     1     -12.581   6.704  71.300  1.00  0.00    -0.317 OA 
HETATM   25  C   UNL     1     -13.082   9.075  71.229  1.00  0.00    -0.271 C  
HETATM   26  H   UNL     1     -13.347   6.507  70.774  1.00  0.00     0.000 HD 
ENDBRANCH  12  13
ENDBRANCH  11  12
ENDBRANCH   8  11
ENDBRANCH   7   8
ENDBRANCH   5   7
TORSDOF 5
ENDMDL
MODEL      336
REMARK 921   NORMALIZED FREE ENERGY PREDICTED BY IDOCK:    0.52 KCAL/MOL
REMARK 922        TOTAL FREE ENERGY PREDICTED BY IDOCK:   -0.05 KCAL/MOL
REMARK 923 INTER-LIGAND FREE ENERGY PREDICTED BY IDOCK:   -1.62 KCAL/MOL
REMARK 924 INTRA-LIGAND FREE ENERGY PREDICTED BY IDOCK:    1.57 KCAL/MOL
REMARK 927      BINDING AFFINITY PREDICTED BY RF-SCORE:    0.00 PKD
ROOT
HETATM    1  C   UNL     1      -7.728  14.348  67.877  1.00  0.00    -0.152 C  
HETATM    2  C   UNL     1      -7.510  14.881  69.304  1.00  0.00    -0.177 C  
HETATM    3  C   UNL     1      -6.773  16.231  69.209  1.00  0.00    -0.203 C  
HETATM    4  C   UNL     1      -6.628  13.905  70.103  1.00  0.00     0.049 C  
HETATM    5  N   UNL     1      -8.782  15.135  70.006  1.00  0.00    -0.308 NA 
HETATM    6  H   UNL     1      -9.282  15.903  69.559  1.00  0.00     0.000 HD 
ENDROOT
BRANCH   5   7
HETATM    7  C   UNL     1      -9.665  13.971  70.142  1.00  0.00     1.841 C  
BRANCH   7   8
HETATM    8  C   UNL     1     -11.050  14.239  69.526  1.00  0.00    -0.204 C  
HETATM    9  H   UNL     1     -12.372  15.702  69.539  1.00  0.00     0.000 HD 
HETATM   10  O   UNL     1     -11.517  15.536  69.919  1.00  0.00    -0.275 OA 
BRANCH   8  11
HETATM   11  C   UNL     1     -10.973  14.147  67.995  1.00  0.00    -0.255 C  
BRANCH  11  12
HETATM   12  O   UNL     1      -9.906  14.984  67.502  1.00  0.00    -0.216 OA 
BRANCH  12  13
HETATM   13  C   UNL     1     -10.303  15.905  66.559  1.00  0.00    -0.300 A  
HETATM   14  C   UNL     1     -10.959  15.531  65.381  1.00  0.00    -0.365 A  
HETATM   15  C   UNL     1     -11.390  16.493  64.475  1.00  0.00    -0.017 A  
HETATM   16  C   UNL     1     -11.164  17.839  64.735  1.00  0.00     1.606 A  
HETATM   17  C   UNL     1     -10.476  18.236  65.889  1.00  0.00    -0.324 A  
HETATM   18  C   UNL     1      -9.993  17.259  66.791  1.00  0.00    -0.301 A  
HETATM   19  C   UNL     1      -9.198  17.669  68.014  1.00  0.00    -0.271 C  
HETATM   20  C   UNL     1      -8.702  19.119  67.963  1.00  0.00    -0.310 C  
HETATM   21  C   UNL     1      -9.822  20.072  67.520  1.00  0.00    -0.416 C  
HETATM   22  O   UNL     1      -8.198  19.514  69.241  1.00  0.00    -0.248 OA 
HETATM   23  H   UNL     1      -7.891  20.412  69.210  1.00  0.00     0.000 HD 
HETATM   24  O   UNL     1     -10.957  20.040  68.396  1.00  0.00    -0.154 OA 
HETATM   25  C   UNL     1     -10.255  19.720  66.097  1.00  0.00    -0.618 C  
HETATM   26  H   UNL     1     -11.650  20.629  68.122  1.00  0.00     0.000 HD 
ENDBRANCH  12  13
ENDBRANCH  11  12
ENDBRANCH   8  11
ENDBRANCH   7   8
ENDBRANCH   5   7
TORSDOF 5
ENDMDL
MODEL      337
REMARK 921   NORMALIZED FREE ENERGY PREDICTED BY IDOCK:    0.78 KCAL/MOL
REMARK 922        TOTAL FREE ENERGY PREDICTED BY IDOCK:    0.29 KCAL/MOL
REMARK 923 INTER-LIGAND FREE ENERGY PREDICTED BY IDOCK:   -1.83 KCAL/MOL
REMARK 924 INTRA-LIGAND FREE ENERGY PREDICTED BY IDOCK:    2.12 KCAL/MOL
REMARK 927      BINDING AFFINITY PREDICTED BY RF-SCORE:    0.00 PKD
ROOT
HETATM    1  C   UNL     1      -8.693   9.716  69.425  1.00  0.00    -0.173 C  
HETATM    2  C   UNL     1      -7.456   8.872  69.783  1.00  0.00    -0.057 C  
HETATM    3  C   UNL     1      -6.299   9.831  70.119  1.00  0.00    -0.076 C  
HETATM    4  C   UNL     1      -7.037   8.014  68.576  1.00  0.00    -0.080 C  
HETATM    5  N   UNL     1      -7.678   8.032  70.974  1.00  0.00    -0.081 NA 
HETATM    6  H   UNL     1      -7.790   8.618  71.801  1.00  0.00     0.000 HD 
ENDROOT
BRANCH   5   7
HETATM    7  C   UNL     1      -8.794   7.085  70.872  1.00  0.00    -0.148 C  
BRANCH   7   8
HETATM    8  C   UNL     1      -8.319   5.705  70.377  1.00  0.00    -0.119 C  
HETATM    9  H   UNL     1      -8.233   4.745  68.658  1.00  0.00     0.000 HD 
HETATM   10  O   UNL     1      -8.527   5.596  68.963  1.00  0.00    -0.102 OA 
BRANCH   8  11
HETATM   11  C   UNL     1      -6.833   5.510  70.711  1.00  0.00    -0.052 C  
BRANCH  11  12
HETATM   12  O   UNL     1      -6.467   4.124  70.546  1.00  0.00    -0.029 OA 
BRANCH  12  13
HETATM   13  C   UNL     1      -7.506   3.310  70.156  1.00  0.00    -0.044 A  
HETATM   14  C   UNL     1      -8.490   2.874  71.051  1.00  0.00    -0.096 A  
HETATM   15  C   UNL     1      -9.553   2.094  70.611  1.00  0.00    -0.144 A  
HETATM   16  C   UNL     1      -9.641   1.737  69.271  1.00  0.00    -0.076 A  
HETATM   17  C   UNL     1      -8.649   2.130  68.363  1.00  0.00    -0.104 A  
HETATM   18  C   UNL     1      -7.540   2.883  68.814  1.00  0.00    -0.048 A  
HETATM   19  C   UNL     1      -6.431   3.268  67.856  1.00  0.00    -0.037 C  
HETATM   20  C   UNL     1      -6.467   2.490  66.535  1.00  0.00    -0.028 C  
HETATM   21  C   UNL     1      -7.890   2.446  65.957  1.00  0.00    -0.081 C  
HETATM   22  O   UNL     1      -5.572   3.080  65.589  1.00  0.00    -0.016 OA 
HETATM   23  H   UNL     1      -5.595   2.598  64.771  1.00  0.00     0.000 HD 
HETATM   24  O   UNL     1      -8.425   3.751  65.700  1.00  0.00    -0.108 OA 
HETATM   25  C   UNL     1      -8.806   1.692  66.921  1.00  0.00    -0.132 C  
HETATM   26  H   UNL     1      -9.305   3.724  65.342  1.00  0.00     0.000 HD 
ENDBRANCH  12  13
ENDBRANCH  11  12
ENDBRANCH   8  11
ENDBRANCH   7   8
ENDBRANCH   5   7
TORSDOF 5
ENDMDL
MODEL      338
REMARK 921   NORMALIZED FREE ENERGY PREDICTED BY IDOCK:    3.14 KCAL/MOL
REMARK 922        TOTAL FREE ENERGY PREDICTED BY IDOCK:    3.33 KCAL/MOL
REMARK 923 INTER-LIGAND FREE ENERGY PREDICTED BY IDOCK:    4.14 KCAL/MOL
REMARK 924 INTRA-LIGAND FREE ENERGY PREDICTED BY IDOCK:   -0.81 KCAL/MOL
REMARK 927      BINDING AFFINITY PREDICTED BY RF-SCORE:    0.00 PKD
ROOT
HETATM    1  C   UNL     1      -6.010  18.911  64.382  1.00  0.00    -0.156 C  
HETATM    2  C   UNL     1      -7.277  19.072  65.241  1.00  0.00     0.222 C  
HETATM    3  C   UNL     1      -8.460  18.441  64.481  1.00  0.00     6.284 C  
HETATM    4  C   UNL     1      -7.582  20.565  65.455  1.00  0.00     0.114 C  
HETATM    5  N   UNL     1      -7.172  18.367  66.532  1.00  0.00    -0.217 NA 
HETATM    6  H   UNL     1      -7.137  17.359  66.379  1.00  0.00     0.000 HD 
ENDROOT
BRANCH   5   7
HETATM    7  C   UNL     1      -6.053  18.786  67.384  1.00  0.00    -0.171 C  
BRANCH   7   8
HETATM    8  C   UNL     1      -5.909  17.872  68.615  1.00  0.00    -0.181 C  
HETATM    9  H   UNL     1      -6.623  17.809  70.452  1.00  0.00     0.000 HD 
HETATM   10  O   UNL     1      -6.711  18.374  69.693  1.00  0.00    -0.172 OA 
BRANCH   8  11
HETATM   11  C   UNL     1      -6.336  16.440  68.261  1.00  0.00    -0.127 C  
BRANCH  11  12
HETATM   12  O   UNL     1      -7.615  16.142  68.859  1.00  0.00    -0.175 OA 
BRANCH  12  13
HETATM   13  C   UNL     1      -7.964  14.812  68.808  1.00  0.00    -0.152 A  
HETATM   14  C   UNL     1      -7.213  13.817  69.445  1.00  0.00     0.113 A  
HETATM   15  C   UNL     1      -7.625  12.490  69.413  1.00  0.00     0.513 A  
HETATM   16  C   UNL     1      -8.789  12.142  68.740  1.00  0.00     0.108 A  
HETATM   17  C   UNL     1      -9.538  13.114  68.063  1.00  0.00    -0.220 A  
HETATM   18  C   UNL     1      -9.098  14.458  68.051  1.00  0.00    -0.188 A  
HETATM   19  C   UNL     1      -9.865  15.510  67.277  1.00  0.00    -0.224 C  
HETATM   20  C   UNL     1     -10.879  14.924  66.286  1.00  0.00    -0.331 C  
HETATM   21  C   UNL     1     -11.709  13.808  66.939  1.00  0.00    -0.395 C  
HETATM   22  O   UNL     1     -11.740  15.952  65.793  1.00  0.00     0.328 OA 
HETATM   23  H   UNL     1     -12.368  15.588  65.179  1.00  0.00     0.000 HD 
HETATM   24  O   UNL     1     -12.445  14.262  68.084  1.00  0.00    -0.560 OA 
HETATM   25  C   UNL     1     -10.787  12.657  67.339  1.00  0.00    -0.272 C  
HETATM   26  H   UNL     1     -12.959  13.572  68.488  1.00  0.00     0.000 HD 
ENDBRANCH  12  13
ENDBRANCH  11  12
ENDBRANCH   8  11
ENDBRANCH   7   8
ENDBRANCH   5   7
TORSDOF 5
ENDMDL
MODEL      339
REMARK 921   NORMALIZED FREE ENERGY PREDICTED BY IDOCK:    4.82 KCAL/MOL
REMARK 922        TOTAL FREE ENERGY PREDICTED BY IDOCK:    5.50 KCAL/MOL
REMARK 923 INTER-LIGAND FREE ENERGY PREDICTED BY IDOCK:    3.20 KCAL/MOL
REMARK 924 INTRA-LIGAND FREE ENERGY PREDICTED BY IDOCK:    2.30 KCAL/MOL
REMARK 927      BINDING AFFINITY PREDICTED BY RF-SCORE:    0.00 PKD
ROOT
HETATM    1  C   UNL     1     -11.396  13.127  66.575  1.00  0.00    -0.350 C  
HETATM    2  C   UNL     1     -11.614  14.453  67.328  1.00  0.00    -0.379 C  
HETATM    3  C   UNL     1     -10.977  14.326  68.725  1.00  0.00    -0.271 C  
HETATM    4  C   UNL     1     -13.120  14.715  67.506  1.00  0.00     2.613 C  
HETATM    5  N   UNL     1     -10.958  15.591  66.658  1.00  0.00    -0.289 NA 
HETATM    6  H   UNL     1      -9.945  15.482  66.695  1.00  0.00     0.000 HD 
ENDROOT
BRANCH   5   7
HETATM    7  C   UNL     1     -11.389  15.837  65.277  1.00  0.00    -0.093 C  
BRANCH   7   8
HETATM    8  C   UNL     1     -10.322  15.380  64.265  1.00  0.00     1.311 C  
HETATM    9  H   UNL     1      -8.372  15.093  64.260  1.00  0.00     0.000 HD 
HETATM   10  O   UNL     1      -9.030  15.376  64.885  1.00  0.00     1.232 OA 
BRANCH   8  11
HETATM   11  C   UNL     1     -10.661  13.977  63.739  1.00  0.00     1.131 C  
BRANCH  11  12
HETATM   12  O   UNL     1     -10.288  12.980  64.714  1.00  0.00    -0.327 OA 
BRANCH  12  13
HETATM   13  C   UNL     1      -9.550  11.939  64.199  1.00  0.00    -0.034 A  
HETATM   14  C   UNL     1      -9.371  11.759  62.823  1.00  0.00     0.142 A  
HETATM   15  C   UNL     1      -8.577  10.725  62.341  1.00  0.00    -0.322 A  
HETATM   16  C   UNL     1      -7.958   9.855  63.230  1.00  0.00    -0.151 A  
HETATM   17  C   UNL     1      -8.153   9.992  64.612  1.00  0.00    -0.155 A  
HETATM   18  C   UNL     1      -8.998  11.013  65.106  1.00  0.00    -0.159 A  
HETATM   19  C   UNL     1      -9.264  11.138  66.592  1.00  0.00    -0.188 C  
HETATM   20  C   UNL     1      -8.841   9.902  67.395  1.00  0.00    -0.132 C  
HETATM   21  C   UNL     1      -7.438   9.428  66.985  1.00  0.00    -0.091 C  
HETATM   22  O   UNL     1      -8.872  10.188  68.795  1.00  0.00    -0.131 OA 
HETATM   23  H   UNL     1      -8.610   9.422  69.293  1.00  0.00     0.000 HD 
HETATM   24  O   UNL     1      -6.433  10.431  67.184  1.00  0.00    -0.069 OA 
HETATM   25  C   UNL     1      -7.457   8.998  65.518  1.00  0.00    -0.086 C  
HETATM   26  H   UNL     1      -5.565  10.138  66.931  1.00  0.00     0.000 HD 
ENDBRANCH  12  13
ENDBRANCH  11  12
ENDBRANCH   8  11
ENDBRANCH   7   8
ENDBRANCH   5   7
TORSDOF 5
ENDMDL
MODEL      340
REMARK 921   NORMALIZED FREE ENERGY PREDICTED BY IDOCK:    7.31 KCAL/MOL
REMARK 922        TOTAL FREE ENERGY PREDICTED BY IDOCK:    8.73 KCAL/MOL
REMARK 923 INTER-LIGAND FREE ENERGY PREDICTED BY IDOCK:   -0.07 KCAL/MOL
REMARK 924 INTRA-LIGAND FREE ENERGY PREDICTED BY IDOCK:    8.79 KCAL/MOL
REMARK 927      BINDING AFFINITY PREDICTED BY RF-SCORE:    0.00 PKD
ROOT
HETATM    1  C   UNL     1      -8.957  18.465  69.299  1.00  0.00     0.213 C  
HETATM    2  C   UNL     1      -8.006  17.287  69.019  1.00  0.00    -0.121 C  
HETATM    3  C   UNL     1      -7.055  17.137  70.221  1.00  0.00     1.541 C  
HETATM    4  C   UNL     1      -7.160  17.579  67.767  1.00  0.00    -0.187 C  
HETATM    5  N   UNL     1      -8.727  16.008  68.879  1.00  0.00    -0.223 NA 
HETATM    6  H   UNL     1      -9.148  15.744  69.769  1.00  0.00     0.000 HD 
ENDROOT
BRANCH   5   7
HETATM    7  C   UNL     1      -9.737  15.972  67.814  1.00  0.00    -0.221 C  
BRANCH   7   8
HETATM    8  C   UNL     1      -9.088  16.071  66.420  1.00  0.00    -0.319 C  
HETATM    9  H   UNL     1      -7.455  16.858  65.645  1.00  0.00     0.000 HD 
HETATM   10  O   UNL     1      -7.855  16.797  66.505  1.00  0.00    -0.243 OA 
BRANCH   8  11
HETATM   11  C   UNL     1      -8.836  14.665  65.856  1.00  0.00     0.537 C  
BRANCH  11  12
HETATM   12  O   UNL     1     -10.089  14.034  65.519  1.00  0.00    -0.322 OA 
BRANCH  12  13
HETATM   13  C   UNL     1     -10.363  12.900  66.248  1.00  0.00    -0.268 A  
HETATM   14  C   UNL     1     -11.459  12.076  65.965  1.00  0.00    -0.399 A  
HETATM   15  C   UNL     1     -11.675  10.910  66.690  1.00  0.00     0.813 A  
HETATM   16  C   UNL     1     -10.800  10.558  67.711  1.00  0.00    -0.347 A  
HETATM   17  C   UNL     1      -9.717  11.385  68.038  1.00  0.00    -0.190 A  
HETATM   18  C   UNL     1      -9.520  12.597  67.335  1.00  0.00    -0.189 A  
HETATM   19  C   UNL     1      -8.387  13.529  67.714  1.00  0.00    -0.181 C  
HETATM   20  C   UNL     1      -7.761  13.208  69.076  1.00  0.00     0.178 C  
HETATM   21  C   UNL     1      -7.490  11.702  69.221  1.00  0.00     0.075 C  
HETATM   22  O   UNL     1      -6.547  13.943  69.248  1.00  0.00    -0.106 OA 
HETATM   23  H   UNL     1      -6.159  13.745  70.092  1.00  0.00     0.000 HD 
HETATM   24  O   UNL     1      -6.602  11.199  68.214  1.00  0.00    -0.057 OA 
HETATM   25  C   UNL     1      -8.815  10.941  69.171  1.00  0.00    -0.050 C  
HETATM   26  H   UNL     1      -6.434  10.268  68.303  1.00  0.00     0.000 HD 
ENDBRANCH  12  13
ENDBRANCH  11  12
ENDBRANCH   8  11
ENDBRANCH   7   8
ENDBRANCH   5   7
TORSDOF 5
ENDMDL
MODEL      341
REMARK 921   NORMALIZED FREE ENERGY PREDICTED BY IDOCK:   12.36 KCAL/MOL
REMARK 922        TOTAL FREE ENERGY PREDICTED BY IDOCK:   15.25 KCAL/MOL
REMARK 923 INTER-LIGAND FREE ENERGY PREDICTED BY IDOCK:   -0.56 KCAL/MOL
REMARK 924 INTRA-LIGAND FREE ENERGY PREDICTED BY IDOCK:   15.81 KCAL/MOL
REMARK 927      BINDING AFFINITY PREDICTED BY RF-SCORE:    0.00 PKD
ROOT
HETATM    1  C   UNL     1      -8.327   9.960  69.644  1.00  0.00    -0.181 C  
HETATM    2  C   UNL     1      -7.287   9.266  70.542  1.00  0.00    -0.116 C  
HETATM    3  C   UNL     1      -6.071  10.201  70.684  1.00  0.00    -0.106 C  
HETATM    4  C   UNL     1      -6.815   7.956  69.887  1.00  0.00    -0.045 C  
HETATM    5  N   UNL     1      -7.799   9.019  71.903  1.00  0.00    -0.341 NA 
HETATM    6  H   UNL     1      -7.951   9.903  72.386  1.00  0.00     0.000 HD 
ENDROOT
BRANCH   5   7
HETATM    7  C   UNL     1      -9.008   8.191  71.975  1.00  0.00    -0.176 C  
BRANCH   7   8
HETATM    8  C   UNL     1      -9.098   7.220  70.782  1.00  0.00    -0.152 C  
HETATM    9  H   UNL     1     -10.205   7.030  69.162  1.00  0.00     0.000 HD 
HETATM   10  O   UNL     1     -10.150   7.628  69.898  1.00  0.00    -0.192 OA 
BRANCH   8  11
HETATM   11  C   UNL     1      -7.759   7.186  70.029  1.00  0.00    -0.103 C  
BRANCH  11  12
HETATM   12  O   UNL     1      -7.581   5.902  69.395  1.00  0.00    -0.088 OA 
BRANCH  12  13
HETATM   13  C   UNL     1      -8.510   4.957  69.767  1.00  0.00    -0.083 A  
HETATM   14  C   UNL     1      -9.320   4.299  68.835  1.00  0.00    -0.222 A  
HETATM   15  C   UNL     1     -10.212   3.314  69.242  1.00  0.00     1.153 A  
HETATM   16  C   UNL     1     -10.307   2.980  70.587  1.00  0.00     1.047 A  
HETATM   17  C   UNL     1      -9.534   3.651  71.544  1.00  0.00    -0.220 A  
HETATM   18  C   UNL     1      -8.660   4.687  71.142  1.00  0.00    -0.128 A  
HETATM   19  C   UNL     1      -7.860   5.460  72.170  1.00  0.00    -0.106 C  
HETATM   20  C   UNL     1      -8.349   5.253  73.608  1.00  0.00    -0.112 C  
HETATM   21  C   UNL     1      -8.591   3.764  73.902  1.00  0.00    -0.086 C  
HETATM   22  O   UNL     1      -7.402   5.788  74.535  1.00  0.00    -0.087 OA 
HETATM   23  H   UNL     1      -7.706   5.660  75.426  1.00  0.00     0.000 HD 
HETATM   24  O   UNL     1      -7.411   2.967  73.733  1.00  0.00    -0.044 OA 
HETATM   25  C   UNL     1      -9.703   3.241  72.993  1.00  0.00    -0.170 C  
HETATM   26  H   UNL     1      -7.560   2.046  73.915  1.00  0.00     0.000 HD 
ENDBRANCH  12  13
ENDBRANCH  11  12
ENDBRANCH   8  11
ENDBRANCH   7   8
ENDBRANCH   5   7
TORSDOF 5
ENDMDL
MODEL      342
REMARK 921   NORMALIZED FREE ENERGY PREDICTED BY IDOCK:   13.95 KCAL/MOL
REMARK 922        TOTAL FREE ENERGY PREDICTED BY IDOCK:   17.30 KCAL/MOL
REMARK 923 INTER-LIGAND FREE ENERGY PREDICTED BY IDOCK:   14.57 KCAL/MOL
REMARK 924 INTRA-LIGAND FREE ENERGY PREDICTED BY IDOCK:    2.73 KCAL/MOL
REMARK 927      BINDING AFFINITY PREDICTED BY RF-SCORE:    0.00 PKD
ROOT
HETATM    1  C   UNL     1      -9.631  13.761  67.693  1.00  0.00    -0.219 C  
HETATM    2  C   UNL     1      -8.525  14.634  68.314  1.00  0.00    -0.158 C  
HETATM    3  C   UNL     1      -8.704  14.625  69.843  1.00  0.00     0.596 C  
HETATM    4  C   UNL     1      -8.659  16.085  67.820  1.00  0.00    -0.168 C  
HETATM    5  N   UNL     1      -7.176  14.107  68.036  1.00  0.00    -0.125 NA 
HETATM    6  H   UNL     1      -7.043  13.215  68.511  1.00  0.00     0.000 HD 
ENDROOT
BRANCH   5   7
HETATM    7  C   UNL     1      -6.835  13.977  66.615  1.00  0.00     2.109 C  
BRANCH   7   8
HETATM    8  C   UNL     1      -8.071  13.613  65.771  1.00  0.00     2.906 C  
HETATM    9  H   UNL     1      -8.646  13.822  63.896  1.00  0.00     0.000 HD 
HETATM   10  O   UNL     1      -7.883  14.047  64.417  1.00  0.00     9.257 OA 
BRANCH   8  11
HETATM   11  C   UNL     1      -8.308  12.096  65.812  1.00  0.00     0.745 C  
BRANCH  11  12
HETATM   12  O   UNL     1      -7.062  11.406  66.042  1.00  0.00     0.051 OA 
BRANCH  12  13
HETATM   13  C   UNL     1      -6.999  10.747  67.248  1.00  0.00    -0.086 A  
HETATM   14  C   UNL     1      -5.944  10.936  68.149  1.00  0.00    -0.049 A  
HETATM   15  C   UNL     1      -5.939  10.291  69.380  1.00  0.00    -0.038 A  
HETATM   16  C   UNL     1      -6.986   9.444  69.722  1.00  0.00    -0.065 A  
HETATM   17  C   UNL     1      -8.034   9.209  68.822  1.00  0.00    -0.100 A  
HETATM   18  C   UNL     1      -8.021   9.825  67.549  1.00  0.00    -0.106 A  
HETATM   19  C   UNL     1      -9.117   9.537  66.544  1.00  0.00    -0.185 C  
HETATM   20  C   UNL     1      -9.970   8.314  66.903  1.00  0.00    -0.273 C  
HETATM   21  C   UNL     1     -10.383   8.342  68.383  1.00  0.00    -0.199 C  
HETATM   22  O   UNL     1     -11.130   8.259  66.071  1.00  0.00     1.263 OA 
HETATM   23  H   UNL     1     -11.658   7.501  66.293  1.00  0.00     0.000 HD 
HETATM   24  O   UNL     1     -11.144   9.508  68.724  1.00  0.00    -0.431 OA 
HETATM   25  C   UNL     1      -9.134   8.263  69.260  1.00  0.00    -0.151 C  
HETATM   26  H   UNL     1     -11.400   9.525  69.639  1.00  0.00     0.000 HD 
ENDBRANCH  12  13
ENDBRANCH  11  12
ENDBRANCH   8  11
ENDBRANCH   7   8
ENDBRANCH   5   7
TORSDOF 5
ENDMDL
MODEL      343
REMARK 921   NORMALIZED FREE ENERGY PREDICTED BY IDOCK:   15.74 KCAL/MOL
REMARK 922        TOTAL FREE ENERGY PREDICTED BY IDOCK:   19.61 KCAL/MOL
REMARK 923 INTER-LIGAND FREE ENERGY PREDICTED BY IDOCK:   -2.56 KCAL/MOL
REMARK 924 INTRA-LIGAND FREE ENERGY PREDICTED BY IDOCK:   22.17 KCAL/MOL
REMARK 927      BINDING AFFINITY PREDICTED BY RF-SCORE:    0.00 PKD
ROOT
HETATM    1  C   UNL     1      -8.199  10.423  69.141  1.00  0.00    -0.157 C  
HETATM    2  C   UNL     1      -7.178   9.638  69.985  1.00  0.00    -0.119 C  
HETATM    3  C   UNL     1      -5.882  10.466  70.069  1.00  0.00    -0.062 C  
HETATM    4  C   UNL     1      -6.851   8.297  69.303  1.00  0.00    -0.050 C  
HETATM    5  N   UNL     1      -7.643   9.424  71.368  1.00  0.00    -0.316 NA 
HETATM    6  H   UNL     1      -7.696  10.315  71.861  1.00  0.00     0.000 HD 
ENDROOT
BRANCH   5   7
HETATM    7  C   UNL     1      -8.912   8.700  71.496  1.00  0.00    -0.234 C  
BRANCH   7   8
HETATM    8  C   UNL     1      -9.364   8.112  70.146  1.00  0.00    -0.159 C  
HETATM    9  H   UNL     1     -11.034   8.022  69.103  1.00  0.00     0.000 HD 
HETATM   10  O   UNL     1     -10.756   8.385  69.936  1.00  0.00    -0.232 OA 
BRANCH   8  11
HETATM   11  C   UNL     1      -8.529   8.711  69.005  1.00  0.00    -0.124 C  
BRANCH  11  12
HETATM   12  O   UNL     1      -7.865   7.660  68.273  1.00  0.00    -0.117 OA 
BRANCH  12  13
HETATM   13  C   UNL     1      -8.055   6.402  68.798  1.00  0.00    -0.114 A  
HETATM   14  C   UNL     1      -8.588   6.199  70.076  1.00  0.00    -0.136 A  
HETATM   15  C   UNL     1      -8.813   4.913  70.554  1.00  0.00    -0.146 A  
HETATM   16  C   UNL     1      -8.502   3.816  69.760  1.00  0.00    -0.092 A  
HETATM   17  C   UNL     1      -7.933   3.993  68.491  1.00  0.00    -0.072 A  
HETATM   18  C   UNL     1      -7.657   5.298  68.020  1.00  0.00    -0.080 A  
HETATM   19  C   UNL     1      -6.991   5.504  66.675  1.00  0.00    -0.064 C  
HETATM   20  C   UNL     1      -6.364   4.227  66.101  1.00  0.00    -0.033 C  
HETATM   21  C   UNL     1      -7.330   3.037  66.215  1.00  0.00    -0.071 C  
HETATM   22  O   UNL     1      -5.994   4.428  64.736  1.00  0.00    -0.021 OA 
HETATM   23  H   UNL     1      -5.606   3.638  64.380  1.00  0.00     0.000 HD 
HETATM   24  O   UNL     1      -8.566   3.256  65.520  1.00  0.00    -0.106 OA 
HETATM   25  C   UNL     1      -7.609   2.749  67.690  1.00  0.00    -0.057 C  
HETATM   26  H   UNL     1      -9.163   2.520  65.590  1.00  0.00     0.000 HD 
ENDBRANCH  12  13
ENDBRANCH  11  12
ENDBRANCH   8  11
ENDBRANCH   7   8
ENDBRANCH   5   7
TORSDOF 5
ENDMDL
