MODEL        1
REMARK 921   NORMALIZED FREE ENERGY PREDICTED BY IDOCK:   -7.54 KCAL/MOL
REMARK 922        TOTAL FREE ENERGY PREDICTED BY IDOCK:  -10.44 KCAL/MOL
REMARK 923 INTER-LIGAND FREE ENERGY PREDICTED BY IDOCK:   -9.30 KCAL/MOL
REMARK 924 INTRA-LIGAND FREE ENERGY PREDICTED BY IDOCK:   -1.14 KCAL/MOL
REMARK 927      BINDING AFFINITY PREDICTED BY RF-SCORE:    0.00 PKD
ROOT
HETATM    1  C   UNL     1     -10.638  16.431  68.559  1.00  0.00    -0.304 C  
HETATM    2  S   UNL     1      -9.198  15.703  69.438  1.00  0.00    -0.258 SA 
HETATM    3  C   UNL     1      -7.939  16.499  68.334  1.00  0.00    -0.194 C  
HETATM    4  C   UNL     1      -6.662  16.796  69.125  1.00  0.00    -0.223 C  
HETATM    5  CA  UNL     1      -8.652  17.733  67.731  1.00  0.00    -0.237 C  
HETATM    6  C   UNL     1      -7.560  15.470  67.252  1.00  0.00    -0.252 C  
HETATM    7  N   UNL     1     -10.078  17.389  67.590  1.00  0.00    -0.314 N  
HETATM    8  C   UNL     1      -8.569  19.035  68.547  1.00  0.00    -0.358 C  
HETATM    9  OXT UNL     1      -7.536  19.541  68.957  1.00  0.00    -0.363 OA 
HETATM   10  O   UNL     1      -9.771  19.643  68.716  1.00  0.00    -0.403 OA 
HETATM   11  C   UNL     1     -10.473  16.668  66.490  1.00  0.00    -0.262 C  
HETATM   12  CA  UNL     1     -11.240  15.626  67.372  1.00  0.00    -0.219 C  
HETATM   13  O   UNL     1     -10.171  16.874  65.339  1.00  0.00    -0.605 OA 
ENDROOT
BRANCH  12  14
HETATM   14  N   UNL     1     -10.870  14.184  67.337  1.00  0.00    -0.284 N  
HETATM   15  C   UNL     1     -11.722  13.174  66.942  1.00  0.00    -0.387 C  
HETATM   16  H   UNL     1      -9.926  13.927  67.623  1.00  0.00     0.000 HD 
HETATM   17  O   UNL     1     -12.867  13.388  66.565  1.00  0.00    -0.108 OA 
BRANCH  15  18
HETATM   18  C   UNL     1     -11.176  11.776  66.994  1.00  0.00    -0.382 A  
HETATM   19  C   UNL     1     -10.522  11.245  65.856  1.00  0.00    -0.259 A  
HETATM   20  C   UNL     1      -9.958   9.972  65.926  1.00  0.00    -0.339 A  
HETATM   21  C   UNL     1     -11.880  10.678  70.576  1.00  0.00    -0.453 A  
HETATM   22  C   UNL     1     -10.003   9.243  67.111  1.00  0.00    -0.276 A  
HETATM   23  C   UNL     1     -11.252  11.024  68.214  1.00  0.00    -0.340 A  
HETATM   24  C   UNL     1     -11.907  11.440  69.403  1.00  0.00    -0.419 A  
HETATM   25  C   UNL     1     -10.624   9.753  68.254  1.00  0.00    -0.271 A  
HETATM   26  C   UNL     1     -10.605   8.997  69.437  1.00  0.00    -0.231 A  
HETATM   27  C   UNL     1     -11.214   9.463  70.598  1.00  0.00    -0.345 A  
BRANCH  19  28
HETATM   28  O   UNL     1     -10.467  12.030  64.729  1.00  0.00    -0.271 OA 
BRANCH  28  29
HETATM   29  C   UNL     1     -10.956  11.475  63.508  1.00  0.00    -0.373 C  
HETATM   30  C   UNL     1     -12.408  11.890  63.348  1.00  0.00    -0.577 C  
ENDBRANCH  28  29
ENDBRANCH  19  28
ENDBRANCH  15  18
ENDBRANCH  12  14
TORSDOF 4
ENDMDL
MODEL        2
REMARK 921   NORMALIZED FREE ENERGY PREDICTED BY IDOCK:   -7.51 KCAL/MOL
REMARK 922        TOTAL FREE ENERGY PREDICTED BY IDOCK:  -10.40 KCAL/MOL
REMARK 923 INTER-LIGAND FREE ENERGY PREDICTED BY IDOCK:   -9.30 KCAL/MOL
REMARK 924 INTRA-LIGAND FREE ENERGY PREDICTED BY IDOCK:   -1.10 KCAL/MOL
REMARK 927      BINDING AFFINITY PREDICTED BY RF-SCORE:    0.00 PKD
ROOT
HETATM    1  C   UNL     1     -10.855  16.114  68.358  1.00  0.00    -0.318 C  
HETATM    2  S   UNL     1      -9.393  15.423  69.229  1.00  0.00    -0.250 SA 
HETATM    3  C   UNL     1      -8.163  16.386  68.230  1.00  0.00    -0.177 C  
HETATM    4  C   UNL     1      -6.934  16.710  69.083  1.00  0.00    -0.227 C  
HETATM    5  CA  UNL     1      -8.946  17.610  67.696  1.00  0.00    -0.240 C  
HETATM    6  C   UNL     1      -7.681  15.471  67.088  1.00  0.00    -0.257 C  
HETATM    7  N   UNL     1     -10.338  17.179  67.482  1.00  0.00    -0.331 N  
HETATM    8  C   UNL     1      -8.979  18.849  68.609  1.00  0.00    -0.350 C  
HETATM    9  OXT UNL     1      -7.998  19.393  69.089  1.00  0.00    -0.329 OA 
HETATM   10  O   UNL     1     -10.227  19.357  68.780  1.00  0.00    -0.419 OA 
HETATM   11  C   UNL     1     -10.650  16.518  66.319  1.00  0.00    -0.223 C  
HETATM   12  CA  UNL     1     -11.364  15.361  67.095  1.00  0.00    -0.203 C  
HETATM   13  O   UNL     1     -10.330  16.832  65.198  1.00  0.00    -0.639 OA 
ENDROOT
BRANCH  12  14
HETATM   14  N   UNL     1     -10.891  13.956  66.966  1.00  0.00    -0.284 N  
HETATM   15  C   UNL     1     -11.552  12.975  66.256  1.00  0.00    -0.360 C  
HETATM   16  H   UNL     1     -10.021  13.701  67.434  1.00  0.00     0.000 HD 
HETATM   17  O   UNL     1     -12.592  13.192  65.649  1.00  0.00    -0.456 OA 
BRANCH  15  18
HETATM   18  C   UNL     1     -10.930  11.609  66.259  1.00  0.00    -0.338 A  
HETATM   19  C   UNL     1     -11.112  10.768  67.384  1.00  0.00    -0.296 A  
HETATM   20  C   UNL     1     -10.589   9.475  67.360  1.00  0.00    -0.337 A  
HETATM   21  C   UNL     1      -9.324  11.353  62.812  1.00  0.00    -0.320 A  
HETATM   22  C   UNL     1      -9.928   9.000  66.232  1.00  0.00    -0.352 A  
HETATM   23  C   UNL     1     -10.227  11.141  65.099  1.00  0.00    -0.347 A  
HETATM   24  C   UNL     1      -9.958  11.902  63.932  1.00  0.00    -0.354 A  
HETATM   25  C   UNL     1      -9.753   9.804  65.102  1.00  0.00    -0.338 A  
HETATM   26  C   UNL     1      -9.117   9.264  63.972  1.00  0.00    -0.014 A  
HETATM   27  C   UNL     1      -8.917  10.028  62.826  1.00  0.00    -0.272 A  
BRANCH  19  28
HETATM   28  O   UNL     1     -11.816  11.274  68.451  1.00  0.00    -0.482 OA 
BRANCH  28  29
HETATM   29  C   UNL     1     -11.309  11.021  69.762  1.00  0.00    -0.292 C  
HETATM   30  C   UNL     1     -12.490  10.885  70.706  1.00  0.00    -0.489 C  
ENDBRANCH  28  29
ENDBRANCH  19  28
ENDBRANCH  15  18
ENDBRANCH  12  14
TORSDOF 4
ENDMDL
MODEL        3
REMARK 921   NORMALIZED FREE ENERGY PREDICTED BY IDOCK:   -7.39 KCAL/MOL
REMARK 922        TOTAL FREE ENERGY PREDICTED BY IDOCK:  -10.26 KCAL/MOL
REMARK 923 INTER-LIGAND FREE ENERGY PREDICTED BY IDOCK:   -9.05 KCAL/MOL
REMARK 924 INTRA-LIGAND FREE ENERGY PREDICTED BY IDOCK:   -1.21 KCAL/MOL
REMARK 927      BINDING AFFINITY PREDICTED BY RF-SCORE:    0.00 PKD
ROOT
HETATM    1  C   UNL     1      -9.371  17.599  67.876  1.00  0.00    -0.268 C  
HETATM    2  S   UNL     1      -8.079  16.755  68.873  1.00  0.00    -0.194 SA 
HETATM    3  C   UNL     1      -7.236  16.000  67.405  1.00  0.00    -0.187 C  
HETATM    4  C   UNL     1      -5.735  15.869  67.672  1.00  0.00    -0.163 C  
HETATM    5  CA  UNL     1      -7.625  16.901  66.207  1.00  0.00    -0.277 C  
HETATM    6  C   UNL     1      -7.784  14.568  67.245  1.00  0.00    -0.177 C  
HETATM    7  N   UNL     1      -8.981  17.414  66.468  1.00  0.00    -0.256 N  
HETATM    8  C   UNL     1      -6.713  18.113  65.943  1.00  0.00    -0.292 C  
HETATM    9  OXT UNL     1      -5.501  18.064  65.813  1.00  0.00    -0.171 OA 
HETATM   10  O   UNL     1      -7.397  19.275  65.782  1.00  0.00    -0.322 OA 
HETATM   11  C   UNL     1     -10.055  16.613  66.167  1.00  0.00    -0.345 C  
HETATM   12  CA  UNL     1     -10.683  16.816  67.586  1.00  0.00    -0.305 C  
HETATM   13  O   UNL     1     -10.235  15.993  65.146  1.00  0.00    -0.511 OA 
ENDROOT
BRANCH  12  14
HETATM   14  N   UNL     1     -10.933  15.652  68.480  1.00  0.00    -0.286 N  
HETATM   15  C   UNL     1     -11.700  14.558  68.135  1.00  0.00    -0.337 C  
HETATM   16  H   UNL     1     -10.510  15.663  69.408  1.00  0.00     0.000 HD 
HETATM   17  O   UNL     1     -12.233  14.449  67.038  1.00  0.00    -0.400 OA 
BRANCH  15  18
HETATM   18  C   UNL     1     -11.856  13.491  69.179  1.00  0.00    -0.386 A  
HETATM   19  C   UNL     1     -12.630  13.759  70.334  1.00  0.00    -0.256 A  
HETATM   20  C   UNL     1     -12.827  12.747  71.273  1.00  0.00    -0.355 A  
HETATM   21  C   UNL     1     -10.007  10.509  67.688  1.00  0.00    -0.202 A  
HETATM   22  C   UNL     1     -12.302  11.475  71.063  1.00  0.00    -0.434 A  
HETATM   23  C   UNL     1     -11.286  12.191  68.963  1.00  0.00    -0.329 A  
HETATM   24  C   UNL     1     -10.470  11.818  67.863  1.00  0.00    -0.219 A  
HETATM   25  C   UNL     1     -11.552  11.180  69.921  1.00  0.00    -0.416 A  
HETATM   26  C   UNL     1     -11.080   9.870  69.734  1.00  0.00    -0.294 A  
HETATM   27  C   UNL     1     -10.326   9.531  68.616  1.00  0.00    -0.229 A  
BRANCH  19  28
HETATM   28  O   UNL     1     -13.163  15.019  70.464  1.00  0.00    -0.315 OA 
BRANCH  28  29
HETATM   29  C   UNL     1     -13.339  15.534  71.785  1.00  0.00    -0.486 C  
HETATM   30  C   UNL     1     -12.033  16.178  72.217  1.00  0.00    -0.637 C  
ENDBRANCH  28  29
ENDBRANCH  19  28
ENDBRANCH  15  18
ENDBRANCH  12  14
TORSDOF 4
ENDMDL
MODEL        4
REMARK 921   NORMALIZED FREE ENERGY PREDICTED BY IDOCK:   -7.25 KCAL/MOL
REMARK 922        TOTAL FREE ENERGY PREDICTED BY IDOCK:  -10.09 KCAL/MOL
REMARK 923 INTER-LIGAND FREE ENERGY PREDICTED BY IDOCK:   -8.77 KCAL/MOL
REMARK 924 INTRA-LIGAND FREE ENERGY PREDICTED BY IDOCK:   -1.32 KCAL/MOL
REMARK 927      BINDING AFFINITY PREDICTED BY RF-SCORE:    0.00 PKD
ROOT
HETATM    1  C   UNL     1     -11.098  15.990  68.254  1.00  0.00    -0.351 C  
HETATM    2  S   UNL     1      -9.524  16.031  69.200  1.00  0.00    -0.251 SA 
HETATM    3  C   UNL     1      -8.460  16.242  67.697  1.00  0.00    -0.168 C  
HETATM    4  C   UNL     1      -7.219  17.068  68.045  1.00  0.00    -0.172 C  
HETATM    5  CA  UNL     1      -9.391  16.857  66.624  1.00  0.00    -0.258 C  
HETATM    6  C   UNL     1      -7.959  14.843  67.287  1.00  0.00    -0.237 C  
HETATM    7  N   UNL     1     -10.744  16.327  66.864  1.00  0.00    -0.267 N  
HETATM    8  C   UNL     1      -9.492  18.393  66.609  1.00  0.00    -0.313 C  
HETATM    9  OXT UNL     1      -8.542  19.158  66.557  1.00  0.00    -0.299 OA 
HETATM   10  O   UNL     1     -10.770  18.848  66.576  1.00  0.00    -0.391 OA 
HETATM   11  C   UNL     1     -11.059  15.083  66.372  1.00  0.00    -0.329 C  
HETATM   12  CA  UNL     1     -11.606  14.605  67.759  1.00  0.00    -0.359 C  
HETATM   13  O   UNL     1     -10.841  14.666  65.260  1.00  0.00    -0.328 OA 
ENDROOT
BRANCH  12  14
HETATM   14  N   UNL     1     -11.004  13.431  68.448  1.00  0.00    -0.256 N  
HETATM   15  C   UNL     1     -11.294  12.117  68.141  1.00  0.00    -0.293 C  
HETATM   16  H   UNL     1     -10.334  13.608  69.197  1.00  0.00     0.000 HD 
HETATM   17  O   UNL     1     -12.071  11.807  67.248  1.00  0.00    -0.595 OA 
BRANCH  15  18
HETATM   18  C   UNL     1     -10.603  11.067  68.962  1.00  0.00    -0.258 A  
HETATM   19  C   UNL     1      -9.235  10.790  68.722  1.00  0.00    -0.189 A  
HETATM   20  C   UNL     1      -8.577   9.861  69.528  1.00  0.00    -0.194 A  
HETATM   21  C   UNL     1     -13.284   9.965  71.438  1.00  0.00    -0.487 A  
HETATM   22  C   UNL     1      -9.242   9.239  70.580  1.00  0.00    -0.311 A  
HETATM   23  C   UNL     1     -11.309  10.414  70.027  1.00  0.00    -0.384 A  
HETATM   24  C   UNL     1     -12.683  10.589  70.339  1.00  0.00    -0.325 A  
HETATM   25  C   UNL     1     -10.586   9.511  70.850  1.00  0.00    -0.395 A  
HETATM   26  C   UNL     1     -11.202   8.891  71.949  1.00  0.00    -0.447 A  
HETATM   27  C   UNL     1     -12.538   9.128  72.253  1.00  0.00    -0.425 A  
BRANCH  19  28
HETATM   28  O   UNL     1      -8.617  11.470  67.700  1.00  0.00    -0.129 OA 
BRANCH  28  29
HETATM   29  C   UNL     1      -8.147  10.711  66.586  1.00  0.00    -0.136 C  
HETATM   30  C   UNL     1      -9.092  10.949  65.421  1.00  0.00    -0.218 C  
ENDBRANCH  28  29
ENDBRANCH  19  28
ENDBRANCH  15  18
ENDBRANCH  12  14
TORSDOF 4
ENDMDL
MODEL        5
REMARK 921   NORMALIZED FREE ENERGY PREDICTED BY IDOCK:   -7.21 KCAL/MOL
REMARK 922        TOTAL FREE ENERGY PREDICTED BY IDOCK:  -10.03 KCAL/MOL
REMARK 923 INTER-LIGAND FREE ENERGY PREDICTED BY IDOCK:   -9.00 KCAL/MOL
REMARK 924 INTRA-LIGAND FREE ENERGY PREDICTED BY IDOCK:   -1.03 KCAL/MOL
REMARK 927      BINDING AFFINITY PREDICTED BY RF-SCORE:    0.00 PKD
ROOT
HETATM    1  C   UNL     1     -11.801   6.588  72.035  1.00  0.00    -0.329 C  
HETATM    2  S   UNL     1     -11.230   6.551  70.290  1.00  0.00    -0.401 SA 
HETATM    3  C   UNL     1      -9.501   6.038  70.716  1.00  0.00    -0.168 C  
HETATM    4  C   UNL     1      -8.921   5.168  69.597  1.00  0.00    -0.137 C  
HETATM    5  CA  UNL     1      -9.611   5.356  72.101  1.00  0.00    -0.154 C  
HETATM    6  C   UNL     1      -8.642   7.316  70.773  1.00  0.00    -0.144 C  
HETATM    7  N   UNL     1     -10.698   6.027  72.834  1.00  0.00    -0.234 N  
HETATM    8  C   UNL     1      -9.918   3.847  72.096  1.00  0.00    -0.173 C  
HETATM    9  OXT UNL     1      -9.291   3.006  71.472  1.00  0.00    -0.109 OA 
HETATM   10  O   UNL     1     -10.930   3.501  72.932  1.00  0.00    -0.100 OA 
HETATM   11  C   UNL     1     -10.424   7.209  73.478  1.00  0.00    -0.380 C  
HETATM   12  CA  UNL     1     -11.648   7.925  72.815  1.00  0.00    -0.329 C  
HETATM   13  O   UNL     1      -9.482   7.443  74.197  1.00  0.00    -0.249 OA 
ENDROOT
BRANCH  12  14
HETATM   14  N   UNL     1     -11.452   9.132  71.965  1.00  0.00    -0.344 N  
HETATM   15  C   UNL     1     -12.476   9.828  71.357  1.00  0.00    -0.387 C  
HETATM   16  H   UNL     1     -10.499   9.465  71.823  1.00  0.00     0.000 HD 
HETATM   17  O   UNL     1     -13.652   9.512  71.484  1.00  0.00    -0.371 OA 
BRANCH  15  18
HETATM   18  C   UNL     1     -12.080  11.009  70.518  1.00  0.00    -0.470 A  
HETATM   19  C   UNL     1     -11.356  10.796  69.321  1.00  0.00    -0.286 A  
HETATM   20  C   UNL     1     -11.044  11.886  68.510  1.00  0.00    -0.290 A  
HETATM   21  C   UNL     1     -13.640  13.965  72.350  1.00  0.00    -0.676 A  
HETATM   22  C   UNL     1     -11.470  13.166  68.851  1.00  0.00    -0.343 A  
HETATM   23  C   UNL     1     -12.503  12.327  70.896  1.00  0.00    -0.371 A  
HETATM   24  C   UNL     1     -13.202  12.663  72.085  1.00  0.00    -0.527 A  
HETATM   25  C   UNL     1     -12.203  13.400  70.017  1.00  0.00    -0.367 A  
HETATM   26  C   UNL     1     -12.647  14.703  70.296  1.00  0.00    -0.370 A  
HETATM   27  C   UNL     1     -13.376  14.983  71.447  1.00  0.00    -0.513 A  
BRANCH  19  28
HETATM   28  O   UNL     1     -11.004   9.504  69.010  1.00  0.00    -0.194 OA 
BRANCH  28  29
HETATM   29  C   UNL     1     -10.034   9.308  67.980  1.00  0.00    -0.182 C  
HETATM   30  C   UNL     1     -10.508   8.166  67.098  1.00  0.00    -0.396 C  
ENDBRANCH  28  29
ENDBRANCH  19  28
ENDBRANCH  15  18
ENDBRANCH  12  14
TORSDOF 4
ENDMDL
MODEL        6
REMARK 921   NORMALIZED FREE ENERGY PREDICTED BY IDOCK:   -7.09 KCAL/MOL
REMARK 922        TOTAL FREE ENERGY PREDICTED BY IDOCK:   -9.89 KCAL/MOL
REMARK 923 INTER-LIGAND FREE ENERGY PREDICTED BY IDOCK:   -8.93 KCAL/MOL
REMARK 924 INTRA-LIGAND FREE ENERGY PREDICTED BY IDOCK:   -0.96 KCAL/MOL
REMARK 927      BINDING AFFINITY PREDICTED BY RF-SCORE:    0.00 PKD
ROOT
HETATM    1  C   UNL     1     -10.602  15.977  67.992  1.00  0.00    -0.295 C  
HETATM    2  S   UNL     1      -9.126  15.613  69.023  1.00  0.00    -0.257 SA 
HETATM    3  C   UNL     1      -7.990  15.394  67.575  1.00  0.00    -0.170 C  
HETATM    4  C   UNL     1      -6.573  15.836  67.948  1.00  0.00    -0.165 C  
HETATM    5  CA  UNL     1      -8.652  16.183  66.419  1.00  0.00    -0.330 C  
HETATM    6  C   UNL     1      -7.917  13.885  67.271  1.00  0.00    -0.147 C  
HETATM    7  N   UNL     1     -10.110  16.096  66.609  1.00  0.00    -0.266 N  
HETATM    8  C   UNL     1      -8.286  17.674  66.314  1.00  0.00    -0.229 C  
HETATM    9  OXT UNL     1      -7.149  18.117  66.275  1.00  0.00    -0.221 OA 
HETATM   10  O   UNL     1      -9.366  18.486  66.183  1.00  0.00    -0.458 OA 
HETATM   11  C   UNL     1     -10.764  14.972  66.168  1.00  0.00    -0.327 C  
HETATM   12  CA  UNL     1     -11.482  14.775  67.545  1.00  0.00    -0.354 C  
HETATM   13  O   UNL     1     -10.639  14.433  65.095  1.00  0.00    -0.357 OA 
ENDROOT
BRANCH  12  14
HETATM   14  N   UNL     1     -11.288  13.525  68.330  1.00  0.00    -0.272 N  
HETATM   15  C   UNL     1     -11.766  12.288  67.952  1.00  0.00    -0.347 C  
HETATM   16  H   UNL     1     -10.768  13.588  69.206  1.00  0.00     0.000 HD 
HETATM   17  O   UNL     1     -12.385  12.112  66.911  1.00  0.00    -0.402 OA 
BRANCH  15  18
HETATM   18  C   UNL     1     -11.489  11.146  68.887  1.00  0.00    -0.363 A  
HETATM   19  C   UNL     1     -11.921  11.233  70.233  1.00  0.00    -0.379 A  
HETATM   20  C   UNL     1     -11.721  10.147  71.084  1.00  0.00    -0.453 A  
HETATM   21  C   UNL     1      -9.822   8.547  66.651  1.00  0.00    -0.342 A  
HETATM   22  C   UNL     1     -11.137   8.976  70.611  1.00  0.00    -0.314 A  
HETATM   23  C   UNL     1     -10.862   9.954  68.393  1.00  0.00    -0.263 A  
HETATM   24  C   UNL     1     -10.361   9.766  67.077  1.00  0.00    -0.305 A  
HETATM   25  C   UNL     1     -10.721   8.858  69.282  1.00  0.00    -0.177 A  
HETATM   26  C   UNL     1     -10.177   7.640  68.842  1.00  0.00    -0.217 A  
HETATM   27  C   UNL     1      -9.745   7.478  67.530  1.00  0.00    -0.190 A  
BRANCH  19  28
HETATM   28  O   UNL     1     -12.535  12.397  70.631  1.00  0.00    -0.315 OA 
BRANCH  28  29
HETATM   29  C   UNL     1     -13.281  12.372  71.848  1.00  0.00    -0.382 C  
HETATM   30  C   UNL     1     -13.514  13.807  72.288  1.00  0.00    -0.638 C  
ENDBRANCH  28  29
ENDBRANCH  19  28
ENDBRANCH  15  18
ENDBRANCH  12  14
TORSDOF 4
ENDMDL
MODEL        7
REMARK 921   NORMALIZED FREE ENERGY PREDICTED BY IDOCK:   -7.05 KCAL/MOL
REMARK 922        TOTAL FREE ENERGY PREDICTED BY IDOCK:   -9.84 KCAL/MOL
REMARK 923 INTER-LIGAND FREE ENERGY PREDICTED BY IDOCK:   -8.52 KCAL/MOL
REMARK 924 INTRA-LIGAND FREE ENERGY PREDICTED BY IDOCK:   -1.31 KCAL/MOL
REMARK 927      BINDING AFFINITY PREDICTED BY RF-SCORE:    0.00 PKD
ROOT
HETATM    1  C   UNL     1     -11.010  15.421  68.090  1.00  0.00    -0.297 C  
HETATM    2  S   UNL     1      -9.418  15.473  69.006  1.00  0.00    -0.259 SA 
HETATM    3  C   UNL     1      -8.375  15.223  67.495  1.00  0.00    -0.175 C  
HETATM    4  C   UNL     1      -7.036  15.946  67.657  1.00  0.00    -0.187 C  
HETATM    5  CA  UNL     1      -9.253  15.701  66.313  1.00  0.00    -0.330 C  
HETATM    6  C   UNL     1      -8.056  13.718  67.399  1.00  0.00    -0.188 C  
HETATM    7  N   UNL     1     -10.653  15.405  66.661  1.00  0.00    -0.302 N  
HETATM    8  C   UNL     1      -9.169  17.198  65.965  1.00  0.00    -0.112 C  
HETATM    9  OXT UNL     1      -8.136  17.811  65.749  1.00  0.00    -0.541 OA 
HETATM   10  O   UNL     1     -10.385  17.788  65.832  1.00  0.00    -0.517 OA 
HETATM   11  C   UNL     1     -11.127  14.132  66.450  1.00  0.00    -0.320 C  
HETATM   12  CA  UNL     1     -11.692  14.035  67.907  1.00  0.00    -0.362 C  
HETATM   13  O   UNL     1     -10.989  13.462  65.456  1.00  0.00    -0.280 OA 
ENDROOT
BRANCH  12  14
HETATM   14  N   UNL     1     -11.218  12.973  68.836  1.00  0.00    -0.266 N  
HETATM   15  C   UNL     1     -11.473  11.627  68.672  1.00  0.00    -0.290 C  
HETATM   16  H   UNL     1     -10.668  13.258  69.647  1.00  0.00     0.000 HD 
HETATM   17  O   UNL     1     -12.108  11.190  67.721  1.00  0.00    -0.606 OA 
BRANCH  15  18
HETATM   18  C   UNL     1     -10.930  10.707  69.726  1.00  0.00    -0.340 A  
HETATM   19  C   UNL     1     -11.743  10.366  70.835  1.00  0.00    -0.360 A  
HETATM   20  C   UNL     1     -11.262   9.461  71.780  1.00  0.00    -0.359 A  
HETATM   21  C   UNL     1      -7.491   9.751  68.388  1.00  0.00    -0.083 A  
HETATM   22  C   UNL     1     -10.013   8.869  71.621  1.00  0.00    -0.397 A  
HETATM   23  C   UNL     1      -9.629  10.123  69.564  1.00  0.00    -0.243 A  
HETATM   24  C   UNL     1      -8.717  10.413  68.515  1.00  0.00    -0.135 A  
HETATM   25  C   UNL     1      -9.200   9.173  70.526  1.00  0.00    -0.286 A  
HETATM   26  C   UNL     1      -7.966   8.516  70.388  1.00  0.00    -0.099 A  
HETATM   27  C   UNL     1      -7.122   8.790  69.316  1.00  0.00    -0.062 A  
BRANCH  19  28
HETATM   28  O   UNL     1     -12.987  10.946  70.914  1.00  0.00    -0.331 OA 
BRANCH  28  29
HETATM   29  C   UNL     1     -13.279  11.739  72.065  1.00  0.00    -0.355 C  
HETATM   30  C   UNL     1     -13.156  13.201  71.674  1.00  0.00    -0.444 C  
ENDBRANCH  28  29
ENDBRANCH  19  28
ENDBRANCH  15  18
ENDBRANCH  12  14
TORSDOF 4
ENDMDL
MODEL        8
REMARK 921   NORMALIZED FREE ENERGY PREDICTED BY IDOCK:   -6.96 KCAL/MOL
REMARK 922        TOTAL FREE ENERGY PREDICTED BY IDOCK:   -9.73 KCAL/MOL
REMARK 923 INTER-LIGAND FREE ENERGY PREDICTED BY IDOCK:   -8.45 KCAL/MOL
REMARK 924 INTRA-LIGAND FREE ENERGY PREDICTED BY IDOCK:   -1.28 KCAL/MOL
REMARK 927      BINDING AFFINITY PREDICTED BY RF-SCORE:    0.00 PKD
ROOT
HETATM    1  C   UNL     1      -9.598  13.818  66.811  1.00  0.00    -0.279 C  
HETATM    2  S   UNL     1     -10.055  12.828  65.333  1.00  0.00    -0.221 SA 
HETATM    3  C   UNL     1     -11.691  13.667  65.098  1.00  0.00    -0.331 C  
HETATM    4  C   UNL     1     -12.048  13.713  63.611  1.00  0.00    -0.397 C  
HETATM    5  CA  UNL     1     -11.543  15.043  65.792  1.00  0.00    -0.171 C  
HETATM    6  C   UNL     1     -12.759  12.792  65.783  1.00  0.00     0.147 C  
HETATM    7  N   UNL     1     -10.631  14.861  66.934  1.00  0.00    -0.294 N  
HETATM    8  C   UNL     1     -10.980  16.185  64.926  1.00  0.00    -0.349 C  
HETATM    9  OXT UNL     1     -11.416  16.520  63.837  1.00  0.00    -1.145 OA 
HETATM   10  O   UNL     1      -9.972  16.868  65.527  1.00  0.00    -0.572 OA 
HETATM   11  C   UNL     1     -11.141  14.365  68.109  1.00  0.00    -0.264 C  
HETATM   12  CA  UNL     1     -10.024  13.272  68.204  1.00  0.00    -0.234 C  
HETATM   13  O   UNL     1     -12.147  14.722  68.672  1.00  0.00    -0.277 OA 
ENDROOT
BRANCH  12  14
HETATM   14  N   UNL     1     -10.376  11.826  68.233  1.00  0.00    -0.199 N  
HETATM   15  C   UNL     1      -9.503  10.820  68.593  1.00  0.00    -0.188 C  
HETATM   16  H   UNL     1     -11.326  11.562  67.970  1.00  0.00     0.000 HD 
HETATM   17  O   UNL     1      -8.351  11.043  68.939  1.00  0.00    -0.150 OA 
BRANCH  15  18
HETATM   18  C   UNL     1     -10.036   9.418  68.540  1.00  0.00    -0.208 A  
HETATM   19  C   UNL     1     -10.123   8.757  67.291  1.00  0.00    -0.236 A  
HETATM   20  C   UNL     1     -10.557   7.432  67.249  1.00  0.00    -0.393 A  
HETATM   21  C   UNL     1     -10.643   8.557  72.203  1.00  0.00    -0.419 A  
HETATM   22  C   UNL     1     -10.867   6.752  68.423  1.00  0.00    -0.284 A  
HETATM   23  C   UNL     1     -10.378   8.737  69.756  1.00  0.00    -0.214 A  
HETATM   24  C   UNL     1     -10.360   9.307  71.056  1.00  0.00    -0.388 A  
HETATM   25  C   UNL     1     -10.770   7.376  69.670  1.00  0.00    -0.245 A  
HETATM   26  C   UNL     1     -11.053   6.635  70.829  1.00  0.00    -0.336 A  
HETATM   27  C   UNL     1     -10.974   7.215  72.091  1.00  0.00    -0.274 A  
BRANCH  19  28
HETATM   28  O   UNL     1      -9.758   9.463  66.169  1.00  0.00    -0.224 OA 
BRANCH  28  29
HETATM   29  C   UNL     1      -8.731   8.913  65.342  1.00  0.00    -0.191 C  
HETATM   30  C   UNL     1      -7.482   9.758  65.516  1.00  0.00    -0.115 C  
ENDBRANCH  28  29
ENDBRANCH  19  28
ENDBRANCH  15  18
ENDBRANCH  12  14
TORSDOF 4
ENDMDL
MODEL        9
REMARK 921   NORMALIZED FREE ENERGY PREDICTED BY IDOCK:   -6.84 KCAL/MOL
REMARK 922        TOTAL FREE ENERGY PREDICTED BY IDOCK:   -9.58 KCAL/MOL
REMARK 923 INTER-LIGAND FREE ENERGY PREDICTED BY IDOCK:   -8.52 KCAL/MOL
REMARK 924 INTRA-LIGAND FREE ENERGY PREDICTED BY IDOCK:   -1.06 KCAL/MOL
REMARK 927      BINDING AFFINITY PREDICTED BY RF-SCORE:    0.00 PKD
ROOT
HETATM    1  C   UNL     1     -10.163  17.964  68.270  1.00  0.00    -0.388 C  
HETATM    2  S   UNL     1      -8.460  17.411  68.682  1.00  0.00    -0.225 SA 
HETATM    3  C   UNL     1      -7.714  18.066  67.117  1.00  0.00    -0.218 C  
HETATM    4  C   UNL     1      -6.271  18.509  67.370  1.00  0.00    -0.185 C  
HETATM    5  CA  UNL     1      -8.680  19.179  66.643  1.00  0.00    -0.320 C  
HETATM    6  C   UNL     1      -7.650  16.898  66.114  1.00  0.00    -0.230 C  
HETATM    7  N   UNL     1     -10.039  18.782  67.051  1.00  0.00    -0.337 N  
HETATM    8  C   UNL     1      -8.422  20.590  67.203  1.00  0.00    -0.275 C  
HETATM    9  OXT UNL     1      -7.352  21.177  67.159  1.00  0.00    -0.400 OA 
HETATM   10  O   UNL     1      -9.537  21.185  67.697  1.00  0.00    -0.255 OA 
HETATM   11  C   UNL     1     -10.730  17.897  66.261  1.00  0.00    -0.116 C  
HETATM   12  CA  UNL     1     -11.070  16.978  67.482  1.00  0.00    -0.004 C  
HETATM   13  O   UNL     1     -10.852  17.938  65.061  1.00  0.00    -0.767 OA 
ENDROOT
BRANCH  12  14
HETATM   14  N   UNL     1     -10.628  15.556  67.509  1.00  0.00    -0.290 N  
HETATM   15  C   UNL     1     -11.357  14.506  66.990  1.00  0.00    -0.349 C  
HETATM   16  H   UNL     1      -9.728  15.345  67.940  1.00  0.00     0.000 HD 
HETATM   17  O   UNL     1     -12.438  14.665  66.439  1.00  0.00    -0.206 OA 
BRANCH  15  18
HETATM   18  C   UNL     1     -10.756  13.138  67.131  1.00  0.00    -0.263 A  
HETATM   19  C   UNL     1     -10.583  12.587  68.424  1.00  0.00    -0.242 A  
HETATM   20  C   UNL     1     -10.084  11.291  68.552  1.00  0.00    -0.210 A  
HETATM   21  C   UNL     1     -10.269  12.002  63.525  1.00  0.00    -0.477 A  
HETATM   22  C   UNL     1      -9.794  10.530  67.423  1.00  0.00    -0.204 A  
HETATM   23  C   UNL     1     -10.435  12.373  65.959  1.00  0.00    -0.281 A  
HETATM   24  C   UNL     1     -10.537  12.832  64.619  1.00  0.00    -0.371 A  
HETATM   25  C   UNL     1      -9.975  11.043  66.136  1.00  0.00    -0.277 A  
HETATM   26  C   UNL     1      -9.708  10.221  65.029  1.00  0.00    -0.370 A  
HETATM   27  C   UNL     1      -9.870  10.691  63.730  1.00  0.00    -0.394 A  
BRANCH  19  28
HETATM   28  O   UNL     1     -10.932  13.368  69.500  1.00  0.00    -0.107 OA 
BRANCH  28  29
HETATM   29  C   UNL     1     -12.093  12.994  70.244  1.00  0.00    -0.314 C  
HETATM   30  C   UNL     1     -12.472  14.158  71.143  1.00  0.00    -0.445 C  
ENDBRANCH  28  29
ENDBRANCH  19  28
ENDBRANCH  15  18
ENDBRANCH  12  14
TORSDOF 4
ENDMDL
MODEL       10
REMARK 921   NORMALIZED FREE ENERGY PREDICTED BY IDOCK:   -6.76 KCAL/MOL
REMARK 922        TOTAL FREE ENERGY PREDICTED BY IDOCK:   -9.48 KCAL/MOL
REMARK 923 INTER-LIGAND FREE ENERGY PREDICTED BY IDOCK:   -8.37 KCAL/MOL
REMARK 924 INTRA-LIGAND FREE ENERGY PREDICTED BY IDOCK:   -1.11 KCAL/MOL
REMARK 927      BINDING AFFINITY PREDICTED BY RF-SCORE:    0.00 PKD
ROOT
HETATM    1  C   UNL     1     -12.232  13.277  66.171  1.00  0.00    -0.405 C  
HETATM    2  S   UNL     1     -11.555  14.352  67.498  1.00  0.00    -0.388 SA 
HETATM    3  C   UNL     1     -10.216  15.066  66.433  1.00  0.00    -0.277 C  
HETATM    4  C   UNL     1      -9.918  16.506  66.861  1.00  0.00    -0.273 C  
HETATM    5  CA  UNL     1     -10.719  14.893  64.980  1.00  0.00    -0.431 C  
HETATM    6  C   UNL     1      -8.935  14.252  66.697  1.00  0.00    -0.212 C  
HETATM    7  N   UNL     1     -11.522  13.658  64.939  1.00  0.00    -0.328 N  
HETATM    8  C   UNL     1     -11.592  16.031  64.420  1.00  0.00    -0.212 C  
HETATM    9  OXT UNL     1     -11.288  17.214  64.421  1.00  0.00    -1.115 OA 
HETATM   10  O   UNL     1     -12.735  15.594  63.832  1.00  0.00    -0.697 OA 
HETATM   11  C   UNL     1     -10.870  12.455  64.818  1.00  0.00    -0.304 C  
HETATM   12  CA  UNL     1     -11.643  11.844  66.034  1.00  0.00    -0.227 C  
HETATM   13  O   UNL     1      -9.987  12.183  64.041  1.00  0.00    -0.312 OA 
ENDROOT
BRANCH  12  14
HETATM   14  N   UNL     1     -10.908  11.348  67.230  1.00  0.00    -0.247 N  
HETATM   15  C   UNL     1     -10.512  10.038  67.410  1.00  0.00    -0.260 C  
HETATM   16  H   UNL     1     -10.683  12.019  67.964  1.00  0.00     0.000 HD 
HETATM   17  O   UNL     1     -10.723   9.167  66.577  1.00  0.00    -0.107 OA 
BRANCH  15  18
HETATM   18  C   UNL     1      -9.799   9.723  68.693  1.00  0.00    -0.168 A  
HETATM   19  C   UNL     1     -10.532   9.696  69.904  1.00  0.00    -0.253 A  
HETATM   20  C   UNL     1      -9.883   9.341  71.086  1.00  0.00    -0.342 A  
HETATM   21  C   UNL     1      -6.231   8.987  67.572  1.00  0.00    -0.055 A  
HETATM   22  C   UNL     1      -8.539   8.980  71.074  1.00  0.00    -0.264 A  
HETATM   23  C   UNL     1      -8.406   9.379  68.671  1.00  0.00    -0.117 A  
HETATM   24  C   UNL     1      -7.567   9.402  67.526  1.00  0.00    -0.091 A  
HETATM   25  C   UNL     1      -7.799   8.979  69.889  1.00  0.00    -0.090 A  
HETATM   26  C   UNL     1      -6.457   8.566  69.922  1.00  0.00    -0.035 A  
HETATM   27  C   UNL     1      -5.681   8.553  68.768  1.00  0.00    -0.040 A  
BRANCH  19  28
HETATM   28  O   UNL     1     -11.868  10.015  69.847  1.00  0.00    -0.185 OA 
BRANCH  28  29
HETATM   29  C   UNL     1     -12.356  11.001  70.758  1.00  0.00    -0.398 C  
HETATM   30  C   UNL     1     -13.276  10.313  71.751  1.00  0.00    -0.534 C  
ENDBRANCH  28  29
ENDBRANCH  19  28
ENDBRANCH  15  18
ENDBRANCH  12  14
TORSDOF 4
ENDMDL
MODEL       11
REMARK 921   NORMALIZED FREE ENERGY PREDICTED BY IDOCK:   -6.74 KCAL/MOL
REMARK 922        TOTAL FREE ENERGY PREDICTED BY IDOCK:   -9.45 KCAL/MOL
REMARK 923 INTER-LIGAND FREE ENERGY PREDICTED BY IDOCK:   -8.75 KCAL/MOL
REMARK 924 INTRA-LIGAND FREE ENERGY PREDICTED BY IDOCK:   -0.71 KCAL/MOL
REMARK 927      BINDING AFFINITY PREDICTED BY RF-SCORE:    0.00 PKD
ROOT
HETATM    1  C   UNL     1      -9.569  17.862  68.089  1.00  0.00    -0.306 C  
HETATM    2  S   UNL     1      -8.217  16.913  68.894  1.00  0.00    -0.170 SA 
HETATM    3  C   UNL     1      -7.380  16.475  67.300  1.00  0.00    -0.166 C  
HETATM    4  C   UNL     1      -5.868  16.368  67.513  1.00  0.00    -0.182 C  
HETATM    5  CA  UNL     1      -7.837  17.558  66.292  1.00  0.00    -0.287 C  
HETATM    6  C   UNL     1      -7.870  15.071  66.893  1.00  0.00    -0.056 C  
HETATM    7  N   UNL     1      -9.207  17.952  66.664  1.00  0.00    -0.271 N  
HETATM    8  C   UNL     1      -6.985  18.839  66.236  1.00  0.00    -0.235 C  
HETATM    9  OXT UNL     1      -5.775  18.871  66.078  1.00  0.00    -0.150 OA 
HETATM   10  O   UNL     1      -7.722  19.978  66.299  1.00  0.00    -0.294 OA 
HETATM   11  C   UNL     1     -10.253  17.169  66.241  1.00  0.00    -0.334 C  
HETATM   12  CA  UNL     1     -10.853  17.084  67.684  1.00  0.00    -0.244 C  
HETATM   13  O   UNL     1     -10.431  16.735  65.128  1.00  0.00    -0.658 OA 
ENDROOT
BRANCH  12  14
HETATM   14  N   UNL     1     -11.031  15.767  68.356  1.00  0.00    -0.306 N  
HETATM   15  C   UNL     1     -11.792  14.733  67.851  1.00  0.00    -0.297 C  
HETATM   16  H   UNL     1     -10.559  15.620  69.248  1.00  0.00     0.000 HD 
HETATM   17  O   UNL     1     -12.380  14.812  66.780  1.00  0.00    -0.144 OA 
BRANCH  15  18
HETATM   18  C   UNL     1     -11.869  13.487  68.684  1.00  0.00    -0.404 A  
HETATM   19  C   UNL     1     -11.216  12.313  68.237  1.00  0.00    -0.267 A  
HETATM   20  C   UNL     1     -11.234  11.174  69.042  1.00  0.00    -0.318 A  
HETATM   21  C   UNL     1     -13.813  14.598  71.769  1.00  0.00    -0.530 A  
HETATM   22  C   UNL     1     -11.853  11.198  70.288  1.00  0.00    -0.455 A  
HETATM   23  C   UNL     1     -12.535  13.518  69.956  1.00  0.00    -0.231 A  
HETATM   24  C   UNL     1     -13.247  14.623  70.490  1.00  0.00    -0.167 A  
HETATM   25  C   UNL     1     -12.487  12.351  70.760  1.00  0.00    -0.356 A  
HETATM   26  C   UNL     1     -13.061  12.337  72.043  1.00  0.00    -0.461 A  
HETATM   27  C   UNL     1     -13.706  13.459  72.553  1.00  0.00    -0.636 A  
BRANCH  19  28
HETATM   28  O   UNL     1     -10.579  12.363  67.020  1.00  0.00    -0.222 OA 
BRANCH  28  29
HETATM   29  C   UNL     1     -10.969  11.414  66.026  1.00  0.00    -0.226 C  
HETATM   30  C   UNL     1     -11.766  12.146  64.961  1.00  0.00    -0.371 C  
ENDBRANCH  28  29
ENDBRANCH  19  28
ENDBRANCH  15  18
ENDBRANCH  12  14
TORSDOF 4
ENDMDL
MODEL       12
REMARK 921   NORMALIZED FREE ENERGY PREDICTED BY IDOCK:   -6.74 KCAL/MOL
REMARK 922        TOTAL FREE ENERGY PREDICTED BY IDOCK:   -9.45 KCAL/MOL
REMARK 923 INTER-LIGAND FREE ENERGY PREDICTED BY IDOCK:   -8.09 KCAL/MOL
REMARK 924 INTRA-LIGAND FREE ENERGY PREDICTED BY IDOCK:   -1.36 KCAL/MOL
REMARK 927      BINDING AFFINITY PREDICTED BY RF-SCORE:    0.00 PKD
ROOT
HETATM    1  C   UNL     1      -7.959   9.606  68.075  1.00  0.00    -0.097 C  
HETATM    2  S   UNL     1      -7.592  10.068  69.815  1.00  0.00    -0.175 SA 
HETATM    3  C   UNL     1      -8.576   8.676  70.543  1.00  0.00    -0.156 C  
HETATM    4  C   UNL     1      -7.945   8.222  71.862  1.00  0.00    -0.165 C  
HETATM    5  CA  UNL     1      -8.642   7.601  69.431  1.00  0.00    -0.136 C  
HETATM    6  C   UNL     1      -9.972   9.230  70.888  1.00  0.00    -0.367 C  
HETATM    7  N   UNL     1      -8.655   8.309  68.139  1.00  0.00    -0.132 N  
HETATM    8  C   UNL     1      -7.482   6.589  69.392  1.00  0.00    -0.094 C  
HETATM    9  OXT UNL     1      -7.104   5.919  70.340  1.00  0.00    -0.065 OA 
HETATM   10  O   UNL     1      -6.944   6.435  68.156  1.00  0.00    -0.074 OA 
HETATM   11  C   UNL     1      -9.848   8.808  67.677  1.00  0.00    -0.180 C  
HETATM   12  CA  UNL     1      -9.227  10.222  67.418  1.00  0.00    -0.141 C  
HETATM   13  O   UNL     1     -10.909   8.233  67.636  1.00  0.00    -0.167 OA 
ENDROOT
BRANCH  12  14
HETATM   14  N   UNL     1      -9.770  11.427  68.104  1.00  0.00    -0.186 N  
HETATM   15  C   UNL     1     -11.060  11.893  67.951  1.00  0.00    -0.242 C  
HETATM   16  H   UNL     1      -9.148  11.941  68.728  1.00  0.00     0.000 HD 
HETATM   17  O   UNL     1     -11.881  11.332  67.238  1.00  0.00    -0.562 OA 
BRANCH  15  18
HETATM   18  C   UNL     1     -11.418  13.138  68.710  1.00  0.00    -0.348 A  
HETATM   19  C   UNL     1     -11.149  14.403  68.131  1.00  0.00    -0.264 A  
HETATM   20  C   UNL     1     -11.540  15.558  68.807  1.00  0.00    -0.390 A  
HETATM   21  C   UNL     1     -13.112  11.810  71.855  1.00  0.00    -0.482 A  
HETATM   22  C   UNL     1     -12.219  15.473  70.018  1.00  0.00    -0.380 A  
HETATM   23  C   UNL     1     -12.094  13.037  69.971  1.00  0.00    -0.367 A  
HETATM   24  C   UNL     1     -12.387  11.830  70.658  1.00  0.00    -0.421 A  
HETATM   25  C   UNL     1     -12.514  14.237  70.600  1.00  0.00    -0.428 A  
HETATM   26  C   UNL     1     -13.240  14.203  71.802  1.00  0.00    -0.450 A  
HETATM   27  C   UNL     1     -13.553  12.996  72.419  1.00  0.00    -0.628 A  
BRANCH  19  28
HETATM   28  O   UNL     1     -10.518  14.423  66.910  1.00  0.00    -0.266 OA 
BRANCH  28  29
HETATM   29  C   UNL     1     -11.117  15.190  65.865  1.00  0.00    -0.319 C  
HETATM   30  C   UNL     1     -12.031  14.272  65.071  1.00  0.00    -0.412 C  
ENDBRANCH  28  29
ENDBRANCH  19  28
ENDBRANCH  15  18
ENDBRANCH  12  14
TORSDOF 4
ENDMDL
MODEL       13
REMARK 921   NORMALIZED FREE ENERGY PREDICTED BY IDOCK:   -6.69 KCAL/MOL
REMARK 922        TOTAL FREE ENERGY PREDICTED BY IDOCK:   -9.39 KCAL/MOL
REMARK 923 INTER-LIGAND FREE ENERGY PREDICTED BY IDOCK:   -7.96 KCAL/MOL
REMARK 924 INTRA-LIGAND FREE ENERGY PREDICTED BY IDOCK:   -1.43 KCAL/MOL
REMARK 927      BINDING AFFINITY PREDICTED BY RF-SCORE:    0.00 PKD
ROOT
HETATM    1  C   UNL     1      -7.536  16.368  69.075  1.00  0.00    -0.232 C  
HETATM    2  S   UNL     1      -6.754  16.274  67.415  1.00  0.00    -0.192 SA 
HETATM    3  C   UNL     1      -7.729  17.686  66.717  1.00  0.00    -0.226 C  
HETATM    4  C   UNL     1      -6.897  18.431  65.670  1.00  0.00    -0.278 C  
HETATM    5  CA  UNL     1      -8.164  18.525  67.944  1.00  0.00    -0.261 C  
HETATM    6  C   UNL     1      -8.940  17.088  65.974  1.00  0.00    -0.168 C  
HETATM    7  N   UNL     1      -8.361  17.589  69.065  1.00  0.00    -0.126 N  
HETATM    8  C   UNL     1      -7.176  19.608  68.413  1.00  0.00    -0.320 C  
HETATM    9  OXT UNL     1      -6.693  20.474  67.700  1.00  0.00    -0.265 OA 
HETATM   10  O   UNL     1      -6.935  19.574  69.748  1.00  0.00    -0.259 OA 
HETATM   11  C   UNL     1      -9.552  16.911  69.152  1.00  0.00    -0.158 C  
HETATM   12  CA  UNL     1      -8.826  15.533  69.313  1.00  0.00    -0.256 C  
HETATM   13  O   UNL     1     -10.661  17.374  69.041  1.00  0.00    -0.323 OA 
ENDROOT
BRANCH  12  14
HETATM   14  N   UNL     1      -9.055  14.435  68.334  1.00  0.00    -0.189 N  
HETATM   15  C   UNL     1     -10.231  13.722  68.228  1.00  0.00    -0.245 C  
HETATM   16  H   UNL     1      -8.293  14.195  67.700  1.00  0.00     0.000 HD 
HETATM   17  O   UNL     1     -11.205  13.951  68.933  1.00  0.00    -0.246 OA 
BRANCH  15  18
HETATM   18  C   UNL     1     -10.266  12.635  67.192  1.00  0.00    -0.230 A  
HETATM   19  C   UNL     1      -9.779  11.347  67.524  1.00  0.00    -0.178 A  
HETATM   20  C   UNL     1      -9.871  10.321  66.584  1.00  0.00    -0.256 A  
HETATM   21  C   UNL     1     -11.978  14.293  64.217  1.00  0.00    -0.449 A  
HETATM   22  C   UNL     1     -10.467  10.547  65.347  1.00  0.00    -0.222 A  
HETATM   23  C   UNL     1     -10.860  12.888  65.910  1.00  0.00    -0.294 A  
HETATM   24  C   UNL     1     -11.350  14.141  65.459  1.00  0.00    -0.319 A  
HETATM   25  C   UNL     1     -10.974  11.803  65.004  1.00  0.00    -0.357 A  
HETATM   26  C   UNL     1     -11.605  11.969  63.760  1.00  0.00    -0.565 A  
HETATM   27  C   UNL     1     -12.120  13.202  63.374  1.00  0.00    -0.558 A  
BRANCH  19  28
HETATM   28  O   UNL     1      -9.245  11.172  68.778  1.00  0.00    -0.180 OA 
BRANCH  28  29
HETATM   29  C   UNL     1      -9.732  10.082  69.562  1.00  0.00    -0.233 C  
HETATM   30  C   UNL     1     -11.129  10.435  70.042  1.00  0.00    -0.379 C  
ENDBRANCH  28  29
ENDBRANCH  19  28
ENDBRANCH  15  18
ENDBRANCH  12  14
TORSDOF 4
ENDMDL
MODEL       14
REMARK 921   NORMALIZED FREE ENERGY PREDICTED BY IDOCK:   -6.69 KCAL/MOL
REMARK 922        TOTAL FREE ENERGY PREDICTED BY IDOCK:   -9.39 KCAL/MOL
REMARK 923 INTER-LIGAND FREE ENERGY PREDICTED BY IDOCK:   -8.18 KCAL/MOL
REMARK 924 INTRA-LIGAND FREE ENERGY PREDICTED BY IDOCK:   -1.21 KCAL/MOL
REMARK 927      BINDING AFFINITY PREDICTED BY RF-SCORE:    0.00 PKD
ROOT
HETATM    1  C   UNL     1      -8.255   9.252  69.006  1.00  0.00    -0.111 C  
HETATM    2  S   UNL     1      -8.208   9.015  70.828  1.00  0.00    -0.190 SA 
HETATM    3  C   UNL     1      -9.065   7.373  70.780  1.00  0.00    -0.151 C  
HETATM    4  C   UNL     1      -8.564   6.487  71.924  1.00  0.00    -0.129 C  
HETATM    5  CA  UNL     1      -8.813   6.825  69.354  1.00  0.00    -0.135 C  
HETATM    6  C   UNL     1     -10.562   7.627  71.040  1.00  0.00    -0.226 C  
HETATM    7  N   UNL     1      -8.751   7.983  68.446  1.00  0.00    -0.131 N  
HETATM    8  C   UNL     1      -7.522   6.011  69.155  1.00  0.00    -0.086 C  
HETATM    9  OXT UNL     1      -7.184   5.054  69.833  1.00  0.00    -0.053 OA 
HETATM   10  O   UNL     1      -6.799   6.405  68.075  1.00  0.00    -0.065 OA 
HETATM   11  C   UNL     1      -9.929   8.524  67.991  1.00  0.00    -0.183 C  
HETATM   12  CA  UNL     1      -9.496   9.971  68.405  1.00  0.00    -0.141 C  
HETATM   13  O   UNL     1     -10.876   7.927  67.539  1.00  0.00    -0.205 OA 
ENDROOT
BRANCH  12  14
HETATM   14  N   UNL     1     -10.303  10.756  69.379  1.00  0.00    -0.331 N  
HETATM   15  C   UNL     1     -11.554  11.274  69.113  1.00  0.00    -0.319 C  
HETATM   16  H   UNL     1      -9.906  10.921  70.304  1.00  0.00     0.000 HD 
HETATM   17  O   UNL     1     -12.117  11.112  68.039  1.00  0.00    -0.635 OA 
BRANCH  15  18
HETATM   18  C   UNL     1     -12.204  12.057  70.216  1.00  0.00    -0.348 A  
HETATM   19  C   UNL     1     -12.971  11.375  71.192  1.00  0.00    -0.253 A  
HETATM   20  C   UNL     1     -13.522  12.094  72.252  1.00  0.00    -0.298 A  
HETATM   21  C   UNL     1     -11.029  15.628  69.585  1.00  0.00    -0.288 A  
HETATM   22  C   UNL     1     -13.292  13.461  72.374  1.00  0.00    -0.629 A  
HETATM   23  C   UNL     1     -11.982  13.472  70.315  1.00  0.00    -0.386 A  
HETATM   24  C   UNL     1     -11.261  14.263  69.383  1.00  0.00    -0.313 A  
HETATM   25  C   UNL     1     -12.522  14.154  71.435  1.00  0.00    -0.438 A  
HETATM   26  C   UNL     1     -12.284  15.525  71.626  1.00  0.00    -0.468 A  
HETATM   27  C   UNL     1     -11.527  16.256  70.716  1.00  0.00    -0.327 A  
BRANCH  19  28
HETATM   28  O   UNL     1     -13.124  10.017  71.045  1.00  0.00    -0.375 OA 
BRANCH  28  29
HETATM   29  C   UNL     1     -13.758   9.301  72.107  1.00  0.00    -0.453 C  
HETATM   30  C   UNL     1     -14.286   7.993  71.544  1.00  0.00    -0.513 C  
ENDBRANCH  28  29
ENDBRANCH  19  28
ENDBRANCH  15  18
ENDBRANCH  12  14
TORSDOF 4
ENDMDL
MODEL       15
REMARK 921   NORMALIZED FREE ENERGY PREDICTED BY IDOCK:   -6.68 KCAL/MOL
REMARK 922        TOTAL FREE ENERGY PREDICTED BY IDOCK:   -9.38 KCAL/MOL
REMARK 923 INTER-LIGAND FREE ENERGY PREDICTED BY IDOCK:   -8.18 KCAL/MOL
REMARK 924 INTRA-LIGAND FREE ENERGY PREDICTED BY IDOCK:   -1.19 KCAL/MOL
REMARK 927      BINDING AFFINITY PREDICTED BY RF-SCORE:    0.00 PKD
ROOT
HETATM    1  C   UNL     1     -10.635   7.644  70.381  1.00  0.00    -0.230 C  
HETATM    2  S   UNL     1      -9.980   8.189  68.753  1.00  0.00    -0.194 SA 
HETATM    3  C   UNL     1      -8.203   8.065  69.265  1.00  0.00    -0.127 C  
HETATM    4  C   UNL     1      -7.336   7.683  68.063  1.00  0.00    -0.099 C  
HETATM    5  CA  UNL     1      -8.190   7.061  70.443  1.00  0.00    -0.124 C  
HETATM    6  C   UNL     1      -7.752   9.471  69.707  1.00  0.00    -0.123 C  
HETATM    7  N   UNL     1      -9.463   7.218  71.166  1.00  0.00    -0.157 N  
HETATM    8  C   UNL     1      -8.050   5.574  70.068  1.00  0.00    -0.090 C  
HETATM    9  OXT UNL     1      -7.173   5.109  69.357  1.00  0.00    -0.055 OA 
HETATM   10  O   UNL     1      -8.965   4.777  70.678  1.00  0.00    -0.115 OA 
HETATM   11  C   UNL     1      -9.577   8.235  72.082  1.00  0.00    -0.268 C  
HETATM   12  CA  UNL     1     -10.916   8.740  71.448  1.00  0.00    -0.289 C  
HETATM   13  O   UNL     1      -8.784   8.526  72.945  1.00  0.00    -0.337 OA 
ENDROOT
BRANCH  12  14
HETATM   14  N   UNL     1     -11.028  10.125  70.914  1.00  0.00    -0.357 N  
HETATM   15  C   UNL     1     -12.220  10.738  70.588  1.00  0.00    -0.379 C  
HETATM   16  H   UNL     1     -10.167  10.656  70.780  1.00  0.00     0.000 HD 
HETATM   17  O   UNL     1     -13.303  10.187  70.731  1.00  0.00    -0.361 OA 
BRANCH  15  18
HETATM   18  C   UNL     1     -12.130  12.134  70.042  1.00  0.00    -0.352 A  
HETATM   19  C   UNL     1     -11.717  12.328  68.702  1.00  0.00    -0.328 A  
HETATM   20  C   UNL     1     -11.696  13.619  68.175  1.00  0.00    -0.392 A  
HETATM   21  C   UNL     1     -13.380  14.298  72.921  1.00  0.00    -0.561 A  
HETATM   22  C   UNL     1     -12.109  14.703  68.944  1.00  0.00    -0.251 A  
HETATM   23  C   UNL     1     -12.534  13.246  70.854  1.00  0.00    -0.424 A  
HETATM   24  C   UNL     1     -12.934  13.175  72.215  1.00  0.00    -0.354 A  
HETATM   25  C   UNL     1     -12.540  14.535  70.263  1.00  0.00    -0.378 A  
HETATM   26  C   UNL     1     -12.988  15.655  70.983  1.00  0.00    -0.518 A  
HETATM   27  C   UNL     1     -13.422  15.536  72.299  1.00  0.00    -0.596 A  
BRANCH  19  28
HETATM   28  O   UNL     1     -11.366  11.215  67.976  1.00  0.00    -0.274 OA 
BRANCH  28  29
HETATM   29  C   UNL     1     -10.734  11.418  66.712  1.00  0.00    -0.271 C  
HETATM   30  C   UNL     1      -9.237  11.520  66.944  1.00  0.00    -0.181 C  
ENDBRANCH  28  29
ENDBRANCH  19  28
ENDBRANCH  15  18
ENDBRANCH  12  14
TORSDOF 4
ENDMDL
MODEL       16
REMARK 921   NORMALIZED FREE ENERGY PREDICTED BY IDOCK:   -6.65 KCAL/MOL
REMARK 922        TOTAL FREE ENERGY PREDICTED BY IDOCK:   -9.34 KCAL/MOL
REMARK 923 INTER-LIGAND FREE ENERGY PREDICTED BY IDOCK:   -8.63 KCAL/MOL
REMARK 924 INTRA-LIGAND FREE ENERGY PREDICTED BY IDOCK:   -0.71 KCAL/MOL
REMARK 927      BINDING AFFINITY PREDICTED BY RF-SCORE:    0.00 PKD
ROOT
HETATM    1  C   UNL     1     -11.809   6.768  71.946  1.00  0.00    -0.326 C  
HETATM    2  S   UNL     1     -11.356   6.671  70.168  1.00  0.00    -0.388 SA 
HETATM    3  C   UNL     1      -9.605   6.159  70.495  1.00  0.00    -0.168 C  
HETATM    4  C   UNL     1      -9.106   5.251  69.368  1.00  0.00    -0.135 C  
HETATM    5  CA  UNL     1      -9.626   5.521  71.905  1.00  0.00    -0.156 C  
HETATM    6  C   UNL     1      -8.737   7.432  70.454  1.00  0.00    -0.145 C  
HETATM    7  N   UNL     1     -10.659   6.223  72.687  1.00  0.00    -0.208 N  
HETATM    8  C   UNL     1      -9.941   4.016  71.968  1.00  0.00    -0.176 C  
HETATM    9  OXT UNL     1      -9.362   3.151  71.331  1.00  0.00    -0.112 OA 
HETATM   10  O   UNL     1     -10.897   3.704  72.880  1.00  0.00    -0.144 OA 
HETATM   11  C   UNL     1     -10.336   7.423  73.273  1.00  0.00    -0.355 C  
HETATM   12  CA  UNL     1     -11.597   8.127  72.671  1.00  0.00    -0.375 C  
HETATM   13  O   UNL     1      -9.347   7.672  73.921  1.00  0.00    -0.270 OA 
ENDROOT
BRANCH  12  14
HETATM   14  N   UNL     1     -11.452   9.305  71.772  1.00  0.00    -0.384 N  
HETATM   15  C   UNL     1     -12.505   9.938  71.145  1.00  0.00    -0.368 C  
HETATM   16  H   UNL     1     -10.513   9.668  71.609  1.00  0.00     0.000 HD 
HETATM   17  O   UNL     1     -13.667   9.585  71.294  1.00  0.00    -0.336 OA 
BRANCH  15  18
HETATM   18  C   UNL     1     -12.158  11.098  70.257  1.00  0.00    -0.462 A  
HETATM   19  C   UNL     1     -12.449  12.414  70.691  1.00  0.00    -0.234 A  
HETATM   20  C   UNL     1     -12.069  13.494  69.896  1.00  0.00    -0.408 A  
HETATM   21  C   UNL     1     -10.422   9.459  67.286  1.00  0.00    -0.332 A  
HETATM   22  C   UNL     1     -11.379  13.288  68.705  1.00  0.00    -0.331 A  
HETATM   23  C   UNL     1     -11.470  10.870  69.018  1.00  0.00    -0.371 A  
HETATM   24  C   UNL     1     -11.156   9.599  68.469  1.00  0.00    -0.091 A  
HETATM   25  C   UNL     1     -11.062  12.000  68.265  1.00  0.00    -0.290 A  
HETATM   26  C   UNL     1     -10.327  11.846  67.078  1.00  0.00    -0.239 A  
HETATM   27  C   UNL     1      -9.993  10.583  66.599  1.00  0.00    -0.260 A  
BRANCH  19  28
HETATM   28  O   UNL     1     -13.090  12.559  71.899  1.00  0.00    -0.417 OA 
BRANCH  28  29
HETATM   29  C   UNL     1     -13.762  13.794  72.151  1.00  0.00    -0.540 C  
HETATM   30  C   UNL     1     -12.924  14.595  73.131  1.00  0.00    -0.605 C  
ENDBRANCH  28  29
ENDBRANCH  19  28
ENDBRANCH  15  18
ENDBRANCH  12  14
TORSDOF 4
ENDMDL
MODEL       17
REMARK 921   NORMALIZED FREE ENERGY PREDICTED BY IDOCK:   -6.64 KCAL/MOL
REMARK 922        TOTAL FREE ENERGY PREDICTED BY IDOCK:   -9.32 KCAL/MOL
REMARK 923 INTER-LIGAND FREE ENERGY PREDICTED BY IDOCK:   -8.13 KCAL/MOL
REMARK 924 INTRA-LIGAND FREE ENERGY PREDICTED BY IDOCK:   -1.20 KCAL/MOL
REMARK 927      BINDING AFFINITY PREDICTED BY RF-SCORE:    0.00 PKD
ROOT
HETATM    1  C   UNL     1     -12.020  13.169  66.333  1.00  0.00    -0.402 C  
HETATM    2  S   UNL     1     -11.244  14.257  67.594  1.00  0.00    -0.320 SA 
HETATM    3  C   UNL     1      -9.951  14.913  66.439  1.00  0.00    -0.275 C  
HETATM    4  C   UNL     1      -9.595  16.354  66.814  1.00  0.00    -0.263 C  
HETATM    5  CA  UNL     1     -10.539  14.719  65.020  1.00  0.00    -0.429 C  
HETATM    6  C   UNL     1      -8.676  14.074  66.650  1.00  0.00    -0.055 C  
HETATM    7  N   UNL     1     -11.371  13.504  65.054  1.00  0.00    -0.312 N  
HETATM    8  C   UNL     1     -11.415  15.866  64.483  1.00  0.00    -0.283 C  
HETATM    9  OXT UNL     1     -11.083  17.040  64.438  1.00  0.00    -1.144 OA 
HETATM   10  O   UNL     1     -12.599  15.443  63.970  1.00  0.00    -0.704 OA 
HETATM   11  C   UNL     1     -10.755  12.283  64.926  1.00  0.00    -0.297 C  
HETATM   12  CA  UNL     1     -11.474  11.719  66.198  1.00  0.00    -0.220 C  
HETATM   13  O   UNL     1      -9.925  11.971  64.108  1.00  0.00    -0.292 OA 
ENDROOT
BRANCH  12  14
HETATM   14  N   UNL     1     -10.684  11.232  67.362  1.00  0.00    -0.227 N  
HETATM   15  C   UNL     1     -10.361   9.909  67.583  1.00  0.00    -0.225 C  
HETATM   16  H   UNL     1     -10.361  11.921  68.041  1.00  0.00     0.000 HD 
HETATM   17  O   UNL     1     -10.690   9.015  66.815  1.00  0.00    -0.186 OA 
BRANCH  15  18
HETATM   18  C   UNL     1      -9.575   9.608  68.827  1.00  0.00    -0.153 A  
HETATM   19  C   UNL     1      -8.182   9.862  68.844  1.00  0.00    -0.118 A  
HETATM   20  C   UNL     1      -7.464   9.643  70.019  1.00  0.00    -0.142 A  
HETATM   21  C   UNL     1     -12.232   8.441  71.299  1.00  0.00    -0.305 A  
HETATM   22  C   UNL     1      -8.112   9.216  71.175  1.00  0.00    -0.136 A  
HETATM   23  C   UNL     1     -10.251   9.143  70.004  1.00  0.00    -0.229 A  
HETATM   24  C   UNL     1     -11.632   8.826  70.095  1.00  0.00     0.058 A  
HETATM   25  C   UNL     1      -9.489   8.979  71.189  1.00  0.00    -0.348 A  
HETATM   26  C   UNL     1     -10.102   8.590  72.392  1.00  0.00    -0.365 A  
HETATM   27  C   UNL     1     -11.469   8.339  72.452  1.00  0.00    -0.463 A  
BRANCH  19  28
HETATM   28  O   UNL     1      -7.606  10.328  67.687  1.00  0.00    -0.089 OA 
BRANCH  28  29
HETATM   29  C   UNL     1      -6.531  11.261  67.809  1.00  0.00    -0.060 C  
HETATM   30  C   UNL     1      -5.819  11.338  66.469  1.00  0.00    -0.146 C  
ENDBRANCH  28  29
ENDBRANCH  19  28
ENDBRANCH  15  18
ENDBRANCH  12  14
TORSDOF 4
ENDMDL
MODEL       18
REMARK 921   NORMALIZED FREE ENERGY PREDICTED BY IDOCK:   -6.62 KCAL/MOL
REMARK 922        TOTAL FREE ENERGY PREDICTED BY IDOCK:   -9.30 KCAL/MOL
REMARK 923 INTER-LIGAND FREE ENERGY PREDICTED BY IDOCK:   -8.23 KCAL/MOL
REMARK 924 INTRA-LIGAND FREE ENERGY PREDICTED BY IDOCK:   -1.07 KCAL/MOL
REMARK 927      BINDING AFFINITY PREDICTED BY RF-SCORE:    0.00 PKD
ROOT
HETATM    1  C   UNL     1     -10.661   8.395  69.598  1.00  0.00    -0.219 C  
HETATM    2  S   UNL     1     -10.276   8.678  67.824  1.00  0.00    -0.235 SA 
HETATM    3  C   UNL     1      -8.458   8.378  68.022  1.00  0.00    -0.132 C  
HETATM    4  C   UNL     1      -7.886   7.764  66.742  1.00  0.00    -0.106 C  
HETATM    5  CA  UNL     1      -8.328   7.507  69.295  1.00  0.00    -0.132 C  
HETATM    6  C   UNL     1      -7.781   9.751  68.195  1.00  0.00    -0.082 C  
HETATM    7  N   UNL     1      -9.414   7.903  70.209  1.00  0.00    -0.163 N  
HETATM    8  C   UNL     1      -8.425   5.984  69.092  1.00  0.00    -0.114 C  
HETATM    9  OXT UNL     1      -7.758   5.338  68.301  1.00  0.00    -0.079 OA 
HETATM   10  O   UNL     1      -9.286   5.381  69.951  1.00  0.00    -0.132 OA 
HETATM   11  C   UNL     1      -9.237   9.016  70.995  1.00  0.00    -0.264 C  
HETATM   12  CA  UNL     1     -10.611   9.622  70.551  1.00  0.00    -0.306 C  
HETATM   13  O   UNL     1      -8.266   9.289  71.658  1.00  0.00    -0.312 OA 
ENDROOT
BRANCH  12  14
HETATM   14  N   UNL     1     -10.672  10.948  69.875  1.00  0.00    -0.462 N  
HETATM   15  C   UNL     1     -11.816  11.486  69.323  1.00  0.00    -0.348 C  
HETATM   16  H   UNL     1      -9.812  11.493  69.817  1.00  0.00     0.000 HD 
HETATM   17  O   UNL     1     -12.897  10.913  69.361  1.00  0.00    -0.201 OA 
BRANCH  15  18
HETATM   18  C   UNL     1     -11.676  12.828  68.664  1.00  0.00    -0.360 A  
HETATM   19  C   UNL     1     -11.796  14.000  69.448  1.00  0.00    -0.333 A  
HETATM   20  C   UNL     1     -11.602  15.244  68.848  1.00  0.00    -0.365 A  
HETATM   21  C   UNL     1     -10.845  11.960  65.047  1.00  0.00    -0.351 A  
HETATM   22  C   UNL     1     -11.259  15.335  67.503  1.00  0.00    -0.317 A  
HETATM   23  C   UNL     1     -11.349  12.908  67.269  1.00  0.00    -0.356 A  
HETATM   24  C   UNL     1     -11.235  11.806  66.381  1.00  0.00    -0.382 A  
HETATM   25  C   UNL     1     -11.115  14.191  66.712  1.00  0.00    -0.314 A  
HETATM   26  C   UNL     1     -10.725  14.333  65.370  1.00  0.00    -0.353 A  
HETATM   27  C   UNL     1     -10.574  13.223  64.545  1.00  0.00    -0.437 A  
BRANCH  19  28
HETATM   28  O   UNL     1     -12.089  13.847  70.782  1.00  0.00    -0.334 OA 
BRANCH  28  29
HETATM   29  C   UNL     1     -13.258  14.496  71.285  1.00  0.00    -0.357 C  
HETATM   30  C   UNL     1     -13.887  13.591  72.331  1.00  0.00    -0.687 C  
ENDBRANCH  28  29
ENDBRANCH  19  28
ENDBRANCH  15  18
ENDBRANCH  12  14
TORSDOF 4
ENDMDL
MODEL       19
REMARK 921   NORMALIZED FREE ENERGY PREDICTED BY IDOCK:   -6.62 KCAL/MOL
REMARK 922        TOTAL FREE ENERGY PREDICTED BY IDOCK:   -9.30 KCAL/MOL
REMARK 923 INTER-LIGAND FREE ENERGY PREDICTED BY IDOCK:   -8.32 KCAL/MOL
REMARK 924 INTRA-LIGAND FREE ENERGY PREDICTED BY IDOCK:   -0.98 KCAL/MOL
REMARK 927      BINDING AFFINITY PREDICTED BY RF-SCORE:    0.00 PKD
ROOT
HETATM    1  C   UNL     1      -8.777   8.069  70.424  1.00  0.00    -0.136 C  
HETATM    2  S   UNL     1      -8.658   8.549  72.193  1.00  0.00    -0.136 SA 
HETATM    3  C   UNL     1      -9.566   7.056  72.808  1.00  0.00    -0.148 C  
HETATM    4  C   UNL     1      -9.044   6.658  74.191  1.00  0.00    -0.203 C  
HETATM    5  CA  UNL     1      -9.394   5.991  71.698  1.00  0.00    -0.148 C  
HETATM    6  C   UNL     1     -11.042   7.459  72.992  1.00  0.00    -0.390 C  
HETATM    7  N   UNL     1      -9.336   6.706  70.411  1.00  0.00    -0.159 N  
HETATM    8  C   UNL     1      -8.139   5.105  71.793  1.00  0.00    -0.116 C  
HETATM    9  OXT UNL     1      -7.802   4.469  72.779  1.00  0.00    -0.085 OA 
HETATM   10  O   UNL     1      -7.452   5.019  70.625  1.00  0.00    -0.065 OA 
HETATM   11  C   UNL     1     -10.516   7.083  69.817  1.00  0.00    -0.219 C  
HETATM   12  CA  UNL     1     -10.020   8.556  69.626  1.00  0.00    -0.192 C  
HETATM   13  O   UNL     1     -11.499   6.401  69.658  1.00  0.00    -0.416 OA 
ENDROOT
BRANCH  12  14
HETATM   14  N   UNL     1     -10.759   9.691  70.244  1.00  0.00    -0.258 N  
HETATM   15  C   UNL     1     -11.610  10.531  69.555  1.00  0.00    -0.260 C  
HETATM   16  H   UNL     1     -10.628   9.859  71.241  1.00  0.00     0.000 HD 
HETATM   17  O   UNL     1     -11.843  10.396  68.361  1.00  0.00    -0.304 OA 
BRANCH  15  18
HETATM   18  C   UNL     1     -12.249  11.635  70.346  1.00  0.00    -0.434 A  
HETATM   19  C   UNL     1     -12.905  11.326  71.562  1.00  0.00    -0.414 A  
HETATM   20  C   UNL     1     -13.443  12.359  72.329  1.00  0.00    -0.428 A  
HETATM   21  C   UNL     1     -11.376  14.772  68.364  1.00  0.00    -0.317 A  
HETATM   22  C   UNL     1     -13.306  13.684  71.926  1.00  0.00    -0.510 A  
HETATM   23  C   UNL     1     -12.125  12.995  69.905  1.00  0.00    -0.347 A  
HETATM   24  C   UNL     1     -11.519  13.419  68.693  1.00  0.00    -0.345 A  
HETATM   25  C   UNL     1     -12.646  14.017  70.740  1.00  0.00    -0.431 A  
HETATM   26  C   UNL     1     -12.497  15.371  70.398  1.00  0.00    -0.447 A  
HETATM   27  C   UNL     1     -11.851  15.749  69.225  1.00  0.00    -0.358 A  
BRANCH  19  28
HETATM   28  O   UNL     1     -12.967  10.004  71.934  1.00  0.00    -0.408 OA 
BRANCH  28  29
HETATM   29  C   UNL     1     -14.254   9.451  72.210  1.00  0.00    -0.115 C  
HETATM   30  C   UNL     1     -14.361   8.119  71.487  1.00  0.00    -0.534 C  
ENDBRANCH  28  29
ENDBRANCH  19  28
ENDBRANCH  15  18
ENDBRANCH  12  14
TORSDOF 4
ENDMDL
MODEL       20
REMARK 921   NORMALIZED FREE ENERGY PREDICTED BY IDOCK:   -6.57 KCAL/MOL
REMARK 922        TOTAL FREE ENERGY PREDICTED BY IDOCK:   -9.24 KCAL/MOL
REMARK 923 INTER-LIGAND FREE ENERGY PREDICTED BY IDOCK:   -8.25 KCAL/MOL
REMARK 924 INTRA-LIGAND FREE ENERGY PREDICTED BY IDOCK:   -0.99 KCAL/MOL
REMARK 927      BINDING AFFINITY PREDICTED BY RF-SCORE:    0.00 PKD
ROOT
HETATM    1  C   UNL     1      -9.988  16.865  66.205  1.00  0.00    -0.309 C  
HETATM    2  S   UNL     1     -10.782  17.477  67.745  1.00  0.00    -0.256 SA 
HETATM    3  C   UNL     1      -9.195  18.068  68.498  1.00  0.00    -0.288 C  
HETATM    4  C   UNL     1      -9.458  19.290  69.382  1.00  0.00    -0.079 C  
HETATM    5  CA  UNL     1      -8.241  18.303  67.302  1.00  0.00    -0.237 C  
HETATM    6  C   UNL     1      -8.683  16.952  69.429  1.00  0.00     0.238 C  
HETATM    7  N   UNL     1      -8.586  17.313  66.267  1.00  0.00    -0.251 N  
HETATM    8  C   UNL     1      -8.298  19.695  66.648  1.00  0.00    -0.321 C  
HETATM    9  OXT UNL     1      -8.187  20.755  67.244  1.00  0.00    -0.314 OA 
HETATM   10  O   UNL     1      -8.405  19.650  65.295  1.00  0.00    -0.053 OA 
HETATM   11  C   UNL     1      -8.076  16.042  66.378  1.00  0.00    -0.220 C  
HETATM   12  CA  UNL     1      -9.488  15.393  66.189  1.00  0.00    -0.336 C  
HETATM   13  O   UNL     1      -6.933  15.737  66.617  1.00  0.00    -0.177 OA 
ENDROOT
BRANCH  12  14
HETATM   14  N   UNL     1     -10.069  14.518  67.244  1.00  0.00    -0.246 N  
HETATM   15  C   UNL     1     -11.361  14.036  67.229  1.00  0.00    -0.330 C  
HETATM   16  H   UNL     1      -9.472  14.258  68.030  1.00  0.00     0.000 HD 
HETATM   17  O   UNL     1     -12.144  14.281  66.321  1.00  0.00    -0.415 OA 
BRANCH  15  18
HETATM   18  C   UNL     1     -11.774  13.184  68.395  1.00  0.00    -0.386 A  
HETATM   19  C   UNL     1     -11.743  11.775  68.268  1.00  0.00    -0.310 A  
HETATM   20  C   UNL     1     -12.065  10.983  69.370  1.00  0.00    -0.389 A  
HETATM   21  C   UNL     1     -12.491  15.725  71.145  1.00  0.00    -0.490 A  
HETATM   22  C   UNL     1     -12.376  11.568  70.594  1.00  0.00    -0.457 A  
HETATM   23  C   UNL     1     -12.119  13.801  69.644  1.00  0.00    -0.392 A  
HETATM   24  C   UNL     1     -12.214  15.198  69.879  1.00  0.00    -0.353 A  
HETATM   25  C   UNL     1     -12.393  12.957  70.750  1.00  0.00    -0.385 A  
HETATM   26  C   UNL     1     -12.672  13.498  72.016  1.00  0.00    -0.267 A  
HETATM   27  C   UNL     1     -12.704  14.874  72.218  1.00  0.00    -0.411 A  
BRANCH  19  28
HETATM   28  O   UNL     1     -11.382  11.253  67.048  1.00  0.00    -0.383 OA 
BRANCH  28  29
HETATM   29  C   UNL     1     -10.310  10.310  67.020  1.00  0.00    -0.243 C  
HETATM   30  C   UNL     1      -9.092  10.997  66.428  1.00  0.00    -0.191 C  
ENDBRANCH  28  29
ENDBRANCH  19  28
ENDBRANCH  15  18
ENDBRANCH  12  14
TORSDOF 4
ENDMDL
MODEL       21
REMARK 921   NORMALIZED FREE ENERGY PREDICTED BY IDOCK:   -6.50 KCAL/MOL
REMARK 922        TOTAL FREE ENERGY PREDICTED BY IDOCK:   -9.16 KCAL/MOL
REMARK 923 INTER-LIGAND FREE ENERGY PREDICTED BY IDOCK:   -8.43 KCAL/MOL
REMARK 924 INTRA-LIGAND FREE ENERGY PREDICTED BY IDOCK:   -0.73 KCAL/MOL
REMARK 927      BINDING AFFINITY PREDICTED BY RF-SCORE:    0.00 PKD
ROOT
HETATM    1  C   UNL     1     -11.918   7.042  71.980  1.00  0.00    -0.298 C  
HETATM    2  S   UNL     1     -11.528   6.642  70.230  1.00  0.00    -0.388 SA 
HETATM    3  C   UNL     1      -9.842   5.972  70.609  1.00  0.00    -0.181 C  
HETATM    4  C   UNL     1      -9.485   4.861  69.618  1.00  0.00    -0.216 C  
HETATM    5  CA  UNL     1      -9.900   5.546  72.096  1.00  0.00    -0.163 C  
HETATM    6  C   UNL     1      -8.831   7.111  70.379  1.00  0.00    -0.151 C  
HETATM    7  N   UNL     1     -10.821   6.471  72.780  1.00  0.00    -0.238 N  
HETATM    8  C   UNL     1     -10.391   4.114  72.376  1.00  0.00    -0.147 C  
HETATM    9  OXT UNL     1      -9.935   3.104  71.863  1.00  0.00    -0.169 OA 
HETATM   10  O   UNL     1     -11.352   4.051  73.333  1.00  0.00    -0.253 OA 
HETATM   11  C   UNL     1     -10.342   7.693  73.186  1.00  0.00    -0.352 C  
HETATM   12  CA  UNL     1     -11.527   8.453  72.502  1.00  0.00    -0.352 C  
HETATM   13  O   UNL     1      -9.314   7.908  73.781  1.00  0.00    -0.280 OA 
ENDROOT
BRANCH  12  14
HETATM   14  N   UNL     1     -11.267   9.467  71.443  1.00  0.00    -0.375 N  
HETATM   15  C   UNL     1     -12.253  10.161  70.772  1.00  0.00    -0.338 C  
HETATM   16  H   UNL     1     -10.296   9.661  71.196  1.00  0.00     0.000 HD 
HETATM   17  O   UNL     1     -13.443  10.007  71.012  1.00  0.00    -0.367 OA 
BRANCH  15  18
HETATM   18  C   UNL     1     -11.796  11.128  69.719  1.00  0.00    -0.422 A  
HETATM   19  C   UNL     1     -11.913  12.519  69.959  1.00  0.00    -0.299 A  
HETATM   20  C   UNL     1     -11.430  13.418  69.009  1.00  0.00    -0.348 A  
HETATM   21  C   UNL     1     -10.359   8.875  67.002  1.00  0.00    -0.340 A  
HETATM   22  C   UNL     1     -10.805  12.957  67.853  1.00  0.00    -0.246 A  
HETATM   23  C   UNL     1     -11.178  10.640  68.520  1.00  0.00    -0.342 A  
HETATM   24  C   UNL     1     -11.035   9.274  68.160  1.00  0.00    -0.060 A  
HETATM   25  C   UNL     1     -10.659  11.590  67.603  1.00  0.00    -0.235 A  
HETATM   26  C   UNL     1      -9.983  11.176  66.443  1.00  0.00    -0.257 A  
HETATM   27  C   UNL     1      -9.818   9.826  66.151  1.00  0.00    -0.329 A  
BRANCH  19  28
HETATM   28  O   UNL     1     -12.496  12.915  71.140  1.00  0.00    -0.353 OA 
BRANCH  28  29
HETATM   29  C   UNL     1     -13.071  14.221  71.192  1.00  0.00    -0.343 C  
HETATM   30  C   UNL     1     -13.449  14.512  72.634  1.00  0.00    -0.590 C  
ENDBRANCH  28  29
ENDBRANCH  19  28
ENDBRANCH  15  18
ENDBRANCH  12  14
TORSDOF 4
ENDMDL
MODEL       22
REMARK 921   NORMALIZED FREE ENERGY PREDICTED BY IDOCK:   -6.43 KCAL/MOL
REMARK 922        TOTAL FREE ENERGY PREDICTED BY IDOCK:   -9.07 KCAL/MOL
REMARK 923 INTER-LIGAND FREE ENERGY PREDICTED BY IDOCK:   -8.20 KCAL/MOL
REMARK 924 INTRA-LIGAND FREE ENERGY PREDICTED BY IDOCK:   -0.88 KCAL/MOL
REMARK 927      BINDING AFFINITY PREDICTED BY RF-SCORE:    0.00 PKD
ROOT
HETATM    1  C   UNL     1     -11.610   7.343  72.013  1.00  0.00    -0.284 C  
HETATM    2  S   UNL     1     -11.399   6.677  70.314  1.00  0.00    -0.390 SA 
HETATM    3  C   UNL     1      -9.705   5.997  70.635  1.00  0.00    -0.174 C  
HETATM    4  C   UNL     1      -9.477   4.740  69.793  1.00  0.00    -0.233 C  
HETATM    5  CA  UNL     1      -9.634   5.795  72.169  1.00  0.00    -0.149 C  
HETATM    6  C   UNL     1      -8.688   7.047  70.149  1.00  0.00    -0.141 C  
HETATM    7  N   UNL     1     -10.458   6.848  72.787  1.00  0.00    -0.210 N  
HETATM    8  C   UNL     1     -10.137   4.441  72.701  1.00  0.00    -0.173 C  
HETATM    9  OXT UNL     1      -9.762   3.349  72.306  1.00  0.00    -0.133 OA 
HETATM   10  O   UNL     1     -11.004   4.559  73.740  1.00  0.00    -0.274 OA 
HETATM   11  C   UNL     1      -9.907   8.094  72.963  1.00  0.00    -0.249 C  
HETATM   12  CA  UNL     1     -11.129   8.797  72.282  1.00  0.00    -0.270 C  
HETATM   13  O   UNL     1      -8.822   8.350  73.424  1.00  0.00    -0.253 OA 
ENDROOT
BRANCH  12  14
HETATM   14  N   UNL     1     -10.943   9.634  71.065  1.00  0.00    -0.341 N  
HETATM   15  C   UNL     1     -11.968  10.264  70.390  1.00  0.00    -0.303 C  
HETATM   16  H   UNL     1      -9.995   9.749  70.706  1.00  0.00     0.000 HD 
HETATM   17  O   UNL     1     -13.134  10.197  70.756  1.00  0.00    -0.369 OA 
BRANCH  15  18
HETATM   18  C   UNL     1     -11.586  11.048  69.168  1.00  0.00    -0.389 A  
HETATM   19  C   UNL     1     -11.178  10.357  68.002  1.00  0.00    -0.272 A  
HETATM   20  C   UNL     1     -10.884  11.082  66.847  1.00  0.00    -0.324 A  
HETATM   21  C   UNL     1     -12.243  14.662  70.187  1.00  0.00    -0.391 A  
HETATM   22  C   UNL     1     -11.025  12.466  66.827  1.00  0.00    -0.305 A  
HETATM   23  C   UNL     1     -11.710  12.478  69.169  1.00  0.00    -0.375 A  
HETATM   24  C   UNL     1     -12.077  13.276  70.284  1.00  0.00    -0.405 A  
HETATM   25  C   UNL     1     -11.446  13.170  67.959  1.00  0.00    -0.346 A  
HETATM   26  C   UNL     1     -11.614  14.562  67.875  1.00  0.00    -0.371 A  
HETATM   27  C   UNL     1     -12.027  15.303  68.977  1.00  0.00    -0.304 A  
BRANCH  19  28
HETATM   28  O   UNL     1     -11.103   8.986  68.067  1.00  0.00    -0.008 OA 
BRANCH  28  29
HETATM   29  C   UNL     1     -10.347   8.313  67.060  1.00  0.00    -0.323 C  
HETATM   30  C   UNL     1     -10.799   6.863  67.020  1.00  0.00    -0.436 C  
ENDBRANCH  28  29
ENDBRANCH  19  28
ENDBRANCH  15  18
ENDBRANCH  12  14
TORSDOF 4
ENDMDL
MODEL       23
REMARK 921   NORMALIZED FREE ENERGY PREDICTED BY IDOCK:   -6.43 KCAL/MOL
REMARK 922        TOTAL FREE ENERGY PREDICTED BY IDOCK:   -9.07 KCAL/MOL
REMARK 923 INTER-LIGAND FREE ENERGY PREDICTED BY IDOCK:   -7.93 KCAL/MOL
REMARK 924 INTRA-LIGAND FREE ENERGY PREDICTED BY IDOCK:   -1.14 KCAL/MOL
REMARK 927      BINDING AFFINITY PREDICTED BY RF-SCORE:    0.00 PKD
ROOT
HETATM    1  C   UNL     1      -9.334   8.834  68.738  1.00  0.00    -0.141 C  
HETATM    2  S   UNL     1      -8.435  10.055  67.700  1.00  0.00    -0.114 SA 
HETATM    3  C   UNL     1      -6.864   9.945  68.678  1.00  0.00    -0.051 C  
HETATM    4  C   UNL     1      -5.660  10.178  67.763  1.00  0.00    -0.041 C  
HETATM    5  CA  UNL     1      -6.916   8.563  69.374  1.00  0.00    -0.049 C  
HETATM    6  C   UNL     1      -6.875  11.100  69.698  1.00  0.00    -0.117 C  
HETATM    7  N   UNL     1      -8.332   8.270  69.658  1.00  0.00    -0.122 N  
HETATM    8  C   UNL     1      -6.349   7.377  68.574  1.00  0.00    -0.036 C  
HETATM    9  OXT UNL     1      -5.239   7.339  68.067  1.00  0.00    -0.021 OA 
HETATM   10  O   UNL     1      -7.179   6.302  68.543  1.00  0.00    -0.080 OA 
HETATM   11  C   UNL     1      -8.902   8.816  70.781  1.00  0.00    -0.191 C  
HETATM   12  CA  UNL     1     -10.118   9.373  69.968  1.00  0.00    -0.226 C  
HETATM   13  O   UNL     1      -8.441   8.830  71.897  1.00  0.00    -0.293 OA 
ENDROOT
BRANCH  12  14
HETATM   14  N   UNL     1     -10.409  10.833  69.940  1.00  0.00    -0.437 N  
HETATM   15  C   UNL     1     -11.460  11.403  69.252  1.00  0.00    -0.303 C  
HETATM   16  H   UNL     1      -9.790  11.452  70.463  1.00  0.00     0.000 HD 
HETATM   17  O   UNL     1     -12.264  10.739  68.612  1.00  0.00    -0.472 OA 
BRANCH  15  18
HETATM   18  C   UNL     1     -11.578  12.898  69.326  1.00  0.00    -0.368 A  
HETATM   19  C   UNL     1     -10.982  13.690  68.314  1.00  0.00    -0.254 A  
HETATM   20  C   UNL     1     -11.146  15.075  68.347  1.00  0.00    -0.284 A  
HETATM   21  C   UNL     1     -13.766  13.470  72.394  1.00  0.00    -0.704 A  
HETATM   22  C   UNL     1     -11.917  15.672  69.340  1.00  0.00    -0.349 A  
HETATM   23  C   UNL     1     -12.354  13.503  70.370  1.00  0.00    -0.397 A  
HETATM   24  C   UNL     1     -12.967  12.815  71.450  1.00  0.00    -0.359 A  
HETATM   25  C   UNL     1     -12.532  14.910  70.338  1.00  0.00    -0.403 A  
HETATM   26  C   UNL     1     -13.335  15.556  71.292  1.00  0.00    -0.588 A  
HETATM   27  C   UNL     1     -13.963  14.839  72.306  1.00  0.00    -0.598 A  
BRANCH  19  28
HETATM   28  O   UNL     1     -10.273  13.041  67.332  1.00  0.00    -0.228 OA 
BRANCH  28  29
HETATM   29  C   UNL     1     -10.460  13.470  65.983  1.00  0.00    -0.299 C  
HETATM   30  C   UNL     1     -11.591  12.653  65.381  1.00  0.00    -0.400 C  
ENDBRANCH  28  29
ENDBRANCH  19  28
ENDBRANCH  15  18
ENDBRANCH  12  14
TORSDOF 4
ENDMDL
MODEL       24
REMARK 921   NORMALIZED FREE ENERGY PREDICTED BY IDOCK:   -6.41 KCAL/MOL
REMARK 922        TOTAL FREE ENERGY PREDICTED BY IDOCK:   -9.05 KCAL/MOL
REMARK 923 INTER-LIGAND FREE ENERGY PREDICTED BY IDOCK:   -7.68 KCAL/MOL
REMARK 924 INTRA-LIGAND FREE ENERGY PREDICTED BY IDOCK:   -1.37 KCAL/MOL
REMARK 927      BINDING AFFINITY PREDICTED BY RF-SCORE:    0.00 PKD
ROOT
HETATM    1  C   UNL     1     -10.643  15.179  69.175  1.00  0.00    -0.256 C  
HETATM    2  S   UNL     1      -8.848  15.006  68.826  1.00  0.00    -0.198 SA 
HETATM    3  C   UNL     1      -9.016  15.388  67.020  1.00  0.00    -0.231 C  
HETATM    4  C   UNL     1      -7.756  16.094  66.514  1.00  0.00    -0.219 C  
HETATM    5  CA  UNL     1     -10.330  16.198  66.898  1.00  0.00    -0.297 C  
HETATM    6  C   UNL     1      -9.101  14.043  66.271  1.00  0.00    -0.047 C  
HETATM    7  N   UNL     1     -11.248  15.702  67.937  1.00  0.00    -0.341 N  
HETATM    8  C   UNL     1     -10.209  17.722  67.076  1.00  0.00    -0.346 C  
HETATM    9  OXT UNL     1      -9.436  18.441  66.463  1.00  0.00    -0.303 OA 
HETATM   10  O   UNL     1     -11.119  18.236  67.942  1.00  0.00    -0.182 OA 
HETATM   11  C   UNL     1     -11.970  14.561  67.685  1.00  0.00    -0.320 C  
HETATM   12  CA  UNL     1     -11.530  13.909  69.038  1.00  0.00    -0.299 C  
HETATM   13  O   UNL     1     -12.595  14.304  66.684  1.00  0.00    -0.318 OA 
ENDROOT
BRANCH  12  14
HETATM   14  N   UNL     1     -10.788  12.618  69.053  1.00  0.00    -0.393 N  
HETATM   15  C   UNL     1     -11.345  11.398  68.729  1.00  0.00    -0.271 C  
HETATM   16  H   UNL     1      -9.803  12.637  69.320  1.00  0.00     0.000 HD 
HETATM   17  O   UNL     1     -12.512  11.280  68.381  1.00  0.00    -0.403 OA 
BRANCH  15  18
HETATM   18  C   UNL     1     -10.442  10.202  68.824  1.00  0.00    -0.223 A  
HETATM   19  C   UNL     1     -10.301   9.537  70.066  1.00  0.00    -0.247 A  
HETATM   20  C   UNL     1      -9.514   8.389  70.139  1.00  0.00    -0.165 A  
HETATM   21  C   UNL     1      -9.237   9.711  65.241  1.00  0.00    -0.295 A  
HETATM   22  C   UNL     1      -8.902   7.877  68.999  1.00  0.00    -0.145 A  
HETATM   23  C   UNL     1      -9.796   9.700  67.645  1.00  0.00    -0.202 A  
HETATM   24  C   UNL     1      -9.840  10.299  66.359  1.00  0.00    -0.272 A  
HETATM   25  C   UNL     1      -9.043   8.503  67.757  1.00  0.00    -0.143 A  
HETATM   26  C   UNL     1      -8.441   7.923  66.628  1.00  0.00    -0.131 A  
HETATM   27  C   UNL     1      -8.551   8.514  65.373  1.00  0.00    -0.202 A  
BRANCH  19  28
HETATM   28  O   UNL     1     -10.968  10.061  71.148  1.00  0.00    -0.302 OA 
BRANCH  28  29
HETATM   29  C   UNL     1     -11.854   9.200  71.864  1.00  0.00    -0.369 C  
HETATM   30  C   UNL     1     -13.229   9.845  71.880  1.00  0.00    -0.558 C  
ENDBRANCH  28  29
ENDBRANCH  19  28
ENDBRANCH  15  18
ENDBRANCH  12  14
TORSDOF 4
ENDMDL
MODEL       25
REMARK 921   NORMALIZED FREE ENERGY PREDICTED BY IDOCK:   -6.40 KCAL/MOL
REMARK 922        TOTAL FREE ENERGY PREDICTED BY IDOCK:   -9.04 KCAL/MOL
REMARK 923 INTER-LIGAND FREE ENERGY PREDICTED BY IDOCK:   -8.03 KCAL/MOL
REMARK 924 INTRA-LIGAND FREE ENERGY PREDICTED BY IDOCK:   -1.01 KCAL/MOL
REMARK 927      BINDING AFFINITY PREDICTED BY RF-SCORE:    0.00 PKD
ROOT
HETATM    1  C   UNL     1     -10.049  13.831  67.019  1.00  0.00    -0.256 C  
HETATM    2  S   UNL     1     -11.308  14.683  68.051  1.00  0.00    -0.325 SA 
HETATM    3  C   UNL     1     -10.091  15.842  68.833  1.00  0.00    -0.225 C  
HETATM    4  C   UNL     1     -10.769  17.178  69.149  1.00  0.00    -0.184 C  
HETATM    5  CA  UNL     1      -8.905  15.914  67.841  1.00  0.00    -0.179 C  
HETATM    6  C   UNL     1      -9.672  15.229  70.183  1.00  0.00     0.117 C  
HETATM    7  N   UNL     1      -8.803  14.599  67.185  1.00  0.00    -0.209 N  
HETATM    8  C   UNL     1      -9.008  16.977  66.732  1.00  0.00    -0.244 C  
HETATM    9  OXT UNL     1      -9.229  18.164  66.915  1.00  0.00    -0.263 OA 
HETATM   10  O   UNL     1      -8.746  16.489  65.492  1.00  0.00    -0.272 OA 
HETATM   11  C   UNL     1      -8.144  13.588  67.842  1.00  0.00    -0.165 C  
HETATM   12  CA  UNL     1      -9.334  12.593  67.631  1.00  0.00    -0.190 C  
HETATM   13  O   UNL     1      -7.071  13.657  68.391  1.00  0.00    -0.088 OA 
ENDROOT
BRANCH  12  14
HETATM   14  N   UNL     1     -10.026  11.978  68.797  1.00  0.00    -0.395 N  
HETATM   15  C   UNL     1     -11.168  11.209  68.706  1.00  0.00    -0.253 C  
HETATM   16  H   UNL     1      -9.630  12.135  69.723  1.00  0.00     0.000 HD 
HETATM   17  O   UNL     1     -11.705  10.953  67.636  1.00  0.00    -0.566 OA 
BRANCH  15  18
HETATM   18  C   UNL     1     -11.734  10.692  69.997  1.00  0.00    -0.405 A  
HETATM   19  C   UNL     1     -12.474  11.567  70.828  1.00  0.00    -0.349 A  
HETATM   20  C   UNL     1     -13.054  11.071  71.995  1.00  0.00    -0.449 A  
HETATM   21  C   UNL     1     -10.803   6.996  69.960  1.00  0.00    -0.290 A  
HETATM   22  C   UNL     1     -12.940   9.723  72.324  1.00  0.00    -0.420 A  
HETATM   23  C   UNL     1     -11.587   9.306  70.337  1.00  0.00    -0.215 A  
HETATM   24  C   UNL     1     -10.844   8.347  69.599  1.00  0.00    -0.153 A  
HETATM   25  C   UNL     1     -12.233   8.835  71.509  1.00  0.00    -0.382 A  
HETATM   26  C   UNL     1     -12.183   7.477  71.861  1.00  0.00    -0.339 A  
HETATM   27  C   UNL     1     -11.487   6.557  71.083  1.00  0.00    -0.380 A  
BRANCH  19  28
HETATM   28  O   UNL     1     -12.593  12.877  70.428  1.00  0.00    -0.197 OA 
BRANCH  28  29
HETATM   29  C   UNL     1     -12.674  13.878  71.444  1.00  0.00    -0.365 C  
HETATM   30  C   UNL     1     -13.853  14.781  71.124  1.00  0.00    -0.388 C  
ENDBRANCH  28  29
ENDBRANCH  19  28
ENDBRANCH  15  18
ENDBRANCH  12  14
TORSDOF 4
ENDMDL
MODEL       26
REMARK 921   NORMALIZED FREE ENERGY PREDICTED BY IDOCK:   -6.29 KCAL/MOL
REMARK 922        TOTAL FREE ENERGY PREDICTED BY IDOCK:   -8.89 KCAL/MOL
REMARK 923 INTER-LIGAND FREE ENERGY PREDICTED BY IDOCK:   -8.15 KCAL/MOL
REMARK 924 INTRA-LIGAND FREE ENERGY PREDICTED BY IDOCK:   -0.74 KCAL/MOL
REMARK 927      BINDING AFFINITY PREDICTED BY RF-SCORE:    0.00 PKD
ROOT
HETATM    1  C   UNL     1      -8.501  11.403  66.349  1.00  0.00    -0.160 C  
HETATM    2  S   UNL     1      -8.249  10.049  67.565  1.00  0.00    -0.114 SA 
HETATM    3  C   UNL     1      -8.780   8.710  66.399  1.00  0.00    -0.130 C  
HETATM    4  C   UNL     1      -8.021   7.416  66.706  1.00  0.00    -0.115 C  
HETATM    5  CA  UNL     1      -8.556   9.294  64.982  1.00  0.00    -0.177 C  
HETATM    6  C   UNL     1     -10.269   8.425  66.672  1.00  0.00    -0.335 C  
HETATM    7  N   UNL     1      -8.796  10.745  65.065  1.00  0.00    -0.195 N  
HETATM    8  C   UNL     1      -7.157   9.089  64.374  1.00  0.00    -0.090 C  
HETATM    9  OXT UNL     1      -6.585   8.015  64.275  1.00  0.00    -0.060 OA 
HETATM   10  O   UNL     1      -6.620  10.227  63.865  1.00  0.00    -0.130 OA 
HETATM   11  C   UNL     1     -10.091  11.201  65.009  1.00  0.00    -0.283 C  
HETATM   12  CA  UNL     1      -9.904  12.072  66.296  1.00  0.00    -0.231 C  
HETATM   13  O   UNL     1     -10.943  10.870  64.221  1.00  0.00    -0.235 OA 
ENDROOT
BRANCH  12  14
HETATM   14  N   UNL     1     -10.756  11.845  67.496  1.00  0.00    -0.217 N  
HETATM   15  C   UNL     1     -10.638  12.550  68.677  1.00  0.00    -0.216 C  
HETATM   16  H   UNL     1     -11.473  11.122  67.442  1.00  0.00     0.000 HD 
HETATM   17  O   UNL     1      -9.820  13.446  68.828  1.00  0.00    -0.152 OA 
BRANCH  15  18
HETATM   18  C   UNL     1     -11.574  12.163  69.785  1.00  0.00    -0.334 A  
HETATM   19  C   UNL     1     -11.622  10.814  70.212  1.00  0.00    -0.338 A  
HETATM   20  C   UNL     1     -12.443  10.466  71.284  1.00  0.00    -0.521 A  
HETATM   21  C   UNL     1     -13.137  15.479  70.830  1.00  0.00    -0.508 A  
HETATM   22  C   UNL     1     -13.181  11.438  71.953  1.00  0.00    -0.485 A  
HETATM   23  C   UNL     1     -12.350  13.171  70.450  1.00  0.00    -0.351 A  
HETATM   24  C   UNL     1     -12.407  14.543  70.089  1.00  0.00    -0.398 A  
HETATM   25  C   UNL     1     -13.136  12.780  71.564  1.00  0.00    -0.380 A  
HETATM   26  C   UNL     1     -13.866  13.729  72.299  1.00  0.00    -0.679 A  
HETATM   27  C   UNL     1     -13.854  15.074  71.945  1.00  0.00    -0.575 A  
BRANCH  19  28
HETATM   28  O   UNL     1     -10.834   9.906  69.544  1.00  0.00    -0.225 OA 
BRANCH  28  29
HETATM   29  C   UNL     1     -10.526   8.679  70.207  1.00  0.00    -0.210 C  
HETATM   30  C   UNL     1      -9.244   8.879  70.997  1.00  0.00    -0.307 C  
ENDBRANCH  28  29
ENDBRANCH  19  28
ENDBRANCH  15  18
ENDBRANCH  12  14
TORSDOF 4
ENDMDL
MODEL       27
REMARK 921   NORMALIZED FREE ENERGY PREDICTED BY IDOCK:   -6.28 KCAL/MOL
REMARK 922        TOTAL FREE ENERGY PREDICTED BY IDOCK:   -8.89 KCAL/MOL
REMARK 923 INTER-LIGAND FREE ENERGY PREDICTED BY IDOCK:   -7.53 KCAL/MOL
REMARK 924 INTRA-LIGAND FREE ENERGY PREDICTED BY IDOCK:   -1.36 KCAL/MOL
REMARK 927      BINDING AFFINITY PREDICTED BY RF-SCORE:    0.00 PKD
ROOT
HETATM    1  C   UNL     1      -9.247  16.031  69.503  1.00  0.00    -0.124 C  
HETATM    2  S   UNL     1      -7.810  15.752  68.392  1.00  0.00    -0.142 SA 
HETATM    3  C   UNL     1      -8.549  16.679  66.968  1.00  0.00    -0.195 C  
HETATM    4  C   UNL     1      -7.444  17.345  66.145  1.00  0.00    -0.331 C  
HETATM    5  CA  UNL     1      -9.581  17.643  67.603  1.00  0.00    -0.268 C  
HETATM    6  C   UNL     1      -9.224  15.645  66.046  1.00  0.00    -0.374 C  
HETATM    7  N   UNL     1     -10.130  16.972  68.794  1.00  0.00    -0.289 N  
HETATM    8  C   UNL     1      -9.045  19.016  68.050  1.00  0.00    -0.307 C  
HETATM    9  OXT UNL     1      -8.413  19.785  67.344  1.00  0.00    -0.293 OA 
HETATM   10  O   UNL     1      -9.414  19.352  69.313  1.00  0.00    -0.319 OA 
HETATM   11  C   UNL     1     -11.142  16.059  68.625  1.00  0.00    -0.349 C  
HETATM   12  CA  UNL     1     -10.393  14.980  69.476  1.00  0.00    -0.220 C  
HETATM   13  O   UNL     1     -12.138  16.195  67.957  1.00  0.00     0.190 OA 
ENDROOT
BRANCH  12  14
HETATM   14  N   UNL     1     -10.027  13.664  68.883  1.00  0.00    -0.422 N  
HETATM   15  C   UNL     1     -10.942  12.732  68.438  1.00  0.00    -0.254 C  
HETATM   16  H   UNL     1      -9.036  13.437  68.800  1.00  0.00     0.000 HD 
HETATM   17  O   UNL     1     -12.150  12.923  68.481  1.00  0.00    -0.279 OA 
BRANCH  15  18
HETATM   18  C   UNL     1     -10.382  11.451  67.889  1.00  0.00    -0.204 A  
HETATM   19  C   UNL     1     -10.100  10.383  68.774  1.00  0.00    -0.187 A  
HETATM   20  C   UNL     1      -9.641   9.172  68.257  1.00  0.00    -0.161 A  
HETATM   21  C   UNL     1     -10.308  12.053  64.126  1.00  0.00    -0.381 A  
HETATM   22  C   UNL     1      -9.496   8.999  66.884  1.00  0.00    -0.219 A  
HETATM   23  C   UNL     1     -10.212  11.295  66.472  1.00  0.00    -0.269 A  
HETATM   24  C   UNL     1     -10.431  12.303  65.497  1.00  0.00    -0.296 A  
HETATM   25  C   UNL     1      -9.787  10.032  65.988  1.00  0.00    -0.321 A  
HETATM   26  C   UNL     1      -9.665   9.794  64.609  1.00  0.00    -0.166 A  
HETATM   27  C   UNL     1      -9.940  10.793  63.681  1.00  0.00    -0.405 A  
BRANCH  19  28
HETATM   28  O   UNL     1     -10.308  10.596  70.116  1.00  0.00    -0.082 OA 
BRANCH  28  29
HETATM   29  C   UNL     1     -11.235   9.743  70.789  1.00  0.00    -0.348 C  
HETATM   30  C   UNL     1     -12.460  10.566  71.146  1.00  0.00    -0.517 C  
ENDBRANCH  28  29
ENDBRANCH  19  28
ENDBRANCH  15  18
ENDBRANCH  12  14
TORSDOF 4
ENDMDL
MODEL       28
REMARK 921   NORMALIZED FREE ENERGY PREDICTED BY IDOCK:   -6.27 KCAL/MOL
REMARK 922        TOTAL FREE ENERGY PREDICTED BY IDOCK:   -8.87 KCAL/MOL
REMARK 923 INTER-LIGAND FREE ENERGY PREDICTED BY IDOCK:   -8.66 KCAL/MOL
REMARK 924 INTRA-LIGAND FREE ENERGY PREDICTED BY IDOCK:   -0.21 KCAL/MOL
REMARK 927      BINDING AFFINITY PREDICTED BY RF-SCORE:    0.00 PKD
ROOT
HETATM    1  C   UNL     1      -9.098  14.976  66.930  1.00  0.00    -0.247 C  
HETATM    2  S   UNL     1     -10.731  15.752  67.253  1.00  0.00    -0.295 SA 
HETATM    3  C   UNL     1     -10.023  17.199  68.170  1.00  0.00    -0.297 C  
HETATM    4  C   UNL     1     -10.897  18.437  67.950  1.00  0.00    -0.234 C  
HETATM    5  CA  UNL     1      -8.562  17.317  67.673  1.00  0.00    -0.217 C  
HETATM    6  C   UNL     1     -10.091  16.870  69.674  1.00  0.00     0.018 C  
HETATM    7  N   UNL     1      -8.090  15.954  67.373  1.00  0.00    -0.151 N  
HETATM    8  C   UNL     1      -8.338  18.172  66.412  1.00  0.00    -0.245 C  
HETATM    9  OXT UNL     1      -8.727  19.320  66.264  1.00  0.00    -0.330 OA 
HETATM   10  O   UNL     1      -7.577  17.555  65.472  1.00  0.00    -0.379 OA 
HETATM   11  C   UNL     1      -7.636  15.175  68.409  1.00  0.00    -0.117 C  
HETATM   12  CA  UNL     1      -8.552  13.977  67.990  1.00  0.00    -0.179 C  
HETATM   13  O   UNL     1      -6.865  15.500  69.279  1.00  0.00    -0.136 OA 
ENDROOT
BRANCH  12  14
HETATM   14  N   UNL     1      -9.572  13.436  68.930  1.00  0.00    -0.407 N  
HETATM   15  C   UNL     1     -10.590  12.580  68.564  1.00  0.00    -0.243 C  
HETATM   16  H   UNL     1      -9.515  13.717  69.909  1.00  0.00     0.000 HD 
HETATM   17  O   UNL     1     -10.728  12.175  67.417  1.00  0.00    -0.223 OA 
BRANCH  15  18
HETATM   18  C   UNL     1     -11.537  12.158  69.650  1.00  0.00    -0.361 A  
HETATM   19  C   UNL     1     -11.588  10.796  70.034  1.00  0.00    -0.334 A  
HETATM   20  C   UNL     1     -12.420  10.416  71.087  1.00  0.00    -0.509 A  
HETATM   21  C   UNL     1     -13.111  15.440  70.783  1.00  0.00    -0.479 A  
HETATM   22  C   UNL     1     -13.165  11.366  71.779  1.00  0.00    -0.472 A  
HETATM   23  C   UNL     1     -12.320  13.145  70.338  1.00  0.00    -0.351 A  
HETATM   24  C   UNL     1     -12.373  14.528  70.020  1.00  0.00    -0.376 A  
HETATM   25  C   UNL     1     -13.116  12.719  71.432  1.00  0.00    -0.318 A  
HETATM   26  C   UNL     1     -13.854  13.645  72.188  1.00  0.00    -0.642 A  
HETATM   27  C   UNL     1     -13.839  15.001  71.877  1.00  0.00    -0.575 A  
BRANCH  19  28
HETATM   28  O   UNL     1     -10.794   9.910  69.346  1.00  0.00    -0.221 OA 
BRANCH  28  29
HETATM   29  C   UNL     1     -10.273   8.790  70.063  1.00  0.00    -0.198 C  
HETATM   30  C   UNL     1      -8.906   8.458  69.489  1.00  0.00    -0.145 C  
ENDBRANCH  28  29
ENDBRANCH  19  28
ENDBRANCH  15  18
ENDBRANCH  12  14
TORSDOF 4
ENDMDL
MODEL       29
REMARK 921   NORMALIZED FREE ENERGY PREDICTED BY IDOCK:   -6.26 KCAL/MOL
REMARK 922        TOTAL FREE ENERGY PREDICTED BY IDOCK:   -8.87 KCAL/MOL
REMARK 923 INTER-LIGAND FREE ENERGY PREDICTED BY IDOCK:   -8.01 KCAL/MOL
REMARK 924 INTRA-LIGAND FREE ENERGY PREDICTED BY IDOCK:   -0.86 KCAL/MOL
REMARK 927      BINDING AFFINITY PREDICTED BY RF-SCORE:    0.00 PKD
ROOT
HETATM    1  C   UNL     1     -10.783  15.768  66.404  1.00  0.00    -0.277 C  
HETATM    2  S   UNL     1     -11.486  15.331  68.044  1.00  0.00    -0.315 SA 
HETATM    3  C   UNL     1     -10.126  16.145  69.005  1.00  0.00    -0.247 C  
HETATM    4  C   UNL     1     -10.671  16.687  70.328  1.00  0.00    -0.002 C  
HETATM    5  CA  UNL     1      -9.530  17.203  68.045  1.00  0.00    -0.262 C  
HETATM    6  C   UNL     1      -9.099  15.054  69.363  1.00  0.00    -0.118 C  
HETATM    7  N   UNL     1      -9.651  16.671  66.677  1.00  0.00    -0.250 N  
HETATM    8  C   UNL     1     -10.196  18.591  68.063  1.00  0.00    -0.383 C  
HETATM    9  OXT UNL     1     -10.386  19.265  69.063  1.00  0.00    -0.271 OA 
HETATM   10  O   UNL     1     -10.495  19.060  66.824  1.00  0.00    -0.383 OA 
HETATM   11  C   UNL     1      -8.701  15.784  66.231  1.00  0.00    -0.323 C  
HETATM   12  CA  UNL     1      -9.788  14.764  65.755  1.00  0.00    -0.342 C  
HETATM   13  O   UNL     1      -7.503  15.893  66.331  1.00  0.00    -0.072 OA 
ENDROOT
BRANCH  12  14
HETATM   14  N   UNL     1      -9.832  13.385  66.315  1.00  0.00    -0.287 N  
HETATM   15  C   UNL     1     -10.778  12.439  65.978  1.00  0.00    -0.261 C  
HETATM   16  H   UNL     1      -9.115  13.122  66.991  1.00  0.00     0.000 HD 
HETATM   17  O   UNL     1     -11.665  12.657  65.164  1.00  0.00    -0.332 OA 
BRANCH  15  18
HETATM   18  C   UNL     1     -10.671  11.108  66.664  1.00  0.00    -0.322 A  
HETATM   19  C   UNL     1     -10.102  10.014  65.969  1.00  0.00    -0.248 A  
HETATM   20  C   UNL     1      -9.944   8.795  66.627  1.00  0.00    -0.355 A  
HETATM   21  C   UNL     1     -11.981  11.808  70.175  1.00  0.00    -0.421 A  
HETATM   22  C   UNL     1     -10.305   8.662  67.965  1.00  0.00    -0.277 A  
HETATM   23  C   UNL     1     -11.072  10.977  68.036  1.00  0.00    -0.343 A  
HETATM   24  C   UNL     1     -11.680  11.992  68.821  1.00  0.00    -0.377 A  
HETATM   25  C   UNL     1     -10.849   9.732  68.679  1.00  0.00    -0.223 A  
HETATM   26  C   UNL     1     -11.157   9.560  70.039  1.00  0.00    -0.268 A  
HETATM   27  C   UNL     1     -11.704  10.596  70.789  1.00  0.00    -0.435 A  
BRANCH  19  28
HETATM   28  O   UNL     1      -9.720  10.218  64.664  1.00  0.00    -0.293 OA 
BRANCH  28  29
HETATM   29  C   UNL     1      -8.482   9.649  64.237  1.00  0.00    -0.181 C  
HETATM   30  C   UNL     1      -8.676   9.089  62.839  1.00  0.00    -0.143 C  
ENDBRANCH  28  29
ENDBRANCH  19  28
ENDBRANCH  15  18
ENDBRANCH  12  14
TORSDOF 4
ENDMDL
MODEL       30
REMARK 921   NORMALIZED FREE ENERGY PREDICTED BY IDOCK:   -6.26 KCAL/MOL
REMARK 922        TOTAL FREE ENERGY PREDICTED BY IDOCK:   -8.86 KCAL/MOL
REMARK 923 INTER-LIGAND FREE ENERGY PREDICTED BY IDOCK:   -7.45 KCAL/MOL
REMARK 924 INTRA-LIGAND FREE ENERGY PREDICTED BY IDOCK:   -1.41 KCAL/MOL
REMARK 927      BINDING AFFINITY PREDICTED BY RF-SCORE:    0.00 PKD
ROOT
HETATM    1  C   UNL     1      -9.108   9.338  70.718  1.00  0.00    -0.244 C  
HETATM    2  S   UNL     1     -10.837   8.772  70.461  1.00  0.00    -0.240 SA 
HETATM    3  C   UNL     1     -10.359   7.322  69.412  1.00  0.00    -0.208 C  
HETATM    4  C   UNL     1     -11.354   6.177  69.615  1.00  0.00    -0.442 C  
HETATM    5  CA  UNL     1      -8.893   7.007  69.799  1.00  0.00    -0.142 C  
HETATM    6  C   UNL     1     -10.481   7.758  67.939  1.00  0.00    -0.263 C  
HETATM    7  N   UNL     1      -8.249   8.286  70.148  1.00  0.00    -0.115 N  
HETATM    8  C   UNL     1      -8.693   6.049  70.987  1.00  0.00    -0.132 C  
HETATM    9  OXT UNL     1      -9.201   4.944  71.091  1.00  0.00    -0.136 OA 
HETATM   10  O   UNL     1      -7.809   6.512  71.908  1.00  0.00    -0.101 OA 
HETATM   11  C   UNL     1      -7.773   9.079  69.132  1.00  0.00    -0.092 C  
HETATM   12  CA  UNL     1      -8.517  10.340  69.686  1.00  0.00    -0.115 C  
HETATM   13  O   UNL     1      -7.099   8.730  68.193  1.00  0.00    -0.076 OA 
ENDROOT
BRANCH  12  14
HETATM   14  N   UNL     1      -9.524  11.054  68.853  1.00  0.00    -0.303 N  
HETATM   15  C   UNL     1      -9.213  12.013  67.911  1.00  0.00    -0.190 C  
HETATM   16  H   UNL     1     -10.507  10.819  68.988  1.00  0.00     0.000 HD 
HETATM   17  O   UNL     1      -8.061  12.347  67.668  1.00  0.00    -0.145 OA 
BRANCH  15  18
HETATM   18  C   UNL     1     -10.368  12.638  67.184  1.00  0.00    -0.239 A  
HETATM   19  C   UNL     1     -11.095  13.682  67.806  1.00  0.00    -0.272 A  
HETATM   20  C   UNL     1     -12.126  14.307  67.106  1.00  0.00    -0.412 A  
HETATM   21  C   UNL     1     -10.349  10.881  63.801  1.00  0.00    -0.384 A  
HETATM   22  C   UNL     1     -12.417  13.936  65.796  1.00  0.00    -0.530 A  
HETATM   23  C   UNL     1     -10.675  12.229  65.843  1.00  0.00    -0.294 A  
HETATM   24  C   UNL     1     -10.039  11.177  65.133  1.00  0.00    -0.335 A  
HETATM   25  C   UNL     1     -11.702  12.923  65.153  1.00  0.00    -0.385 A  
HETATM   26  C   UNL     1     -12.005  12.615  63.816  1.00  0.00    -0.588 A  
HETATM   27  C   UNL     1     -11.322  11.611  63.137  1.00  0.00    -0.153 A  
BRANCH  19  28
HETATM   28  O   UNL     1     -10.731  14.038  69.083  1.00  0.00    -0.236 OA 
BRANCH  28  29
HETATM   29  C   UNL     1     -11.769  14.195  70.051  1.00  0.00    -0.291 C  
HETATM   30  C   UNL     1     -12.206  12.813  70.503  1.00  0.00    -0.389 C  
ENDBRANCH  28  29
ENDBRANCH  19  28
ENDBRANCH  15  18
ENDBRANCH  12  14
TORSDOF 4
ENDMDL
MODEL       31
REMARK 921   NORMALIZED FREE ENERGY PREDICTED BY IDOCK:   -6.25 KCAL/MOL
REMARK 922        TOTAL FREE ENERGY PREDICTED BY IDOCK:   -8.86 KCAL/MOL
REMARK 923 INTER-LIGAND FREE ENERGY PREDICTED BY IDOCK:   -7.61 KCAL/MOL
REMARK 924 INTRA-LIGAND FREE ENERGY PREDICTED BY IDOCK:   -1.24 KCAL/MOL
REMARK 927      BINDING AFFINITY PREDICTED BY RF-SCORE:    0.00 PKD
ROOT
HETATM    1  C   UNL     1      -8.815  16.048  69.442  1.00  0.00    -0.159 C  
HETATM    2  S   UNL     1      -7.480  15.545  68.285  1.00  0.00    -0.120 SA 
HETATM    3  C   UNL     1      -8.059  16.647  66.911  1.00  0.00    -0.214 C  
HETATM    4  C   UNL     1      -6.864  17.123  66.082  1.00  0.00    -0.158 C  
HETATM    5  CA  UNL     1      -8.876  17.764  67.605  1.00  0.00    -0.248 C  
HETATM    6  C   UNL     1      -8.936  15.794  65.975  1.00  0.00    -0.322 C  
HETATM    7  N   UNL     1      -9.518  17.166  68.788  1.00  0.00    -0.273 N  
HETATM    8  C   UNL     1      -8.081  18.993  68.082  1.00  0.00    -0.312 C  
HETATM    9  OXT UNL     1      -7.328  19.656  67.385  1.00  0.00    -0.229 OA 
HETATM   10  O   UNL     1      -8.353  19.346  69.365  1.00  0.00    -0.155 OA 
HETATM   11  C   UNL     1     -10.688  16.467  68.617  1.00  0.00    -0.317 C  
HETATM   12  CA  UNL     1     -10.140  15.234  69.412  1.00  0.00    -0.264 C  
HETATM   13  O   UNL     1     -11.653  16.813  67.981  1.00  0.00     0.001 OA 
ENDROOT
BRANCH  12  14
HETATM   14  N   UNL     1     -10.043  13.897  68.766  1.00  0.00    -0.348 N  
HETATM   15  C   UNL     1     -11.127  13.096  68.470  1.00  0.00    -0.266 C  
HETATM   16  H   UNL     1      -9.114  13.549  68.526  1.00  0.00     0.000 HD 
HETATM   17  O   UNL     1     -12.279  13.437  68.705  1.00  0.00    -0.298 OA 
BRANCH  15  18
HETATM   18  C   UNL     1     -10.828  11.768  67.838  1.00  0.00    -0.255 A  
HETATM   19  C   UNL     1     -10.431  11.722  66.479  1.00  0.00    -0.230 A  
HETATM   20  C   UNL     1     -10.091  10.495  65.910  1.00  0.00    -0.323 A  
HETATM   21  C   UNL     1     -11.237   9.299  70.713  1.00  0.00    -0.351 A  
HETATM   22  C   UNL     1     -10.105   9.332  66.674  1.00  0.00    -0.341 A  
HETATM   23  C   UNL     1     -10.873  10.572  68.630  1.00  0.00    -0.276 A  
HETATM   24  C   UNL     1     -11.285  10.494  69.987  1.00  0.00    -0.386 A  
HETATM   25  C   UNL     1     -10.474   9.354  68.022  1.00  0.00    -0.278 A  
HETATM   26  C   UNL     1     -10.431   8.161  68.762  1.00  0.00    -0.198 A  
HETATM   27  C   UNL     1     -10.794   8.135  70.105  1.00  0.00    -0.241 A  
BRANCH  19  28
HETATM   28  O   UNL     1     -10.389  12.908  65.787  1.00  0.00    -0.274 OA 
BRANCH  28  29
HETATM   29  C   UNL     1     -11.184  13.018  64.606  1.00  0.00    -0.326 C  
HETATM   30  C   UNL     1     -12.482  13.716  64.975  1.00  0.00    -0.454 C  
ENDBRANCH  28  29
ENDBRANCH  19  28
ENDBRANCH  15  18
ENDBRANCH  12  14
TORSDOF 4
ENDMDL
MODEL       32
REMARK 921   NORMALIZED FREE ENERGY PREDICTED BY IDOCK:   -6.24 KCAL/MOL
REMARK 922        TOTAL FREE ENERGY PREDICTED BY IDOCK:   -8.83 KCAL/MOL
REMARK 923 INTER-LIGAND FREE ENERGY PREDICTED BY IDOCK:   -7.60 KCAL/MOL
REMARK 924 INTRA-LIGAND FREE ENERGY PREDICTED BY IDOCK:   -1.23 KCAL/MOL
REMARK 927      BINDING AFFINITY PREDICTED BY RF-SCORE:    0.00 PKD
ROOT
HETATM    1  C   UNL     1      -9.050  14.750  67.740  1.00  0.00    -0.186 C  
HETATM    2  S   UNL     1      -9.507  14.167  66.059  1.00  0.00    -0.085 SA 
HETATM    3  C   UNL     1     -11.082  15.141  65.993  1.00  0.00    -0.312 C  
HETATM    4  C   UNL     1     -11.381  15.559  64.551  1.00  0.00    -0.322 C  
HETATM    5  CA  UNL     1     -10.882  16.303  66.996  1.00  0.00    -0.173 C  
HETATM    6  C   UNL     1     -12.224  14.202  66.426  1.00  0.00    -0.473 C  
HETATM    7  N   UNL     1     -10.025  15.800  68.083  1.00  0.00    -0.213 N  
HETATM    8  C   UNL     1     -10.222  17.578  66.439  1.00  0.00    -0.354 C  
HETATM    9  OXT UNL     1     -10.598  18.188  65.451  1.00  0.00    -0.636 OA 
HETATM   10  O   UNL     1      -9.200  18.034  67.208  1.00  0.00    -0.251 OA 
HETATM   11  C   UNL     1     -10.606  15.075  69.095  1.00  0.00    -0.251 C  
HETATM   12  CA  UNL     1      -9.557  13.921  68.953  1.00  0.00     0.028 C  
HETATM   13  O   UNL     1     -11.610  15.354  69.704  1.00  0.00    -0.285 OA 
ENDROOT
BRANCH  12  14
HETATM   14  N   UNL     1      -9.993  12.534  68.631  1.00  0.00    -0.390 N  
HETATM   15  C   UNL     1      -9.171  11.428  68.687  1.00  0.00    -0.146 C  
HETATM   16  H   UNL     1     -10.964  12.393  68.350  1.00  0.00     0.000 HD 
HETATM   17  O   UNL     1      -7.998  11.498  69.029  1.00  0.00    -0.094 OA 
BRANCH  15  18
HETATM   18  C   UNL     1      -9.786  10.113  68.303  1.00  0.00    -0.162 A  
HETATM   19  C   UNL     1      -9.848   9.750  66.936  1.00  0.00    -0.201 A  
HETATM   20  C   UNL     1     -10.361   8.501  66.585  1.00  0.00    -0.303 A  
HETATM   21  C   UNL     1     -10.639   8.518  71.658  1.00  0.00    -0.353 A  
HETATM   22  C   UNL     1     -10.775   7.606  67.567  1.00  0.00    -0.280 A  
HETATM   23  C   UNL     1     -10.234   9.209  69.324  1.00  0.00    -0.215 A  
HETATM   24  C   UNL     1     -10.250   9.478  70.718  1.00  0.00    -0.363 A  
HETATM   25  C   UNL     1     -10.705   7.933  68.924  1.00  0.00    -0.098 A  
HETATM   26  C   UNL     1     -11.094   6.978  69.877  1.00  0.00    -0.301 A  
HETATM   27  C   UNL     1     -11.046   7.261  71.239  1.00  0.00    -0.270 A  
BRANCH  19  28
HETATM   28  O   UNL     1      -9.380  10.656  66.015  1.00  0.00    -0.174 OA 
BRANCH  28  29
HETATM   29  C   UNL     1      -9.530  10.335  64.631  1.00  0.00    -0.293 C  
HETATM   30  C   UNL     1     -10.528  11.307  64.026  1.00  0.00    -0.440 C  
ENDBRANCH  28  29
ENDBRANCH  19  28
ENDBRANCH  15  18
ENDBRANCH  12  14
TORSDOF 4
ENDMDL
MODEL       33
REMARK 921   NORMALIZED FREE ENERGY PREDICTED BY IDOCK:   -6.23 KCAL/MOL
REMARK 922        TOTAL FREE ENERGY PREDICTED BY IDOCK:   -8.83 KCAL/MOL
REMARK 923 INTER-LIGAND FREE ENERGY PREDICTED BY IDOCK:   -7.66 KCAL/MOL
REMARK 924 INTRA-LIGAND FREE ENERGY PREDICTED BY IDOCK:   -1.17 KCAL/MOL
REMARK 927      BINDING AFFINITY PREDICTED BY RF-SCORE:    0.00 PKD
ROOT
HETATM    1  C   UNL     1      -9.387  13.983  66.644  1.00  0.00    -0.277 C  
HETATM    2  S   UNL     1      -9.830  12.914  65.217  1.00  0.00    -0.018 SA 
HETATM    3  C   UNL     1     -11.549  13.589  65.061  1.00  0.00    -0.327 C  
HETATM    4  C   UNL     1     -11.992  13.561  63.596  1.00  0.00    -0.439 C  
HETATM    5  CA  UNL     1     -11.494  14.992  65.714  1.00  0.00    -0.236 C  
HETATM    6  C   UNL     1     -12.489  12.638  65.826  1.00  0.00    -0.159 C  
HETATM    7  N   UNL     1     -10.505  14.928  66.804  1.00  0.00    -0.279 N  
HETATM    8  C   UNL     1     -11.092  16.157  64.792  1.00  0.00    -0.333 C  
HETATM    9  OXT UNL     1     -11.619  16.420  63.723  1.00  0.00    -1.055 OA 
HETATM   10  O   UNL     1     -10.121  16.948  65.317  1.00  0.00    -0.577 OA 
HETATM   11  C   UNL     1     -10.899  14.418  68.018  1.00  0.00    -0.243 C  
HETATM   12  CA  UNL     1      -9.679  13.439  68.071  1.00  0.00    -0.222 C  
HETATM   13  O   UNL     1     -11.901  14.695  68.631  1.00  0.00    -0.319 OA 
ENDROOT
BRANCH  12  14
HETATM   14  N   UNL     1      -9.890  11.967  68.153  1.00  0.00    -0.196 N  
HETATM   15  C   UNL     1      -8.910  11.059  68.495  1.00  0.00    -0.159 C  
HETATM   16  H   UNL     1     -10.821  11.607  67.942  1.00  0.00     0.000 HD 
HETATM   17  O   UNL     1      -7.769  11.400  68.780  1.00  0.00    -0.132 OA 
BRANCH  15  18
HETATM   18  C   UNL     1      -9.308   9.612  68.503  1.00  0.00    -0.138 A  
HETATM   19  C   UNL     1     -10.131   9.125  69.547  1.00  0.00    -0.197 A  
HETATM   20  C   UNL     1     -10.554   7.797  69.520  1.00  0.00    -0.221 A  
HETATM   21  C   UNL     1      -7.793   8.253  65.279  1.00  0.00    -0.120 A  
HETATM   22  C   UNL     1     -10.204   6.965  68.461  1.00  0.00    -0.187 A  
HETATM   23  C   UNL     1      -8.918   8.757  67.417  1.00  0.00    -0.143 A  
HETATM   24  C   UNL     1      -8.073   9.125  66.337  1.00  0.00    -0.107 A  
HETATM   25  C   UNL     1      -9.410   7.427  67.407  1.00  0.00    -0.154 A  
HETATM   26  C   UNL     1      -9.120   6.561  66.340  1.00  0.00    -0.172 A  
HETATM   27  C   UNL     1      -8.330   6.976  65.273  1.00  0.00    -0.100 A  
BRANCH  19  28
HETATM   28  O   UNL     1     -10.484  10.006  70.542  1.00  0.00    -0.286 OA 
BRANCH  28  29
HETATM   29  C   UNL     1     -11.610   9.673  71.355  1.00  0.00    -0.400 C  
HETATM   30  C   UNL     1     -12.505  10.897  71.444  1.00  0.00    -0.460 C  
ENDBRANCH  28  29
ENDBRANCH  19  28
ENDBRANCH  15  18
ENDBRANCH  12  14
TORSDOF 4
ENDMDL
MODEL       34
REMARK 921   NORMALIZED FREE ENERGY PREDICTED BY IDOCK:   -6.16 KCAL/MOL
REMARK 922        TOTAL FREE ENERGY PREDICTED BY IDOCK:   -8.74 KCAL/MOL
REMARK 923 INTER-LIGAND FREE ENERGY PREDICTED BY IDOCK:   -7.47 KCAL/MOL
REMARK 924 INTRA-LIGAND FREE ENERGY PREDICTED BY IDOCK:   -1.27 KCAL/MOL
REMARK 927      BINDING AFFINITY PREDICTED BY RF-SCORE:    0.00 PKD
ROOT
HETATM    1  C   UNL     1     -10.268  16.625  68.456  1.00  0.00    -0.282 C  
HETATM    2  S   UNL     1      -8.586  15.976  68.809  1.00  0.00    -0.236 SA 
HETATM    3  C   UNL     1      -7.731  17.179  67.688  1.00  0.00    -0.172 C  
HETATM    4  C   UNL     1      -6.341  17.511  68.238  1.00  0.00    -0.180 C  
HETATM    5  CA  UNL     1      -8.702  18.378  67.564  1.00  0.00    -0.258 C  
HETATM    6  C   UNL     1      -7.515  16.474  66.335  1.00  0.00    -0.205 C  
HETATM    7  N   UNL     1     -10.072  17.842  67.650  1.00  0.00    -0.326 N  
HETATM    8  C   UNL     1      -8.568  19.478  68.633  1.00  0.00    -0.325 C  
HETATM    9  OXT UNL     1      -7.530  20.050  68.923  1.00  0.00    -0.236 OA 
HETATM   10  O   UNL     1      -9.753  19.832  69.192  1.00  0.00    -0.362 OA 
HETATM   11  C   UNL     1     -10.641  17.310  66.518  1.00  0.00    -0.178 C  
HETATM   12  CA  UNL     1     -11.048  15.996  67.266  1.00  0.00    -0.131 C  
HETATM   13  O   UNL     1     -10.652  17.797  65.414  1.00  0.00    -0.659 OA 
ENDROOT
BRANCH  12  14
HETATM   14  N   UNL     1     -10.540  14.674  66.808  1.00  0.00    -0.284 N  
HETATM   15  C   UNL     1     -10.859  13.471  67.403  1.00  0.00    -0.269 C  
HETATM   16  H   UNL     1      -9.915  14.656  66.002  1.00  0.00     0.000 HD 
HETATM   17  O   UNL     1     -11.614  13.392  68.363  1.00  0.00    -0.288 OA 
BRANCH  15  18
HETATM   18  C   UNL     1     -10.231  12.242  66.812  1.00  0.00    -0.229 A  
HETATM   19  C   UNL     1     -10.869  11.590  65.729  1.00  0.00    -0.262 A  
HETATM   20  C   UNL     1     -10.254  10.487  65.138  1.00  0.00    -0.358 A  
HETATM   21  C   UNL     1      -6.974  11.882  68.760  1.00  0.00    -0.104 A  
HETATM   22  C   UNL     1      -9.008  10.051  65.581  1.00  0.00    -0.203 A  
HETATM   23  C   UNL     1      -8.959  11.786  67.295  1.00  0.00    -0.172 A  
HETATM   24  C   UNL     1      -8.244  12.339  68.390  1.00  0.00    -0.146 A  
HETATM   25  C   UNL     1      -8.348  10.690  66.634  1.00  0.00    -0.136 A  
HETATM   26  C   UNL     1      -7.074  10.239  67.016  1.00  0.00    -0.090 A  
HETATM   27  C   UNL     1      -6.382  10.841  68.061  1.00  0.00    -0.058 A  
BRANCH  19  28
HETATM   28  O   UNL     1     -12.075  12.095  65.303  1.00  0.00    -0.435 OA 
BRANCH  28  29
HETATM   29  C   UNL     1     -12.198  12.450  63.925  1.00  0.00    -0.513 C  
HETATM   30  C   UNL     1     -12.252  13.965  63.832  1.00  0.00    -0.375 C  
ENDBRANCH  28  29
ENDBRANCH  19  28
ENDBRANCH  15  18
ENDBRANCH  12  14
TORSDOF 4
ENDMDL
MODEL       35
REMARK 921   NORMALIZED FREE ENERGY PREDICTED BY IDOCK:   -6.15 KCAL/MOL
REMARK 922        TOTAL FREE ENERGY PREDICTED BY IDOCK:   -8.72 KCAL/MOL
REMARK 923 INTER-LIGAND FREE ENERGY PREDICTED BY IDOCK:   -7.38 KCAL/MOL
REMARK 924 INTRA-LIGAND FREE ENERGY PREDICTED BY IDOCK:   -1.34 KCAL/MOL
REMARK 927      BINDING AFFINITY PREDICTED BY RF-SCORE:    0.00 PKD
ROOT
HETATM    1  C   UNL     1      -8.078  10.861  65.817  1.00  0.00    -0.094 C  
HETATM    2  S   UNL     1      -7.036  11.413  67.225  1.00  0.00    -0.128 SA 
HETATM    3  C   UNL     1      -7.121   9.789  68.112  1.00  0.00    -0.078 C  
HETATM    4  C   UNL     1      -5.827   9.549  68.893  1.00  0.00    -0.039 C  
HETATM    5  CA  UNL     1      -7.441   8.744  67.015  1.00  0.00    -0.091 C  
HETATM    6  C   UNL     1      -8.253   9.891  69.153  1.00  0.00    -0.128 C  
HETATM    7  N   UNL     1      -8.279   9.413  66.005  1.00  0.00    -0.110 N  
HETATM    8  C   UNL     1      -6.232   8.133  66.283  1.00  0.00    -0.046 C  
HETATM    9  OXT UNL     1      -5.273   7.611  66.827  1.00  0.00    -0.022 OA 
HETATM   10  O   UNL     1      -6.358   8.150  64.931  1.00  0.00    -0.048 OA 
HETATM   11  C   UNL     1      -9.628   9.525  66.241  1.00  0.00    -0.226 C  
HETATM   12  CA  UNL     1      -9.616  11.061  65.936  1.00  0.00    -0.218 C  
HETATM   13  O   UNL     1     -10.373   8.654  66.619  1.00  0.00    -0.289 OA 
ENDROOT
BRANCH  12  14
HETATM   14  N   UNL     1     -10.046  12.043  66.969  1.00  0.00    -0.202 N  
HETATM   15  C   UNL     1     -11.345  12.472  67.140  1.00  0.00    -0.324 C  
HETATM   16  H   UNL     1      -9.332  12.424  67.590  1.00  0.00     0.000 HD 
HETATM   17  O   UNL     1     -12.270  12.059  66.453  1.00  0.00    -0.551 OA 
BRANCH  15  18
HETATM   18  C   UNL     1     -11.581  13.486  68.222  1.00  0.00    -0.381 A  
HETATM   19  C   UNL     1     -11.413  14.861  67.932  1.00  0.00    -0.340 A  
HETATM   20  C   UNL     1     -11.694  15.805  68.919  1.00  0.00    -0.404 A  
HETATM   21  C   UNL     1     -12.742  11.377  71.178  1.00  0.00    -0.479 A  
HETATM   22  C   UNL     1     -12.169  15.407  70.165  1.00  0.00    -0.407 A  
HETATM   23  C   UNL     1     -12.045  13.059  69.511  1.00  0.00    -0.289 A  
HETATM   24  C   UNL     1     -12.219  11.712  69.924  1.00  0.00    -0.310 A  
HETATM   25  C   UNL     1     -12.363  14.056  70.469  1.00  0.00    -0.437 A  
HETATM   26  C   UNL     1     -12.885  13.707  71.725  1.00  0.00    -0.407 A  
HETATM   27  C   UNL     1     -13.091  12.376  72.073  1.00  0.00    -0.470 A  
BRANCH  19  28
HETATM   28  O   UNL     1     -10.987  15.198  66.669  1.00  0.00    -0.317 OA 
BRANCH  28  29
HETATM   29  C   UNL     1      -9.815  16.007  66.557  1.00  0.00    -0.267 C  
HETATM   30  C   UNL     1      -8.602  15.099  66.678  1.00  0.00    -0.279 C  
ENDBRANCH  28  29
ENDBRANCH  19  28
ENDBRANCH  15  18
ENDBRANCH  12  14
TORSDOF 4
ENDMDL
MODEL       36
REMARK 921   NORMALIZED FREE ENERGY PREDICTED BY IDOCK:   -6.14 KCAL/MOL
REMARK 922        TOTAL FREE ENERGY PREDICTED BY IDOCK:   -8.71 KCAL/MOL
REMARK 923 INTER-LIGAND FREE ENERGY PREDICTED BY IDOCK:   -7.64 KCAL/MOL
REMARK 924 INTRA-LIGAND FREE ENERGY PREDICTED BY IDOCK:   -1.06 KCAL/MOL
REMARK 927      BINDING AFFINITY PREDICTED BY RF-SCORE:    0.00 PKD
ROOT
HETATM    1  C   UNL     1     -12.043  13.053  66.305  1.00  0.00    -0.386 C  
HETATM    2  S   UNL     1     -11.436  14.221  67.586  1.00  0.00    -0.365 SA 
HETATM    3  C   UNL     1     -10.122  14.952  66.503  1.00  0.00    -0.271 C  
HETATM    4  C   UNL     1      -9.901  16.422  66.865  1.00  0.00    -0.266 C  
HETATM    5  CA  UNL     1     -10.598  14.686  65.054  1.00  0.00    -0.439 C  
HETATM    6  C   UNL     1      -8.805  14.216  66.816  1.00  0.00    -0.190 C  
HETATM    7  N   UNL     1     -11.337  13.412  65.063  1.00  0.00    -0.305 N  
HETATM    8  C   UNL     1     -11.519  15.752  64.433  1.00  0.00    -0.263 C  
HETATM    9  OXT UNL     1     -11.274  16.947  64.381  1.00  0.00    -1.159 OA 
HETATM   10  O   UNL     1     -12.631  15.230  63.855  1.00  0.00    -0.765 OA 
HETATM   11  C   UNL     1     -10.625  12.239  65.005  1.00  0.00    -0.287 C  
HETATM   12  CA  UNL     1     -11.382  11.647  66.241  1.00  0.00    -0.227 C  
HETATM   13  O   UNL     1      -9.720  11.975  64.250  1.00  0.00    -0.186 OA 
ENDROOT
BRANCH  12  14
HETATM   14  N   UNL     1     -10.637  11.244  67.466  1.00  0.00    -0.207 N  
HETATM   15  C   UNL     1     -10.196   9.962  67.720  1.00  0.00    -0.197 C  
HETATM   16  H   UNL     1     -10.441  11.962  68.162  1.00  0.00     0.000 HD 
HETATM   17  O   UNL     1     -10.369   9.039  66.935  1.00  0.00    -0.256 OA 
BRANCH  15  18
HETATM   18  C   UNL     1      -9.480   9.744  69.022  1.00  0.00    -0.173 A  
HETATM   19  C   UNL     1     -10.132   9.033  70.059  1.00  0.00    -0.196 A  
HETATM   20  C   UNL     1      -9.444   8.774  71.244  1.00  0.00    -0.320 A  
HETATM   21  C   UNL     1      -6.041  11.272  68.416  1.00  0.00    -0.045 A  
HETATM   22  C   UNL     1      -8.120   9.177  71.396  1.00  0.00    -0.003 A  
HETATM   23  C   UNL     1      -8.124  10.188  69.175  1.00  0.00    -0.134 A  
HETATM   24  C   UNL     1      -7.385  10.934  68.220  1.00  0.00    -0.087 A  
HETATM   25  C   UNL     1      -7.449   9.862  70.380  1.00  0.00    -0.137 A  
HETATM   26  C   UNL     1      -6.101  10.209  70.565  1.00  0.00    -0.108 A  
HETATM   27  C   UNL     1      -5.394  10.896  69.582  1.00  0.00    -0.039 A  
BRANCH  19  28
HETATM   28  O   UNL     1     -11.423   8.618  69.833  1.00  0.00    -0.046 OA 
BRANCH  28  29
HETATM   29  C   UNL     1     -11.773   7.291  70.228  1.00  0.00    -0.126 C  
HETATM   30  C   UNL     1     -11.145   6.324  69.239  1.00  0.00    -0.461 C  
ENDBRANCH  28  29
ENDBRANCH  19  28
ENDBRANCH  15  18
ENDBRANCH  12  14
TORSDOF 4
ENDMDL
MODEL       37
REMARK 921   NORMALIZED FREE ENERGY PREDICTED BY IDOCK:   -6.12 KCAL/MOL
REMARK 922        TOTAL FREE ENERGY PREDICTED BY IDOCK:   -8.69 KCAL/MOL
REMARK 923 INTER-LIGAND FREE ENERGY PREDICTED BY IDOCK:   -7.49 KCAL/MOL
REMARK 924 INTRA-LIGAND FREE ENERGY PREDICTED BY IDOCK:   -1.20 KCAL/MOL
REMARK 927      BINDING AFFINITY PREDICTED BY RF-SCORE:    0.00 PKD
ROOT
HETATM    1  C   UNL     1     -11.987  12.899  66.862  1.00  0.00    -0.335 C  
HETATM    2  S   UNL     1     -11.187  14.020  68.079  1.00  0.00    -0.294 SA 
HETATM    3  C   UNL     1      -9.797  14.491  66.947  1.00  0.00    -0.262 C  
HETATM    4  C   UNL     1      -9.349  15.926  67.236  1.00  0.00    -0.218 C  
HETATM    5  CA  UNL     1     -10.333  14.234  65.518  1.00  0.00    -0.355 C  
HETATM    6  C   UNL     1      -8.601  13.578  67.282  1.00  0.00    -0.218 C  
HETATM    7  N   UNL     1     -11.257  13.089  65.596  1.00  0.00    -0.280 N  
HETATM    8  C   UNL     1     -11.093  15.398  64.856  1.00  0.00    -0.423 C  
HETATM    9  OXT UNL     1     -10.671  16.537  64.744  1.00  0.00    -0.719 OA 
HETATM   10  O   UNL     1     -12.282  15.025  64.315  1.00  0.00    -0.528 OA 
HETATM   11  C   UNL     1     -10.732  11.820  65.588  1.00  0.00    -0.280 C  
HETATM   12  CA  UNL     1     -11.548  11.407  66.859  1.00  0.00    -0.004 C  
HETATM   13  O   UNL     1      -9.891  11.387  64.838  1.00  0.00    -0.240 OA 
ENDROOT
BRANCH  12  14
HETATM   14  N   UNL     1     -10.852  10.953  68.094  1.00  0.00    -0.214 N  
HETATM   15  C   UNL     1     -10.464   9.651  68.333  1.00  0.00    -0.223 C  
HETATM   16  H   UNL     1     -10.648  11.650  68.810  1.00  0.00     0.000 HD 
HETATM   17  O   UNL     1     -10.650   8.751  67.525  1.00  0.00    -0.267 OA 
BRANCH  15  18
HETATM   18  C   UNL     1      -9.792   9.381  69.648  1.00  0.00    -0.205 A  
HETATM   19  C   UNL     1     -10.586   9.090  70.784  1.00  0.00    -0.240 A  
HETATM   20  C   UNL     1      -9.961   8.777  71.991  1.00  0.00    -0.391 A  
HETATM   21  C   UNL     1      -6.079   9.522  68.798  1.00  0.00    -0.043 A  
HETATM   22  C   UNL     1      -8.573   8.712  72.072  1.00  0.00    -0.216 A  
HETATM   23  C   UNL     1      -8.360   9.343  69.725  1.00  0.00    -0.161 A  
HETATM   24  C   UNL     1      -7.467   9.647  68.664  1.00  0.00    -0.075 A  
HETATM   25  C   UNL     1      -7.768   8.974  70.960  1.00  0.00    -0.153 A  
HETATM   26  C   UNL     1      -6.374   8.854  71.082  1.00  0.00    -0.060 A  
HETATM   27  C   UNL     1      -5.533   9.109  70.003  1.00  0.00    -0.028 A  
BRANCH  19  28
HETATM   28  O   UNL     1     -11.952   9.122  70.632  1.00  0.00    -0.239 OA 
BRANCH  28  29
HETATM   29  C   UNL     1     -12.727   8.190  71.387  1.00  0.00    -0.268 C  
HETATM   30  C   UNL     1     -13.677   8.976  72.275  1.00  0.00    -0.550 C  
ENDBRANCH  28  29
ENDBRANCH  19  28
ENDBRANCH  15  18
ENDBRANCH  12  14
TORSDOF 4
ENDMDL
MODEL       38
REMARK 921   NORMALIZED FREE ENERGY PREDICTED BY IDOCK:   -6.11 KCAL/MOL
REMARK 922        TOTAL FREE ENERGY PREDICTED BY IDOCK:   -8.68 KCAL/MOL
REMARK 923 INTER-LIGAND FREE ENERGY PREDICTED BY IDOCK:   -7.60 KCAL/MOL
REMARK 924 INTRA-LIGAND FREE ENERGY PREDICTED BY IDOCK:   -1.08 KCAL/MOL
REMARK 927      BINDING AFFINITY PREDICTED BY RF-SCORE:    0.00 PKD
ROOT
HETATM    1  C   UNL     1     -10.858  15.090  66.675  1.00  0.00    -0.318 C  
HETATM    2  S   UNL     1     -11.559  15.380  68.349  1.00  0.00    -0.319 SA 
HETATM    3  C   UNL     1     -10.112  16.375  68.940  1.00  0.00    -0.255 C  
HETATM    4  C   UNL     1     -10.577  17.430  69.947  1.00  0.00     0.443 C  
HETATM    5  CA  UNL     1      -9.447  16.927  67.655  1.00  0.00    -0.241 C  
HETATM    6  C   UNL     1      -9.175  15.418  69.703  1.00  0.00    -0.188 C  
HETATM    7  N   UNL     1      -9.646  15.924  66.595  1.00  0.00    -0.232 N  
HETATM    8  C   UNL     1      -9.989  18.269  67.130  1.00  0.00    -0.337 C  
HETATM    9  OXT UNL     1     -10.097  19.289  67.792  1.00  0.00    -0.346 OA 
HETATM   10  O   UNL     1     -10.275  18.251  65.803  1.00  0.00    -0.576 OA 
HETATM   11  C   UNL     1      -8.787  14.853  66.535  1.00  0.00    -0.221 C  
HETATM   12  CA  UNL     1      -9.970  13.829  66.475  1.00  0.00    -0.288 C  
HETATM   13  O   UNL     1      -7.582  14.884  66.601  1.00  0.00     0.138 OA 
ENDROOT
BRANCH  12  14
HETATM   14  N   UNL     1     -10.120  12.780  67.520  1.00  0.00    -0.211 N  
HETATM   15  C   UNL     1     -11.204  11.932  67.619  1.00  0.00    -0.276 C  
HETATM   16  H   UNL     1      -9.374  12.682  68.208  1.00  0.00     0.000 HD 
HETATM   17  O   UNL     1     -12.138  11.964  66.830  1.00  0.00    -0.593 OA 
BRANCH  15  18
HETATM   18  C   UNL     1     -11.187  10.951  68.756  1.00  0.00    -0.329 A  
HETATM   19  C   UNL     1     -11.630  11.366  70.035  1.00  0.00    -0.299 A  
HETATM   20  C   UNL     1     -11.675  10.438  71.075  1.00  0.00    -0.430 A  
HETATM   21  C   UNL     1     -10.010   7.714  67.122  1.00  0.00    -0.297 A  
HETATM   22  C   UNL     1     -11.324   9.109  70.853  1.00  0.00    -0.359 A  
HETATM   23  C   UNL     1     -10.797   9.590  68.520  1.00  0.00    -0.175 A  
HETATM   24  C   UNL     1     -10.307   9.071  67.293  1.00  0.00    -0.342 A  
HETATM   25  C   UNL     1     -10.902   8.671  69.595  1.00  0.00    -0.163 A  
HETATM   26  C   UNL     1     -10.600   7.311  69.412  1.00  0.00    -0.238 A  
HETATM   27  C   UNL     1     -10.173   6.831  68.178  1.00  0.00    -0.198 A  
BRANCH  19  28
HETATM   28  O   UNL     1     -12.010  12.678  70.183  1.00  0.00    -0.346 OA 
BRANCH  28  29
HETATM   29  C   UNL     1     -12.911  12.994  71.244  1.00  0.00    -0.243 C  
HETATM   30  C   UNL     1     -12.494  14.330  71.836  1.00  0.00    -0.364 C  
ENDBRANCH  28  29
ENDBRANCH  19  28
ENDBRANCH  15  18
ENDBRANCH  12  14
TORSDOF 4
ENDMDL
MODEL       39
REMARK 921   NORMALIZED FREE ENERGY PREDICTED BY IDOCK:   -6.07 KCAL/MOL
REMARK 922        TOTAL FREE ENERGY PREDICTED BY IDOCK:   -8.62 KCAL/MOL
REMARK 923 INTER-LIGAND FREE ENERGY PREDICTED BY IDOCK:   -7.43 KCAL/MOL
REMARK 924 INTRA-LIGAND FREE ENERGY PREDICTED BY IDOCK:   -1.20 KCAL/MOL
REMARK 927      BINDING AFFINITY PREDICTED BY RF-SCORE:    0.00 PKD
ROOT
HETATM    1  C   UNL     1     -11.526   7.833  70.667  1.00  0.00    -0.245 C  
HETATM    2  S   UNL     1     -11.374   6.453  69.465  1.00  0.00    -0.330 SA 
HETATM    3  C   UNL     1      -9.732   5.883  70.107  1.00  0.00    -0.168 C  
HETATM    4  C   UNL     1      -9.600   4.367  69.937  1.00  0.00    -0.275 C  
HETATM    5  CA  UNL     1      -9.666   6.399  71.565  1.00  0.00    -0.168 C  
HETATM    6  C   UNL     1      -8.644   6.524  69.224  1.00  0.00    -0.127 C  
HETATM    7  N   UNL     1     -10.408   7.671  71.613  1.00  0.00    -0.189 N  
HETATM    8  C   UNL     1     -10.263   5.474  72.642  1.00  0.00    -0.187 C  
HETATM    9  OXT UNL     1      -9.970   4.300  72.799  1.00  0.00    -0.141 OA 
HETATM   10  O   UNL     1     -11.112   6.112  73.488  1.00  0.00    -0.173 OA 
HETATM   11  C   UNL     1      -9.768   8.819  71.216  1.00  0.00    -0.265 C  
HETATM   12  CA  UNL     1     -10.940   9.214  70.256  1.00  0.00    -0.245 C  
HETATM   13  O   UNL     1      -8.664   9.184  71.541  1.00  0.00    -0.334 OA 
ENDROOT
BRANCH  12  14
HETATM   14  N   UNL     1     -10.700   9.389  68.797  1.00  0.00    -0.339 N  
HETATM   15  C   UNL     1     -10.042  10.466  68.241  1.00  0.00    -0.153 C  
HETATM   16  H   UNL     1     -11.045   8.664  68.168  1.00  0.00     0.000 HD 
HETATM   17  O   UNL     1      -9.579  11.374  68.918  1.00  0.00    -0.170 OA 
BRANCH  15  18
HETATM   18  C   UNL     1      -9.916  10.477  66.745  1.00  0.00    -0.252 A  
HETATM   19  C   UNL     1      -9.048   9.551  66.117  1.00  0.00    -0.166 A  
HETATM   20  C   UNL     1      -8.980   9.517  64.724  1.00  0.00    -0.263 A  
HETATM   21  C   UNL     1     -12.417  13.140  65.659  1.00  0.00    -0.485 A  
HETATM   22  C   UNL     1      -9.781  10.357  63.957  1.00  0.00    -0.373 A  
HETATM   23  C   UNL     1     -10.728  11.367  65.966  1.00  0.00    -0.318 A  
HETATM   24  C   UNL     1     -11.606  12.354  66.486  1.00  0.00    -0.447 A  
HETATM   25  C   UNL     1     -10.660  11.266  64.553  1.00  0.00    -0.401 A  
HETATM   26  C   UNL     1     -11.479  12.062  63.734  1.00  0.00    -0.547 A  
HETATM   27  C   UNL     1     -12.365  12.982  64.283  1.00  0.00    -0.436 A  
BRANCH  19  28
HETATM   28  O   UNL     1      -8.317   8.713  66.925  1.00  0.00    -0.107 OA 
BRANCH  28  29
HETATM   29  C   UNL     1      -6.894   8.762  66.819  1.00  0.00    -0.069 C  
HETATM   30  C   UNL     1      -6.367   9.641  67.941  1.00  0.00    -0.057 C  
ENDBRANCH  28  29
ENDBRANCH  19  28
ENDBRANCH  15  18
ENDBRANCH  12  14
TORSDOF 4
ENDMDL
MODEL       40
REMARK 921   NORMALIZED FREE ENERGY PREDICTED BY IDOCK:   -6.05 KCAL/MOL
REMARK 922        TOTAL FREE ENERGY PREDICTED BY IDOCK:   -8.60 KCAL/MOL
REMARK 923 INTER-LIGAND FREE ENERGY PREDICTED BY IDOCK:   -7.44 KCAL/MOL
REMARK 924 INTRA-LIGAND FREE ENERGY PREDICTED BY IDOCK:   -1.17 KCAL/MOL
REMARK 927      BINDING AFFINITY PREDICTED BY RF-SCORE:    0.00 PKD
ROOT
HETATM    1  C   UNL     1      -9.595   9.163  68.172  1.00  0.00    -0.144 C  
HETATM    2  S   UNL     1      -8.831  10.165  66.835  1.00  0.00    -0.132 SA 
HETATM    3  C   UNL     1      -7.115  10.040  67.526  1.00  0.00    -0.087 C  
HETATM    4  C   UNL     1      -6.090  10.054  66.390  1.00  0.00    -0.067 C  
HETATM    5  CA  UNL     1      -7.123   8.763  68.402  1.00  0.00    -0.077 C  
HETATM    6  C   UNL     1      -6.863  11.308  68.365  1.00  0.00    -0.063 C  
HETATM    7  N   UNL     1      -8.476   8.630  68.969  1.00  0.00    -0.123 N  
HETATM    8  C   UNL     1      -6.791   7.443  67.683  1.00  0.00    -0.078 C  
HETATM    9  OXT UNL     1      -5.800   7.248  66.998  1.00  0.00    -0.025 OA 
HETATM   10  O   UNL     1      -7.677   6.449  67.946  1.00  0.00    -0.100 OA 
HETATM   11  C   UNL     1      -8.792   9.357  70.090  1.00  0.00    -0.223 C  
HETATM   12  CA  UNL     1     -10.101   9.914  69.436  1.00  0.00    -0.212 C  
HETATM   13  O   UNL     1      -8.131   9.467  71.094  1.00  0.00    -0.322 OA 
ENDROOT
BRANCH  12  14
HETATM   14  N   UNL     1     -10.299  11.379  69.262  1.00  0.00    -0.419 N  
HETATM   15  C   UNL     1     -11.478  11.959  68.841  1.00  0.00    -0.301 C  
HETATM   16  H   UNL     1      -9.512  11.994  69.467  1.00  0.00     0.000 HD 
HETATM   17  O   UNL     1     -12.480  11.303  68.589  1.00  0.00    -0.442 OA 
BRANCH  15  18
HETATM   18  C   UNL     1     -11.479  13.454  68.704  1.00  0.00    -0.345 A  
HETATM   19  C   UNL     1     -11.748  14.253  69.842  1.00  0.00    -0.311 A  
HETATM   20  C   UNL     1     -11.686  15.642  69.729  1.00  0.00    -0.368 A  
HETATM   21  C   UNL     1     -10.479  14.017  65.069  1.00  0.00    -0.440 A  
HETATM   22  C   UNL     1     -11.327  16.239  68.524  1.00  0.00    -0.330 A  
HETATM   23  C   UNL     1     -11.134  14.057  67.448  1.00  0.00    -0.317 A  
HETATM   24  C   UNL     1     -10.877  13.360  66.239  1.00  0.00    -0.294 A  
HETATM   25  C   UNL     1     -11.037  15.471  67.393  1.00  0.00    -0.285 A  
HETATM   26  C   UNL     1     -10.638  16.119  66.212  1.00  0.00    -0.276 A  
HETATM   27  C   UNL     1     -10.344  15.396  65.060  1.00  0.00    -0.362 A  
BRANCH  19  28
HETATM   28  O   UNL     1     -12.050  13.608  71.017  1.00  0.00    -0.322 OA 
BRANCH  28  29
HETATM   29  C   UNL     1     -13.329  13.854  71.601  1.00  0.00    -0.362 C  
HETATM   30  C   UNL     1     -13.120  14.662  72.870  1.00  0.00    -0.609 C  
ENDBRANCH  28  29
ENDBRANCH  19  28
ENDBRANCH  15  18
ENDBRANCH  12  14
TORSDOF 4
ENDMDL
MODEL       41
REMARK 921   NORMALIZED FREE ENERGY PREDICTED BY IDOCK:   -6.05 KCAL/MOL
REMARK 922        TOTAL FREE ENERGY PREDICTED BY IDOCK:   -8.60 KCAL/MOL
REMARK 923 INTER-LIGAND FREE ENERGY PREDICTED BY IDOCK:   -7.46 KCAL/MOL
REMARK 924 INTRA-LIGAND FREE ENERGY PREDICTED BY IDOCK:   -1.14 KCAL/MOL
REMARK 927      BINDING AFFINITY PREDICTED BY RF-SCORE:    0.00 PKD
ROOT
HETATM    1  C   UNL     1      -8.605  10.007  65.653  1.00  0.00    -0.155 C  
HETATM    2  S   UNL     1      -7.413  10.702  66.865  1.00  0.00    -0.121 SA 
HETATM    3  C   UNL     1      -7.461   9.220  67.978  1.00  0.00    -0.083 C  
HETATM    4  C   UNL     1      -6.104   9.033  68.661  1.00  0.00    -0.045 C  
HETATM    5  CA  UNL     1      -7.920   8.050  67.074  1.00  0.00    -0.108 C  
HETATM    6  C   UNL     1      -8.481   9.515  69.094  1.00  0.00    -0.131 C  
HETATM    7  N   UNL     1      -8.832   8.611  66.062  1.00  0.00    -0.167 N  
HETATM    8  C   UNL     1      -6.809   7.290  66.326  1.00  0.00    -0.058 C  
HETATM    9  OXT UNL     1      -5.817   6.805  66.847  1.00  0.00    -0.013 OA 
HETATM   10  O   UNL     1      -7.066   7.126  65.003  1.00  0.00    -0.059 OA 
HETATM   11  C   UNL     1     -10.146   8.814  66.404  1.00  0.00    -0.243 C  
HETATM   12  CA  UNL     1     -10.117  10.291  65.885  1.00  0.00    -0.251 C  
HETATM   13  O   UNL     1     -10.878   8.038  66.969  1.00  0.00    -0.283 OA 
ENDROOT
BRANCH  12  14
HETATM   14  N   UNL     1     -10.411  11.425  66.804  1.00  0.00    -0.234 N  
HETATM   15  C   UNL     1     -11.473  12.292  66.652  1.00  0.00    -0.373 C  
HETATM   16  H   UNL     1      -9.787  11.570  67.597  1.00  0.00     0.000 HD 
HETATM   17  O   UNL     1     -12.283  12.186  65.741  1.00  0.00    -0.586 OA 
BRANCH  15  18
HETATM   18  C   UNL     1     -11.594  13.390  67.669  1.00  0.00    -0.377 A  
HETATM   19  C   UNL     1     -12.028  13.075  68.980  1.00  0.00    -0.267 A  
HETATM   20  C   UNL     1     -12.079  14.083  69.942  1.00  0.00    -0.406 A  
HETATM   21  C   UNL     1     -10.342  16.472  65.808  1.00  0.00    -0.359 A  
HETATM   22  C   UNL     1     -11.673  15.377  69.632  1.00  0.00    -0.355 A  
HETATM   23  C   UNL     1     -11.198  14.727  67.329  1.00  0.00    -0.351 A  
HETATM   24  C   UNL     1     -10.778  15.164  66.045  1.00  0.00    -0.333 A  
HETATM   25  C   UNL     1     -11.222  15.709  68.352  1.00  0.00    -0.352 A  
HETATM   26  C   UNL     1     -10.783  17.020  68.101  1.00  0.00    -0.374 A  
HETATM   27  C   UNL     1     -10.329  17.396  66.841  1.00  0.00    -0.317 A  
BRANCH  19  28
HETATM   28  O   UNL     1     -12.370  11.769  69.240  1.00  0.00    -0.178 OA 
BRANCH  28  29
HETATM   29  C   UNL     1     -11.809  11.154  70.401  1.00  0.00    -0.369 C  
HETATM   30  C   UNL     1     -12.908  10.370  71.097  1.00  0.00    -0.511 C  
ENDBRANCH  28  29
ENDBRANCH  19  28
ENDBRANCH  15  18
ENDBRANCH  12  14
TORSDOF 4
ENDMDL
MODEL       42
REMARK 921   NORMALIZED FREE ENERGY PREDICTED BY IDOCK:   -5.95 KCAL/MOL
REMARK 922        TOTAL FREE ENERGY PREDICTED BY IDOCK:   -8.48 KCAL/MOL
REMARK 923 INTER-LIGAND FREE ENERGY PREDICTED BY IDOCK:   -7.27 KCAL/MOL
REMARK 924 INTRA-LIGAND FREE ENERGY PREDICTED BY IDOCK:   -1.21 KCAL/MOL
REMARK 927      BINDING AFFINITY PREDICTED BY RF-SCORE:    0.00 PKD
ROOT
HETATM    1  C   UNL     1     -11.638   8.253  70.874  1.00  0.00    -0.262 C  
HETATM    2  S   UNL     1     -11.774   6.912  69.625  1.00  0.00     0.089 SA 
HETATM    3  C   UNL     1     -10.083   6.233  69.960  1.00  0.00    -0.175 C  
HETATM    4  C   UNL     1     -10.070   4.720  69.728  1.00  0.00    -0.289 C  
HETATM    5  CA  UNL     1      -9.741   6.689  71.399  1.00  0.00    -0.172 C  
HETATM    6  C   UNL     1      -9.125   6.848  68.922  1.00  0.00    -0.134 C  
HETATM    7  N   UNL     1     -10.388   7.996  71.609  1.00  0.00    -0.206 N  
HETATM    8  C   UNL     1     -10.199   5.758  72.536  1.00  0.00    -0.188 C  
HETATM    9  OXT UNL     1      -9.953   4.564  72.607  1.00  0.00    -0.153 OA 
HETATM   10  O   UNL     1     -10.854   6.407  73.533  1.00  0.00    -0.260 OA 
HETATM   11  C   UNL     1      -9.758   9.123  71.141  1.00  0.00    -0.290 C  
HETATM   12  CA  UNL     1     -11.050   9.615  70.408  1.00  0.00    -0.290 C  
HETATM   13  O   UNL     1      -8.595   9.416  71.281  1.00  0.00    -0.299 OA 
ENDROOT
BRANCH  12  14
HETATM   14  N   UNL     1     -11.052   9.831  68.935  1.00  0.00    -0.421 N  
HETATM   15  C   UNL     1     -10.234  10.729  68.280  1.00  0.00    -0.167 C  
HETATM   16  H   UNL     1     -11.700   9.280  68.372  1.00  0.00     0.000 HD 
HETATM   17  O   UNL     1      -9.413  11.421  68.869  1.00  0.00    -0.155 OA 
BRANCH  15  18
HETATM   18  C   UNL     1     -10.395  10.822  66.790  1.00  0.00    -0.294 A  
HETATM   19  C   UNL     1     -11.328  11.741  66.251  1.00  0.00    -0.287 A  
HETATM   20  C   UNL     1     -11.432  11.873  64.867  1.00  0.00    -0.315 A  
HETATM   21  C   UNL     1      -7.778   8.393  65.457  1.00  0.00    -0.097 A  
HETATM   22  C   UNL     1     -10.605  11.140  64.022  1.00  0.00    -0.436 A  
HETATM   23  C   UNL     1      -9.554  10.040  65.930  1.00  0.00    -0.283 A  
HETATM   24  C   UNL     1      -8.611   9.069  66.356  1.00  0.00    -0.136 A  
HETATM   25  C   UNL     1      -9.662  10.241  64.530  1.00  0.00    -0.395 A  
HETATM   26  C   UNL     1      -8.821   9.556  63.638  1.00  0.00    -0.236 A  
HETATM   27  C   UNL     1      -7.872   8.649  64.098  1.00  0.00    -0.141 A  
BRANCH  19  28
HETATM   28  O   UNL     1     -12.084  12.474  67.135  1.00  0.00    -0.504 OA 
BRANCH  28  29
HETATM   29  C   UNL     1     -12.034  13.897  67.032  1.00  0.00    -0.424 C  
HETATM   30  C   UNL     1     -11.603  14.452  68.379  1.00  0.00    -0.351 C  
ENDBRANCH  28  29
ENDBRANCH  19  28
ENDBRANCH  15  18
ENDBRANCH  12  14
TORSDOF 4
ENDMDL
MODEL       43
REMARK 921   NORMALIZED FREE ENERGY PREDICTED BY IDOCK:   -5.94 KCAL/MOL
REMARK 922        TOTAL FREE ENERGY PREDICTED BY IDOCK:   -8.47 KCAL/MOL
REMARK 923 INTER-LIGAND FREE ENERGY PREDICTED BY IDOCK:   -7.40 KCAL/MOL
REMARK 924 INTRA-LIGAND FREE ENERGY PREDICTED BY IDOCK:   -1.07 KCAL/MOL
REMARK 927      BINDING AFFINITY PREDICTED BY RF-SCORE:    0.00 PKD
ROOT
HETATM    1  C   UNL     1     -11.896  12.675  66.861  1.00  0.00    -0.355 C  
HETATM    2  S   UNL     1     -11.498  13.779  68.275  1.00  0.00    -0.335 SA 
HETATM    3  C   UNL     1      -9.954  14.450  67.501  1.00  0.00    -0.224 C  
HETATM    4  C   UNL     1      -9.730  15.898  67.947  1.00  0.00    -0.216 C  
HETATM    5  CA  UNL     1     -10.140  14.243  65.979  1.00  0.00    -0.318 C  
HETATM    6  C   UNL     1      -8.770  13.631  68.051  1.00  0.00    -0.176 C  
HETATM    7  N   UNL     1     -10.934  13.016  65.798  1.00  0.00    -0.275 N  
HETATM    8  C   UNL     1     -10.856  15.374  65.219  1.00  0.00    -0.409 C  
HETATM    9  OXT UNL     1     -10.541  16.553  65.256  1.00  0.00    -0.575 OA 
HETATM   10  O   UNL     1     -11.855  14.933  64.412  1.00  0.00    -0.415 OA 
HETATM   11  C   UNL     1     -10.290  11.803  65.848  1.00  0.00    -0.241 C  
HETATM   12  CA  UNL     1     -11.314  11.233  66.887  1.00  0.00    -0.155 C  
HETATM   13  O   UNL     1      -9.268  11.501  65.283  1.00  0.00    -0.184 OA 
ENDROOT
BRANCH  12  14
HETATM   14  N   UNL     1     -10.857  10.762  68.223  1.00  0.00    -0.210 N  
HETATM   15  C   UNL     1     -10.633   9.439  68.546  1.00  0.00    -0.197 C  
HETATM   16  H   UNL     1     -10.699  11.463  68.947  1.00  0.00     0.000 HD 
HETATM   17  O   UNL     1     -10.780   8.532  67.738  1.00  0.00    -0.201 OA 
BRANCH  15  18
HETATM   18  C   UNL     1     -10.195   9.157  69.954  1.00  0.00    -0.222 A  
HETATM   19  C   UNL     1     -11.171   9.041  70.973  1.00  0.00    -0.295 A  
HETATM   20  C   UNL     1     -10.770   8.715  72.268  1.00  0.00    -0.383 A  
HETATM   21  C   UNL     1      -6.418   8.747  69.646  1.00  0.00    -0.039 A  
HETATM   22  C   UNL     1      -9.430   8.469  72.552  1.00  0.00    -0.328 A  
HETATM   23  C   UNL     1      -8.807   8.931  70.238  1.00  0.00    -0.191 A  
HETATM   24  C   UNL     1      -7.741   9.050  69.307  1.00  0.00    -0.090 A  
HETATM   25  C   UNL     1      -8.450   8.556  71.559  1.00  0.00    -0.221 A  
HETATM   26  C   UNL     1      -7.117   8.256  71.886  1.00  0.00    -0.095 A  
HETATM   27  C   UNL     1      -6.108   8.334  70.932  1.00  0.00    -0.033 A  
BRANCH  19  28
HETATM   28  O   UNL     1     -12.485   9.248  70.623  1.00  0.00    -0.123 OA 
BRANCH  28  29
HETATM   29  C   UNL     1     -13.472   9.125  71.647  1.00  0.00    -0.391 C  
HETATM   30  C   UNL     1     -14.078   7.735  71.553  1.00  0.00    -0.509 C  
ENDBRANCH  28  29
ENDBRANCH  19  28
ENDBRANCH  15  18
ENDBRANCH  12  14
TORSDOF 4
ENDMDL
MODEL       44
REMARK 921   NORMALIZED FREE ENERGY PREDICTED BY IDOCK:   -5.93 KCAL/MOL
REMARK 922        TOTAL FREE ENERGY PREDICTED BY IDOCK:   -8.46 KCAL/MOL
REMARK 923 INTER-LIGAND FREE ENERGY PREDICTED BY IDOCK:   -7.30 KCAL/MOL
REMARK 924 INTRA-LIGAND FREE ENERGY PREDICTED BY IDOCK:   -1.16 KCAL/MOL
REMARK 927      BINDING AFFINITY PREDICTED BY RF-SCORE:    0.00 PKD
ROOT
HETATM    1  C   UNL     1      -9.133   8.875  71.586  1.00  0.00    -0.210 C  
HETATM    2  S   UNL     1     -10.969   8.883  71.648  1.00  0.00    -0.367 SA 
HETATM    3  C   UNL     1     -11.133   7.080  71.252  1.00  0.00    -0.252 C  
HETATM    4  C   UNL     1     -12.375   6.504  71.937  1.00  0.00    -0.339 C  
HETATM    5  CA  UNL     1      -9.785   6.448  71.674  1.00  0.00    -0.160 C  
HETATM    6  C   UNL     1     -11.371   6.961  69.734  1.00  0.00    -0.288 C  
HETATM    7  N   UNL     1      -8.739   7.462  71.454  1.00  0.00    -0.125 N  
HETATM    8  C   UNL     1      -9.679   5.984  73.138  1.00  0.00    -0.162 C  
HETATM    9  OXT UNL     1     -10.468   5.240  73.697  1.00  0.00    -0.210 OA 
HETATM   10  O   UNL     1      -8.553   6.419  73.760  1.00  0.00    -0.121 OA 
HETATM   11  C   UNL     1      -8.229   7.614  70.187  1.00  0.00    -0.124 C  
HETATM   12  CA  UNL     1      -8.456   9.163  70.216  1.00  0.00    -0.191 C  
HETATM   13  O   UNL     1      -7.862   6.738  69.442  1.00  0.00    -0.109 OA 
ENDROOT
BRANCH  12  14
HETATM   14  N   UNL     1      -9.331   9.821  69.207  1.00  0.00    -0.179 N  
HETATM   15  C   UNL     1      -8.949  10.894  68.429  1.00  0.00    -0.154 C  
HETATM   16  H   UNL     1     -10.275   9.454  69.083  1.00  0.00     0.000 HD 
HETATM   17  O   UNL     1      -7.832  11.389  68.496  1.00  0.00    -0.126 OA 
BRANCH  15  18
HETATM   18  C   UNL     1      -9.979  11.436  67.481  1.00  0.00    -0.201 A  
HETATM   19  C   UNL     1     -10.950  12.348  67.961  1.00  0.00    -0.225 A  
HETATM   20  C   UNL     1     -11.867  12.901  67.067  1.00  0.00    -0.437 A  
HETATM   21  C   UNL     1      -8.981   9.931  64.124  1.00  0.00    -0.274 A  
HETATM   22  C   UNL     1     -11.807  12.592  65.712  1.00  0.00    -0.494 A  
HETATM   23  C   UNL     1      -9.923  11.089  66.089  1.00  0.00    -0.277 A  
HETATM   24  C   UNL     1      -9.017  10.166  65.503  1.00  0.00    -0.202 A  
HETATM   25  C   UNL     1     -10.845  11.711  65.210  1.00  0.00    -0.340 A  
HETATM   26  C   UNL     1     -10.799  11.465  63.828  1.00  0.00    -0.468 A  
HETATM   27  C   UNL     1      -9.862  10.593  63.284  1.00  0.00    -0.364 A  
BRANCH  19  28
HETATM   28  O   UNL     1     -10.930  12.652  69.301  1.00  0.00    -0.179 OA 
BRANCH  28  29
HETATM   29  C   UNL     1     -12.052  12.253  70.090  1.00  0.00    -0.287 C  
HETATM   30  C   UNL     1     -12.442  13.421  70.980  1.00  0.00    -0.437 C  
ENDBRANCH  28  29
ENDBRANCH  19  28
ENDBRANCH  15  18
ENDBRANCH  12  14
TORSDOF 4
ENDMDL
MODEL       45
REMARK 921   NORMALIZED FREE ENERGY PREDICTED BY IDOCK:   -5.89 KCAL/MOL
REMARK 922        TOTAL FREE ENERGY PREDICTED BY IDOCK:   -8.41 KCAL/MOL
REMARK 923 INTER-LIGAND FREE ENERGY PREDICTED BY IDOCK:   -8.30 KCAL/MOL
REMARK 924 INTRA-LIGAND FREE ENERGY PREDICTED BY IDOCK:   -0.11 KCAL/MOL
REMARK 927      BINDING AFFINITY PREDICTED BY RF-SCORE:    0.00 PKD
ROOT
HETATM    1  C   UNL     1     -12.485  13.860  65.738  1.00  0.00    -0.495 C  
HETATM    2  S   UNL     1     -12.328  14.629  67.399  1.00  0.00     0.371 SA 
HETATM    3  C   UNL     1     -10.594  15.221  67.118  1.00  0.00    -0.302 C  
HETATM    4  C   UNL     1     -10.354  16.523  67.888  1.00  0.00    -0.294 C  
HETATM    5  CA  UNL     1     -10.443  15.318  65.580  1.00  0.00    -0.358 C  
HETATM    6  C   UNL     1      -9.644  14.169  67.721  1.00  0.00    -0.219 C  
HETATM    7  N   UNL     1     -11.280  14.258  64.991  1.00  0.00    -0.345 N  
HETATM    8  C   UNL     1     -10.865  16.652  64.937  1.00  0.00    -0.142 C  
HETATM    9  OXT UNL     1     -10.464  17.753  65.279  1.00  0.00    -0.605 OA 
HETATM   10  O   UNL     1     -11.686  16.498  63.867  1.00  0.00    -1.148 OA 
HETATM   11  C   UNL     1     -10.773  12.984  64.924  1.00  0.00    -0.332 C  
HETATM   12  CA  UNL     1     -12.053  12.374  65.588  1.00  0.00    -0.329 C  
HETATM   13  O   UNL     1      -9.678  12.657  64.534  1.00  0.00    -0.076 OA 
ENDROOT
BRANCH  12  14
HETATM   14  N   UNL     1     -11.957  11.613  66.864  1.00  0.00     0.084 N  
HETATM   15  C   UNL     1     -10.898  10.798  67.205  1.00  0.00    -0.288 C  
HETATM   16  H   UNL     1     -12.726  11.700  67.529  1.00  0.00     0.000 HD 
HETATM   17  O   UNL     1      -9.925  10.646  66.479  1.00  0.00    -0.200 OA 
BRANCH  15  18
HETATM   18  C   UNL     1     -10.991  10.095  68.529  1.00  0.00    -0.278 A  
HETATM   19  C   UNL     1     -11.296  10.844  69.691  1.00  0.00    -0.292 A  
HETATM   20  C   UNL     1     -11.446  10.181  70.909  1.00  0.00    -0.444 A  
HETATM   21  C   UNL     1     -10.458   6.429  67.629  1.00  0.00    -0.284 A  
HETATM   22  C   UNL     1     -11.335   8.796  70.979  1.00  0.00    -0.332 A  
HETATM   23  C   UNL     1     -10.848   8.668  68.591  1.00  0.00    -0.003 A  
HETATM   24  C   UNL     1     -10.513   7.822  67.502  1.00  0.00    -0.338 A  
HETATM   25  C   UNL     1     -11.055   8.032  69.842  1.00  0.00    -0.108 A  
HETATM   26  C   UNL     1     -10.995   6.634  69.956  1.00  0.00    -0.363 A  
HETATM   27  C   UNL     1     -10.715   5.834  68.853  1.00  0.00    -0.334 A  
BRANCH  19  28
HETATM   28  O   UNL     1     -11.441  12.204  69.553  1.00  0.00    -0.279 OA 
BRANCH  28  29
HETATM   29  C   UNL     1     -12.404  12.857  70.380  1.00  0.00    -0.258 C  
HETATM   30  C   UNL     1     -11.818  14.184  70.829  1.00  0.00    -0.313 C  
ENDBRANCH  28  29
ENDBRANCH  19  28
ENDBRANCH  15  18
ENDBRANCH  12  14
TORSDOF 4
ENDMDL
MODEL       46
REMARK 921   NORMALIZED FREE ENERGY PREDICTED BY IDOCK:   -5.88 KCAL/MOL
REMARK 922        TOTAL FREE ENERGY PREDICTED BY IDOCK:   -8.40 KCAL/MOL
REMARK 923 INTER-LIGAND FREE ENERGY PREDICTED BY IDOCK:   -7.20 KCAL/MOL
REMARK 924 INTRA-LIGAND FREE ENERGY PREDICTED BY IDOCK:   -1.19 KCAL/MOL
REMARK 927      BINDING AFFINITY PREDICTED BY RF-SCORE:    0.00 PKD
ROOT
HETATM    1  C   UNL     1      -9.668  14.730  69.027  1.00  0.00    -0.190 C  
HETATM    2  S   UNL     1      -8.219  14.956  67.921  1.00  0.00    -0.155 SA 
HETATM    3  C   UNL     1      -9.100  16.104  66.763  1.00  0.00    -0.230 C  
HETATM    4  C   UNL     1      -8.111  17.111  66.170  1.00  0.00    -0.283 C  
HETATM    5  CA  UNL     1     -10.252  16.715  67.598  1.00  0.00    -0.285 C  
HETATM    6  C   UNL     1      -9.629  15.259  65.589  1.00  0.00    -0.313 C  
HETATM    7  N   UNL     1     -10.686  15.688  68.561  1.00  0.00    -0.253 N  
HETATM    8  C   UNL     1      -9.915  17.987  68.397  1.00  0.00    -0.378 C  
HETATM    9  OXT UNL     1      -9.408  18.994  67.930  1.00  0.00    -0.295 OA 
HETATM   10  O   UNL     1     -10.314  17.929  69.693  1.00  0.00    -0.020 OA 
HETATM   11  C   UNL     1     -11.558  14.715  68.136  1.00  0.00    -0.335 C  
HETATM   12  CA  UNL     1     -10.651  13.570  68.700  1.00  0.00    -0.244 C  
HETATM   13  O   UNL     1     -12.570  14.876  67.499  1.00  0.00     0.330 OA 
ENDROOT
BRANCH  12  14
HETATM   14  N   UNL     1     -10.107  12.519  67.798  1.00  0.00    -0.213 N  
HETATM   15  C   UNL     1     -10.836  11.446  67.327  1.00  0.00    -0.263 C  
HETATM   16  H   UNL     1      -9.132  12.596  67.509  1.00  0.00     0.000 HD 
HETATM   17  O   UNL     1     -12.016  11.280  67.605  1.00  0.00    -0.634 OA 
BRANCH  15  18
HETATM   18  C   UNL     1     -10.107  10.476  66.443  1.00  0.00    -0.285 A  
HETATM   19  C   UNL     1      -9.709  10.884  65.146  1.00  0.00    -0.262 A  
HETATM   20  C   UNL     1      -8.976  10.005  64.350  1.00  0.00    -0.265 A  
HETATM   21  C   UNL     1      -9.684   7.400  68.654  1.00  0.00    -0.152 A  
HETATM   22  C   UNL     1      -8.606   8.753  64.833  1.00  0.00    -0.177 A  
HETATM   23  C   UNL     1      -9.754   9.178  66.944  1.00  0.00    -0.254 A  
HETATM   24  C   UNL     1     -10.124   8.651  68.209  1.00  0.00    -0.225 A  
HETATM   25  C   UNL     1      -8.968   8.335  66.117  1.00  0.00    -0.222 A  
HETATM   26  C   UNL     1      -8.534   7.080  66.574  1.00  0.00    -0.125 A  
HETATM   27  C   UNL     1      -8.875   6.621  67.842  1.00  0.00    -0.115 A  
BRANCH  19  28
HETATM   28  O   UNL     1     -10.062  12.149  64.741  1.00  0.00    -0.267 OA 
BRANCH  28  29
HETATM   29  C   UNL     1     -10.691  12.287  63.466  1.00  0.00    -0.451 C  
HETATM   30  C   UNL     1     -12.179  12.487  63.694  1.00  0.00    -0.642 C  
ENDBRANCH  28  29
ENDBRANCH  19  28
ENDBRANCH  15  18
ENDBRANCH  12  14
TORSDOF 4
ENDMDL
MODEL       47
REMARK 921   NORMALIZED FREE ENERGY PREDICTED BY IDOCK:   -5.88 KCAL/MOL
REMARK 922        TOTAL FREE ENERGY PREDICTED BY IDOCK:   -8.39 KCAL/MOL
REMARK 923 INTER-LIGAND FREE ENERGY PREDICTED BY IDOCK:   -7.26 KCAL/MOL
REMARK 924 INTRA-LIGAND FREE ENERGY PREDICTED BY IDOCK:   -1.13 KCAL/MOL
REMARK 927      BINDING AFFINITY PREDICTED BY RF-SCORE:    0.00 PKD
ROOT
HETATM    1  C   UNL     1      -8.401   7.613  70.015  1.00  0.00    -0.134 C  
HETATM    2  S   UNL     1      -8.288   8.445  71.649  1.00  0.00    -0.167 SA 
HETATM    3  C   UNL     1      -9.696   7.495  72.391  1.00  0.00    -0.161 C  
HETATM    4  C   UNL     1      -9.464   7.301  73.891  1.00  0.00    -0.316 C  
HETATM    5  CA  UNL     1      -9.791   6.194  71.557  1.00  0.00    -0.167 C  
HETATM    6  C   UNL     1     -10.962   8.361  72.248  1.00  0.00    -0.431 C  
HETATM    7  N   UNL     1      -9.382   6.526  70.181  1.00  0.00    -0.158 N  
HETATM    8  C   UNL     1      -8.918   5.017  72.029  1.00  0.00    -0.132 C  
HETATM    9  OXT UNL     1      -8.904   4.565  73.162  1.00  0.00    -0.110 OA 
HETATM   10  O   UNL     1      -8.198   4.447  71.029  1.00  0.00    -0.078 OA 
HETATM   11  C   UNL     1     -10.308   7.091  69.339  1.00  0.00    -0.207 C  
HETATM   12  CA  UNL     1      -9.333   8.251  68.945  1.00  0.00    -0.147 C  
HETATM   13  O   UNL     1     -11.444   6.726  69.159  1.00  0.00    -0.173 OA 
ENDROOT
BRANCH  12  14
HETATM   14  N   UNL     1      -9.701   9.671  69.196  1.00  0.00    -0.170 N  
HETATM   15  C   UNL     1     -10.623  10.378  68.452  1.00  0.00    -0.208 C  
HETATM   16  H   UNL     1      -9.243  10.153  69.969  1.00  0.00     0.000 HD 
HETATM   17  O   UNL     1     -11.235   9.879  67.517  1.00  0.00    -0.196 OA 
BRANCH  15  18
HETATM   18  C   UNL     1     -10.846  11.810  68.844  1.00  0.00    -0.265 A  
HETATM   19  C   UNL     1     -10.247  12.840  68.079  1.00  0.00    -0.228 A  
HETATM   20  C   UNL     1     -10.506  14.171  68.404  1.00  0.00    -0.254 A  
HETATM   21  C   UNL     1     -13.246  11.562  71.795  1.00  0.00    -0.456 A  
HETATM   22  C   UNL     1     -11.373  14.488  69.445  1.00  0.00    -0.314 A  
HETATM   23  C   UNL     1     -11.722  12.124  69.937  1.00  0.00    -0.361 A  
HETATM   24  C   UNL     1     -12.350  11.179  70.790  1.00  0.00    -0.504 A  
HETATM   25  C   UNL     1     -11.993  13.490  70.202  1.00  0.00    -0.399 A  
HETATM   26  C   UNL     1     -12.894  13.861  71.215  1.00  0.00    -0.435 A  
HETATM   27  C   UNL     1     -13.531  12.903  71.997  1.00  0.00    -0.568 A  
BRANCH  19  28
HETATM   28  O   UNL     1      -9.438  12.466  67.032  1.00  0.00    -0.199 OA 
BRANCH  28  29
HETATM   29  C   UNL     1      -8.025  12.558  67.218  1.00  0.00    -0.173 C  
HETATM   30  C   UNL     1      -7.403  11.249  66.763  1.00  0.00    -0.146 C  
ENDBRANCH  28  29
ENDBRANCH  19  28
ENDBRANCH  15  18
ENDBRANCH  12  14
TORSDOF 4
ENDMDL
MODEL       48
REMARK 921   NORMALIZED FREE ENERGY PREDICTED BY IDOCK:   -5.86 KCAL/MOL
REMARK 922        TOTAL FREE ENERGY PREDICTED BY IDOCK:   -8.37 KCAL/MOL
REMARK 923 INTER-LIGAND FREE ENERGY PREDICTED BY IDOCK:   -7.20 KCAL/MOL
REMARK 924 INTRA-LIGAND FREE ENERGY PREDICTED BY IDOCK:   -1.17 KCAL/MOL
REMARK 927      BINDING AFFINITY PREDICTED BY RF-SCORE:    0.00 PKD
ROOT
HETATM    1  C   UNL     1     -10.628   8.968  69.019  1.00  0.00    -0.190 C  
HETATM    2  S   UNL     1     -10.387   8.870  67.200  1.00  0.00    -0.274 SA 
HETATM    3  C   UNL     1      -8.665   8.196  67.319  1.00  0.00    -0.124 C  
HETATM    4  C   UNL     1      -8.380   7.272  66.133  1.00  0.00    -0.133 C  
HETATM    5  CA  UNL     1      -8.585   7.533  68.716  1.00  0.00    -0.129 C  
HETATM    6  C   UNL     1      -7.695   9.387  67.195  1.00  0.00    -0.091 C  
HETATM    7  N   UNL     1      -9.455   8.307  69.618  1.00  0.00    -0.162 N  
HETATM    8  C   UNL     1      -9.028   6.061  68.797  1.00  0.00    -0.118 C  
HETATM    9  OXT UNL     1      -8.604   5.161  68.089  1.00  0.00    -0.103 OA 
HETATM   10  O   UNL     1      -9.899   5.816  69.809  1.00  0.00    -0.160 OA 
HETATM   11  C   UNL     1      -8.961   9.460  70.177  1.00  0.00    -0.227 C  
HETATM   12  CA  UNL     1     -10.213  10.287  69.730  1.00  0.00    -0.220 C  
HETATM   13  O   UNL     1      -7.888   9.606  70.711  1.00  0.00    -0.292 OA 
ENDROOT
BRANCH  12  14
HETATM   14  N   UNL     1     -10.063  11.467  68.834  1.00  0.00    -0.332 N  
HETATM   15  C   UNL     1     -11.115  12.230  68.373  1.00  0.00    -0.243 C  
HETATM   16  H   UNL     1      -9.121  11.727  68.542  1.00  0.00     0.000 HD 
HETATM   17  O   UNL     1     -12.277  12.005  68.683  1.00  0.00    -0.299 OA 
BRANCH  15  18
HETATM   18  C   UNL     1     -10.767  13.369  67.458  1.00  0.00    -0.263 A  
HETATM   19  C   UNL     1     -10.711  13.144  66.061  1.00  0.00    -0.276 A  
HETATM   20  C   UNL     1     -10.451  14.215  65.208  1.00  0.00    -0.402 A  
HETATM   21  C   UNL     1     -10.443  16.342  69.822  1.00  0.00    -0.246 A  
HETATM   22  C   UNL     1     -10.286  15.500  65.716  1.00  0.00    -0.390 A  
HETATM   23  C   UNL     1     -10.572  14.685  67.997  1.00  0.00    -0.240 A  
HETATM   24  C   UNL     1     -10.573  15.022  69.376  1.00  0.00    -0.262 A  
HETATM   25  C   UNL     1     -10.357  15.752  67.088  1.00  0.00    -0.291 A  
HETATM   26  C   UNL     1     -10.225  17.073  67.548  1.00  0.00    -0.323 A  
HETATM   27  C   UNL     1     -10.284  17.370  68.906  1.00  0.00    -0.352 A  
BRANCH  19  28
HETATM   28  O   UNL     1     -10.931  11.863  65.614  1.00  0.00    -0.288 OA 
BRANCH  28  29
HETATM   29  C   UNL     1     -10.906  11.638  64.204  1.00  0.00    -0.372 C  
HETATM   30  C   UNL     1      -9.822  10.616  63.908  1.00  0.00    -0.398 C  
ENDBRANCH  28  29
ENDBRANCH  19  28
ENDBRANCH  15  18
ENDBRANCH  12  14
TORSDOF 4
ENDMDL
MODEL       49
REMARK 921   NORMALIZED FREE ENERGY PREDICTED BY IDOCK:   -5.86 KCAL/MOL
REMARK 922        TOTAL FREE ENERGY PREDICTED BY IDOCK:   -8.37 KCAL/MOL
REMARK 923 INTER-LIGAND FREE ENERGY PREDICTED BY IDOCK:   -7.29 KCAL/MOL
REMARK 924 INTRA-LIGAND FREE ENERGY PREDICTED BY IDOCK:   -1.07 KCAL/MOL
REMARK 927      BINDING AFFINITY PREDICTED BY RF-SCORE:    0.00 PKD
ROOT
HETATM    1  C   UNL     1      -8.754  18.758  67.449  1.00  0.00    -0.273 C  
HETATM    2  S   UNL     1      -8.517  18.026  69.118  1.00  0.00     0.247 SA 
HETATM    3  C   UNL     1      -6.676  17.894  68.956  1.00  0.00    -0.248 C  
HETATM    4  C   UNL     1      -6.015  18.066  70.326  1.00  0.00    -0.055 C  
HETATM    5  CA  UNL     1      -6.286  18.948  67.891  1.00  0.00    -0.200 C  
HETATM    6  C   UNL     1      -6.356  16.461  68.487  1.00  0.00    -0.129 C  
HETATM    7  N   UNL     1      -7.402  19.036  66.934  1.00  0.00    -0.208 N  
HETATM    8  C   UNL     1      -6.008  20.370  68.410  1.00  0.00    -0.289 C  
HETATM    9  OXT UNL     1      -5.230  20.650  69.308  1.00  0.00    -0.252 OA 
HETATM   10  O   UNL     1      -6.660  21.335  67.712  1.00  0.00    -0.397 OA 
HETATM   11  C   UNL     1      -7.480  18.102  65.929  1.00  0.00    -0.170 C  
HETATM   12  CA  UNL     1      -8.977  17.782  66.259  1.00  0.00    -0.174 C  
HETATM   13  O   UNL     1      -6.585  17.737  65.206  1.00  0.00    -0.213 OA 
ENDROOT
BRANCH  12  14
HETATM   14  N   UNL     1      -9.391  16.404  66.643  1.00  0.00    -0.243 N  
HETATM   15  C   UNL     1     -10.459  15.731  66.087  1.00  0.00    -0.317 C  
HETATM   16  H   UNL     1      -8.850  15.927  67.365  1.00  0.00     0.000 HD 
HETATM   17  O   UNL     1     -11.154  16.216  65.204  1.00  0.00    -0.330 OA 
BRANCH  15  18
HETATM   18  C   UNL     1     -10.736  14.355  66.619  1.00  0.00    -0.292 A  
HETATM   19  C   UNL     1     -11.230  14.209  67.939  1.00  0.00    -0.279 A  
HETATM   20  C   UNL     1     -11.548  12.937  68.411  1.00  0.00    -0.369 A  
HETATM   21  C   UNL     1      -9.992  12.083  63.650  1.00  0.00    -0.387 A  
HETATM   22  C   UNL     1     -11.418  11.823  67.586  1.00  0.00    -0.370 A  
HETATM   23  C   UNL     1     -10.573  13.212  65.767  1.00  0.00    -0.293 A  
HETATM   24  C   UNL     1     -10.058  13.234  64.444  1.00  0.00    -0.190 A  
HETATM   25  C   UNL     1     -10.953  11.943  66.274  1.00  0.00    -0.345 A  
HETATM   26  C   UNL     1     -10.880  10.795  65.467  1.00  0.00    -0.061 A  
HETATM   27  C   UNL     1     -10.419  10.866  64.157  1.00  0.00    -0.397 A  
BRANCH  19  28
HETATM   28  O   UNL     1     -11.382  15.350  68.691  1.00  0.00    -0.292 OA 
BRANCH  28  29
HETATM   29  C   UNL     1     -10.860  15.345  70.020  1.00  0.00    -0.305 C  
HETATM   30  C   UNL     1     -11.951  15.830  70.958  1.00  0.00    -0.462 C  
ENDBRANCH  28  29
ENDBRANCH  19  28
ENDBRANCH  15  18
ENDBRANCH  12  14
TORSDOF 4
ENDMDL
MODEL       50
REMARK 921   NORMALIZED FREE ENERGY PREDICTED BY IDOCK:   -5.70 KCAL/MOL
REMARK 922        TOTAL FREE ENERGY PREDICTED BY IDOCK:   -8.17 KCAL/MOL
REMARK 923 INTER-LIGAND FREE ENERGY PREDICTED BY IDOCK:   -7.74 KCAL/MOL
REMARK 924 INTRA-LIGAND FREE ENERGY PREDICTED BY IDOCK:   -0.42 KCAL/MOL
REMARK 927      BINDING AFFINITY PREDICTED BY RF-SCORE:    0.00 PKD
ROOT
HETATM    1  C   UNL     1      -8.607  11.564  66.359  1.00  0.00    -0.159 C  
HETATM    2  S   UNL     1      -8.312  10.176  67.525  1.00  0.00    -0.118 SA 
HETATM    3  C   UNL     1      -8.899   8.872  66.346  1.00  0.00    -0.152 C  
HETATM    4  C   UNL     1      -8.136   7.567  66.585  1.00  0.00    -0.123 C  
HETATM    5  CA  UNL     1      -8.731   9.494  64.938  1.00  0.00    -0.189 C  
HETATM    6  C   UNL     1     -10.377   8.587  66.673  1.00  0.00    -0.303 C  
HETATM    7  N   UNL     1      -8.958  10.943  65.070  1.00  0.00    -0.192 N  
HETATM    8  C   UNL     1      -7.359   9.299  64.267  1.00  0.00    -0.106 C  
HETATM    9  OXT UNL     1      -6.799   8.226  64.114  1.00  0.00    -0.066 OA 
HETATM   10  O   UNL     1      -6.838  10.449  63.766  1.00  0.00    -0.098 OA 
HETATM   11  C   UNL     1     -10.252  11.406  65.081  1.00  0.00    -0.277 C  
HETATM   12  CA  UNL     1     -10.007  12.241  66.383  1.00  0.00    -0.228 C  
HETATM   13  O   UNL     1     -11.138  11.102  64.320  1.00  0.00    -0.301 OA 
ENDROOT
BRANCH  12  14
HETATM   14  N   UNL     1     -10.809  11.985  67.611  1.00  0.00    -0.222 N  
HETATM   15  C   UNL     1     -10.649  12.667  68.799  1.00  0.00    -0.186 C  
HETATM   16  H   UNL     1     -11.524  11.258  67.570  1.00  0.00     0.000 HD 
HETATM   17  O   UNL     1      -9.830  13.566  68.936  1.00  0.00    -0.098 OA 
BRANCH  15  18
HETATM   18  C   UNL     1     -11.538  12.253  69.936  1.00  0.00    -0.278 A  
HETATM   19  C   UNL     1     -12.405  13.207  70.521  1.00  0.00    -0.304 A  
HETATM   20  C   UNL     1     -13.276  12.807  71.533  1.00  0.00    -0.330 A  
HETATM   21  C   UNL     1     -10.841   8.523  70.297  1.00  0.00    -0.249 A  
HETATM   22  C   UNL     1     -13.323  11.477  71.941  1.00  0.00    -0.408 A  
HETATM   23  C   UNL     1     -11.558  10.883  70.365  1.00  0.00    -0.418 A  
HETATM   24  C   UNL     1     -10.716   9.851  69.875  1.00  0.00    -0.318 A  
HETATM   25  C   UNL     1     -12.493  10.512  71.365  1.00  0.00    -0.516 A  
HETATM   26  C   UNL     1     -12.608   9.175  71.781  1.00  0.00    -0.446 A  
HETATM   27  C   UNL     1     -11.799   8.182  71.239  1.00  0.00    -0.317 A  
BRANCH  19  28
HETATM   28  O   UNL     1     -12.348  14.495  70.044  1.00  0.00    -0.321 OA 
BRANCH  28  29
HETATM   29  C   UNL     1     -12.912  15.529  70.853  1.00  0.00    -0.467 C  
HETATM   30  C   UNL     1     -11.788  16.171  71.649  1.00  0.00    -0.557 C  
ENDBRANCH  28  29
ENDBRANCH  19  28
ENDBRANCH  15  18
ENDBRANCH  12  14
TORSDOF 4
ENDMDL
MODEL       51
REMARK 921   NORMALIZED FREE ENERGY PREDICTED BY IDOCK:   -5.69 KCAL/MOL
REMARK 922        TOTAL FREE ENERGY PREDICTED BY IDOCK:   -8.16 KCAL/MOL
REMARK 923 INTER-LIGAND FREE ENERGY PREDICTED BY IDOCK:   -6.89 KCAL/MOL
REMARK 924 INTRA-LIGAND FREE ENERGY PREDICTED BY IDOCK:   -1.28 KCAL/MOL
REMARK 927      BINDING AFFINITY PREDICTED BY RF-SCORE:    0.00 PKD
ROOT
HETATM    1  C   UNL     1      -8.950   9.449  70.349  1.00  0.00    -0.250 C  
HETATM    2  S   UNL     1     -10.745   9.250  70.015  1.00  0.00    -0.242 SA 
HETATM    3  C   UNL     1     -10.677   7.398  69.962  1.00  0.00    -0.246 C  
HETATM    4  C   UNL     1     -11.996   6.810  70.468  1.00  0.00    -0.385 C  
HETATM    5  CA  UNL     1      -9.419   7.016  70.779  1.00  0.00    -0.161 C  
HETATM    6  C   UNL     1     -10.546   6.985  68.483  1.00  0.00    -0.235 C  
HETATM    7  N   UNL     1      -8.430   8.091  70.589  1.00  0.00    -0.122 N  
HETATM    8  C   UNL     1      -9.620   6.835  72.295  1.00  0.00    -0.144 C  
HETATM    9  OXT UNL     1     -10.460   6.114  72.810  1.00  0.00    -0.199 OA 
HETATM   10  O   UNL     1      -8.706   7.504  73.043  1.00  0.00    -0.128 OA 
HETATM   11  C   UNL     1      -7.654   8.076  69.456  1.00  0.00    -0.101 C  
HETATM   12  CA  UNL     1      -7.998   9.567  69.125  1.00  0.00    -0.094 C  
HETATM   13  O   UNL     1      -7.059   7.131  68.996  1.00  0.00    -0.078 OA 
ENDROOT
BRANCH  12  14
HETATM   14  N   UNL     1      -8.662   9.927  67.843  1.00  0.00    -0.128 N  
HETATM   15  C   UNL     1      -8.536  11.151  67.219  1.00  0.00    -0.140 C  
HETATM   16  H   UNL     1      -9.249   9.222  67.396  1.00  0.00     0.000 HD 
HETATM   17  O   UNL     1      -7.841  12.050  67.671  1.00  0.00    -0.129 OA 
BRANCH  15  18
HETATM   18  C   UNL     1      -9.301  11.335  65.940  1.00  0.00    -0.240 A  
HETATM   19  C   UNL     1      -8.957  10.556  64.809  1.00  0.00    -0.205 A  
HETATM   20  C   UNL     1      -9.708  10.680  63.641  1.00  0.00    -0.383 A  
HETATM   21  C   UNL     1     -11.975  13.891  66.861  1.00  0.00    -0.467 A  
HETATM   22  C   UNL     1     -10.808  11.532  63.595  1.00  0.00    -0.488 A  
HETATM   23  C   UNL     1     -10.417  12.236  65.898  1.00  0.00    -0.288 A  
HETATM   24  C   UNL     1     -10.833  13.087  66.956  1.00  0.00    -0.278 A  
HETATM   25  C   UNL     1     -11.181  12.296  64.705  1.00  0.00    -0.363 A  
HETATM   26  C   UNL     1     -12.324  13.108  64.622  1.00  0.00    -0.463 A  
HETATM   27  C   UNL     1     -12.730  13.889  65.699  1.00  0.00    -0.534 A  
BRANCH  19  28
HETATM   28  O   UNL     1      -7.891   9.696  64.928  1.00  0.00    -0.113 OA 
BRANCH  28  29
HETATM   29  C   UNL     1      -8.020   8.394  64.358  1.00  0.00    -0.148 C  
HETATM   30  C   UNL     1      -8.151   7.393  65.493  1.00  0.00    -0.131 C  
ENDBRANCH  28  29
ENDBRANCH  19  28
ENDBRANCH  15  18
ENDBRANCH  12  14
TORSDOF 4
ENDMDL
MODEL       52
REMARK 921   NORMALIZED FREE ENERGY PREDICTED BY IDOCK:   -5.69 KCAL/MOL
REMARK 922        TOTAL FREE ENERGY PREDICTED BY IDOCK:   -8.16 KCAL/MOL
REMARK 923 INTER-LIGAND FREE ENERGY PREDICTED BY IDOCK:   -7.61 KCAL/MOL
REMARK 924 INTRA-LIGAND FREE ENERGY PREDICTED BY IDOCK:   -0.54 KCAL/MOL
REMARK 927      BINDING AFFINITY PREDICTED BY RF-SCORE:    0.00 PKD
ROOT
HETATM    1  C   UNL     1      -8.198  11.329  67.020  1.00  0.00    -0.151 C  
HETATM    2  S   UNL     1      -8.264  10.610  68.709  1.00  0.00    -0.149 SA 
HETATM    3  C   UNL     1      -9.599   9.393  68.295  1.00  0.00    -0.142 C  
HETATM    4  C   UNL     1      -9.429   8.123  69.132  1.00  0.00    -0.155 C  
HETATM    5  CA  UNL     1      -9.507   9.198  66.762  1.00  0.00    -0.175 C  
HETATM    6  C   UNL     1     -10.942  10.022  68.712  1.00  0.00    -0.242 C  
HETATM    7  N   UNL     1      -9.062  10.478  66.184  1.00  0.00    -0.158 N  
HETATM    8  C   UNL     1      -8.539   8.107  66.270  1.00  0.00    -0.144 C  
HETATM    9  OXT UNL     1      -8.537   6.947  66.652  1.00  0.00    -0.116 OA 
HETATM   10  O   UNL     1      -7.707   8.529  65.284  1.00  0.00    -0.089 OA 
HETATM   11  C   UNL     1      -9.997  11.460  65.967  1.00  0.00    -0.231 C  
HETATM   12  CA  UNL     1      -9.134  12.533  66.712  1.00  0.00    -0.214 C  
HETATM   13  O   UNL     1     -11.076  11.332  65.440  1.00  0.00    -0.190 OA 
ENDROOT
BRANCH  12  14
HETATM   14  N   UNL     1      -9.667  13.239  67.909  1.00  0.00    -0.217 N  
HETATM   15  C   UNL     1     -10.961  13.704  68.024  1.00  0.00    -0.250 C  
HETATM   16  H   UNL     1      -9.035  13.388  68.696  1.00  0.00     0.000 HD 
HETATM   17  O   UNL     1     -11.794  13.555  67.140  1.00  0.00    -0.354 OA 
BRANCH  15  18
HETATM   18  C   UNL     1     -11.309  14.412  69.302  1.00  0.00    -0.319 A  
HETATM   19  C   UNL     1     -10.996  15.786  69.440  1.00  0.00    -0.296 A  
HETATM   20  C   UNL     1     -11.376  16.458  70.600  1.00  0.00    -0.208 A  
HETATM   21  C   UNL     1     -13.113  11.741  71.337  1.00  0.00    -0.322 A  
HETATM   22  C   UNL     1     -12.088  15.800  71.598  1.00  0.00    -0.522 A  
HETATM   23  C   UNL     1     -12.020  13.714  70.335  1.00  0.00    -0.372 A  
HETATM   24  C   UNL     1     -12.358  12.335  70.320  1.00  0.00    -0.267 A  
HETATM   25  C   UNL     1     -12.427  14.449  71.477  1.00  0.00    -0.430 A  
HETATM   26  C   UNL     1     -13.184  13.841  72.492  1.00  0.00    -0.599 A  
HETATM   27  C   UNL     1     -13.541  12.499  72.416  1.00  0.00    -0.353 A  
BRANCH  19  28
HETATM   28  O   UNL     1     -10.333  16.395  68.401  1.00  0.00    -0.256 OA 
BRANCH  28  29
HETATM   29  C   UNL     1     -10.757  17.705  68.020  1.00  0.00    -0.328 C  
HETATM   30  C   UNL     1     -10.335  17.936  66.579  1.00  0.00    -0.362 C  
ENDBRANCH  28  29
ENDBRANCH  19  28
ENDBRANCH  15  18
ENDBRANCH  12  14
TORSDOF 4
ENDMDL
MODEL       53
REMARK 921   NORMALIZED FREE ENERGY PREDICTED BY IDOCK:   -5.69 KCAL/MOL
REMARK 922        TOTAL FREE ENERGY PREDICTED BY IDOCK:   -8.15 KCAL/MOL
REMARK 923 INTER-LIGAND FREE ENERGY PREDICTED BY IDOCK:   -6.91 KCAL/MOL
REMARK 924 INTRA-LIGAND FREE ENERGY PREDICTED BY IDOCK:   -1.24 KCAL/MOL
REMARK 927      BINDING AFFINITY PREDICTED BY RF-SCORE:    0.00 PKD
ROOT
HETATM    1  C   UNL     1      -8.339   9.556  70.503  1.00  0.00    -0.163 C  
HETATM    2  S   UNL     1     -10.119   9.117  70.621  1.00  0.00    -0.269 SA 
HETATM    3  C   UNL     1      -9.971   7.625  69.531  1.00  0.00    -0.182 C  
HETATM    4  C   UNL     1     -10.981   6.558  69.963  1.00  0.00    -0.388 C  
HETATM    5  CA  UNL     1      -8.483   7.207  69.616  1.00  0.00    -0.134 C  
HETATM    6  C   UNL     1     -10.365   8.056  68.105  1.00  0.00    -0.250 C  
HETATM    7  N   UNL     1      -7.693   8.438  69.793  1.00  0.00    -0.091 N  
HETATM    8  C   UNL     1      -8.109   6.248  70.760  1.00  0.00    -0.120 C  
HETATM    9  OXT UNL     1      -8.661   5.184  70.993  1.00  0.00    -0.124 OA 
HETATM   10  O   UNL     1      -7.023   6.652  71.468  1.00  0.00    -0.068 OA 
HETATM   11  C   UNL     1      -7.383   9.185  68.683  1.00  0.00    -0.076 C  
HETATM   12  CA  UNL     1      -7.906  10.502  69.347  1.00  0.00    -0.147 C  
HETATM   13  O   UNL     1      -6.945   8.779  67.634  1.00  0.00    -0.073 OA 
ENDROOT
BRANCH  12  14
HETATM   14  N   UNL     1      -9.011  11.281  68.723  1.00  0.00    -0.309 N  
HETATM   15  C   UNL     1      -8.855  12.113  67.633  1.00  0.00    -0.172 C  
HETATM   16  H   UNL     1      -9.943  11.194  69.127  1.00  0.00     0.000 HD 
HETATM   17  O   UNL     1      -7.779  12.266  67.071  1.00  0.00    -0.153 OA 
BRANCH  15  18
HETATM   18  C   UNL     1     -10.084  12.832  67.157  1.00  0.00    -0.234 A  
HETATM   19  C   UNL     1     -10.662  13.832  67.977  1.00  0.00    -0.250 A  
HETATM   20  C   UNL     1     -11.765  14.544  67.508  1.00  0.00    -0.413 A  
HETATM   21  C   UNL     1     -10.664  11.399  63.673  1.00  0.00    -0.470 A  
HETATM   22  C   UNL     1     -12.272  14.306  66.234  1.00  0.00    -0.433 A  
HETATM   23  C   UNL     1     -10.613  12.558  65.852  1.00  0.00    -0.292 A  
HETATM   24  C   UNL     1     -10.137  11.561  64.959  1.00  0.00    -0.315 A  
HETATM   25  C   UNL     1     -11.706  13.339  65.398  1.00  0.00    -0.370 A  
HETATM   26  C   UNL     1     -12.227  13.166  64.105  1.00  0.00    -0.465 A  
HETATM   27  C   UNL     1     -11.699  12.213  63.240  1.00  0.00    -0.441 A  
BRANCH  19  28
HETATM   28  O   UNL     1     -10.090  14.057  69.206  1.00  0.00    -0.041 OA 
BRANCH  28  29
HETATM   29  C   UNL     1      -9.631  15.378  69.494  1.00  0.00    -0.257 C  
HETATM   30  C   UNL     1      -8.113  15.352  69.536  1.00  0.00    -0.207 C  
ENDBRANCH  28  29
ENDBRANCH  19  28
ENDBRANCH  15  18
ENDBRANCH  12  14
TORSDOF 4
ENDMDL
MODEL       54
REMARK 921   NORMALIZED FREE ENERGY PREDICTED BY IDOCK:   -5.68 KCAL/MOL
REMARK 922        TOTAL FREE ENERGY PREDICTED BY IDOCK:   -8.15 KCAL/MOL
REMARK 923 INTER-LIGAND FREE ENERGY PREDICTED BY IDOCK:   -7.05 KCAL/MOL
REMARK 924 INTRA-LIGAND FREE ENERGY PREDICTED BY IDOCK:   -1.10 KCAL/MOL
REMARK 927      BINDING AFFINITY PREDICTED BY RF-SCORE:    0.00 PKD
ROOT
HETATM    1  C   UNL     1      -7.735  17.142  66.274  1.00  0.00    -0.315 C  
HETATM    2  S   UNL     1      -9.531  17.392  65.980  1.00  0.00    -0.016 SA 
HETATM    3  C   UNL     1      -9.788  18.399  67.515  1.00  0.00    -0.314 C  
HETATM    4  C   UNL     1     -10.897  19.429  67.286  1.00  0.00    -0.561 C  
HETATM    5  CA  UNL     1      -8.395  18.984  67.854  1.00  0.00    -0.288 C  
HETATM    6  C   UNL     1     -10.291  17.444  68.614  1.00  0.00    -0.364 C  
HETATM    7  N   UNL     1      -7.390  17.996  67.424  1.00  0.00    -0.203 N  
HETATM    8  C   UNL     1      -8.039  20.326  67.189  1.00  0.00    -0.335 C  
HETATM    9  OXT UNL     1      -8.728  21.332  67.227  1.00  0.00     0.016 OA 
HETATM   10  O   UNL     1      -6.815  20.327  66.601  1.00  0.00    -0.222 OA 
HETATM   11  C   UNL     1      -7.110  16.940  68.257  1.00  0.00    -0.179 C  
HETATM   12  CA  UNL     1      -7.306  15.899  67.104  1.00  0.00    -0.223 C  
HETATM   13  O   UNL     1      -6.893  16.989  69.443  1.00  0.00    -0.235 OA 
ENDROOT
BRANCH  12  14
HETATM   14  N   UNL     1      -8.336  14.830  67.215  1.00  0.00    -0.199 N  
HETATM   15  C   UNL     1      -8.283  13.790  68.120  1.00  0.00    -0.160 C  
HETATM   16  H   UNL     1      -9.133  14.868  66.579  1.00  0.00     0.000 HD 
HETATM   17  O   UNL     1      -7.375  13.672  68.932  1.00  0.00    -0.106 OA 
BRANCH  15  18
HETATM   18  C   UNL     1      -9.405  12.794  68.065  1.00  0.00    -0.213 A  
HETATM   19  C   UNL     1     -10.633  13.100  68.700  1.00  0.00    -0.239 A  
HETATM   20  C   UNL     1     -11.696  12.203  68.595  1.00  0.00    -0.382 A  
HETATM   21  C   UNL     1      -8.008   9.995  65.887  1.00  0.00    -0.124 A  
HETATM   22  C   UNL     1     -11.567  11.038  67.845  1.00  0.00    -0.306 A  
HETATM   23  C   UNL     1      -9.250  11.583  67.311  1.00  0.00    -0.168 A  
HETATM   24  C   UNL     1      -8.060  11.159  66.662  1.00  0.00    -0.159 A  
HETATM   25  C   UNL     1     -10.372  10.724  67.193  1.00  0.00    -0.269 A  
HETATM   26  C   UNL     1     -10.306   9.557  66.413  1.00  0.00    -0.243 A  
HETATM   27  C   UNL     1      -9.136   9.202  65.749  1.00  0.00    -0.265 A  
BRANCH  19  28
HETATM   28  O   UNL     1     -10.717  14.287  69.386  1.00  0.00    -0.218 OA 
BRANCH  28  29
HETATM   29  C   UNL     1     -11.816  14.462  70.282  1.00  0.00    -0.313 C  
HETATM   30  C   UNL     1     -11.376  15.400  71.392  1.00  0.00    -0.449 C  
ENDBRANCH  28  29
ENDBRANCH  19  28
ENDBRANCH  15  18
ENDBRANCH  12  14
TORSDOF 4
ENDMDL
MODEL       55
REMARK 921   NORMALIZED FREE ENERGY PREDICTED BY IDOCK:   -5.68 KCAL/MOL
REMARK 922        TOTAL FREE ENERGY PREDICTED BY IDOCK:   -8.15 KCAL/MOL
REMARK 923 INTER-LIGAND FREE ENERGY PREDICTED BY IDOCK:   -7.24 KCAL/MOL
REMARK 924 INTRA-LIGAND FREE ENERGY PREDICTED BY IDOCK:   -0.90 KCAL/MOL
REMARK 927      BINDING AFFINITY PREDICTED BY RF-SCORE:    0.00 PKD
ROOT
HETATM    1  C   UNL     1      -7.435  16.580  67.725  1.00  0.00    -0.145 C  
HETATM    2  S   UNL     1      -8.134  17.064  66.096  1.00  0.00    -0.163 SA 
HETATM    3  C   UNL     1      -9.732  17.681  66.804  1.00  0.00    -0.300 C  
HETATM    4  C   UNL     1     -10.269  18.836  65.956  1.00  0.00    -0.413 C  
HETATM    5  CA  UNL     1      -9.414  18.029  68.279  1.00  0.00    -0.302 C  
HETATM    6  C   UNL     1     -10.757  16.536  66.694  1.00  0.00    -0.150 C  
HETATM    7  N   UNL     1      -8.378  17.086  68.737  1.00  0.00    -0.253 N  
HETATM    8  C   UNL     1      -8.895  19.453  68.547  1.00  0.00    -0.366 C  
HETATM    9  OXT UNL     1      -9.443  20.480  68.180  1.00  0.00    -0.134 OA 
HETATM   10  O   UNL     1      -7.779  19.483  69.321  1.00  0.00    -0.326 OA 
HETATM   11  C   UNL     1      -8.766  15.836  69.153  1.00  0.00    -0.253 C  
HETATM   12  CA  UNL     1      -7.715  15.135  68.229  1.00  0.00    -0.117 C  
HETATM   13  O   UNL     1      -9.669  15.570  69.908  1.00  0.00    -0.290 OA 
ENDROOT
BRANCH  12  14
HETATM   14  N   UNL     1      -8.149  14.174  67.177  1.00  0.00    -0.339 N  
HETATM   15  C   UNL     1      -8.760  12.965  67.435  1.00  0.00    -0.197 C  
HETATM   16  H   UNL     1      -7.984  14.427  66.203  1.00  0.00     0.000 HD 
HETATM   17  O   UNL     1      -9.014  12.585  68.571  1.00  0.00    -0.153 OA 
BRANCH  15  18
HETATM   18  C   UNL     1      -9.106  12.120  66.243  1.00  0.00    -0.141 A  
HETATM   19  C   UNL     1      -8.253  11.049  65.882  1.00  0.00    -0.100 A  
HETATM   20  C   UNL     1      -8.608  10.225  64.814  1.00  0.00    -0.193 A  
HETATM   21  C   UNL     1     -12.452  13.536  65.090  1.00  0.00    -0.495 A  
HETATM   22  C   UNL     1      -9.804  10.426  64.133  1.00  0.00    -0.379 A  
HETATM   23  C   UNL     1     -10.330  12.355  65.532  1.00  0.00    -0.298 A  
HETATM   24  C   UNL     1     -11.243  13.412  65.784  1.00  0.00    -0.305 A  
HETATM   25  C   UNL     1     -10.673  11.463  64.483  1.00  0.00    -0.391 A  
HETATM   26  C   UNL     1     -11.889  11.599  63.793  1.00  0.00    -0.382 A  
HETATM   27  C   UNL     1     -12.782  12.619  64.104  1.00  0.00    -0.373 A  
BRANCH  19  28
HETATM   28  O   UNL     1      -7.109  10.869  66.622  1.00  0.00    -0.120 OA 
BRANCH  28  29
HETATM   29  C   UNL     1      -5.858  10.906  65.932  1.00  0.00    -0.130 C  
HETATM   30  C   UNL     1      -5.200   9.545  66.078  1.00  0.00    -0.036 C  
ENDBRANCH  28  29
ENDBRANCH  19  28
ENDBRANCH  15  18
ENDBRANCH  12  14
TORSDOF 4
ENDMDL
MODEL       56
REMARK 921   NORMALIZED FREE ENERGY PREDICTED BY IDOCK:   -5.66 KCAL/MOL
REMARK 922        TOTAL FREE ENERGY PREDICTED BY IDOCK:   -8.13 KCAL/MOL
REMARK 923 INTER-LIGAND FREE ENERGY PREDICTED BY IDOCK:   -6.88 KCAL/MOL
REMARK 924 INTRA-LIGAND FREE ENERGY PREDICTED BY IDOCK:   -1.25 KCAL/MOL
REMARK 927      BINDING AFFINITY PREDICTED BY RF-SCORE:    0.00 PKD
ROOT
HETATM    1  C   UNL     1      -8.531   8.582  68.729  1.00  0.00    -0.123 C  
HETATM    2  S   UNL     1      -8.787   9.524  70.285  1.00  0.00    -0.222 SA 
HETATM    3  C   UNL     1     -10.210   8.481  70.851  1.00  0.00    -0.200 C  
HETATM    4  C   UNL     1     -10.232   8.408  72.380  1.00  0.00    -0.399 C  
HETATM    5  CA  UNL     1     -10.035   7.127  70.122  1.00  0.00    -0.186 C  
HETATM    6  C   UNL     1     -11.506   9.198  70.424  1.00  0.00    -0.228 C  
HETATM    7  N   UNL     1      -9.420   7.411  68.814  1.00  0.00    -0.144 N  
HETATM    8  C   UNL     1      -9.155   6.080  70.830  1.00  0.00    -0.153 C  
HETATM    9  OXT UNL     1      -9.300   5.706  71.982  1.00  0.00    -0.150 OA 
HETATM   10  O   UNL     1      -8.218   5.527  70.017  1.00  0.00    -0.100 OA 
HETATM   11  C   UNL     1     -10.230   7.820  67.783  1.00  0.00    -0.212 C  
HETATM   12  CA  UNL     1      -9.312   9.048  67.467  1.00  0.00    -0.135 C  
HETATM   13  O   UNL     1     -11.278   7.326  67.443  1.00  0.00    -0.145 OA 
ENDROOT
BRANCH  12  14
HETATM   14  N   UNL     1      -9.850  10.435  67.536  1.00  0.00    -0.169 N  
HETATM   15  C   UNL     1      -9.488  11.452  66.677  1.00  0.00    -0.189 C  
HETATM   16  H   UNL     1     -10.530  10.647  68.265  1.00  0.00     0.000 HD 
HETATM   17  O   UNL     1      -8.692  11.287  65.761  1.00  0.00    -0.181 OA 
BRANCH  15  18
HETATM   18  C   UNL     1     -10.122  12.791  66.917  1.00  0.00    -0.234 A  
HETATM   19  C   UNL     1     -11.423  13.041  66.417  1.00  0.00    -0.341 A  
HETATM   20  C   UNL     1     -12.037  14.262  66.695  1.00  0.00    -0.448 A  
HETATM   21  C   UNL     1      -7.554  14.621  69.060  1.00  0.00    -0.136 A  
HETATM   22  C   UNL     1     -11.397  15.212  67.485  1.00  0.00    -0.325 A  
HETATM   23  C   UNL     1      -9.440  13.773  67.711  1.00  0.00    -0.216 A  
HETATM   24  C   UNL     1      -8.126  13.645  68.236  1.00  0.00    -0.155 A  
HETATM   25  C   UNL     1     -10.121  14.981  68.007  1.00  0.00    -0.223 A  
HETATM   26  C   UNL     1      -9.535  15.953  68.835  1.00  0.00    -0.234 A  
HETATM   27  C   UNL     1      -8.266  15.768  69.373  1.00  0.00    -0.211 A  
BRANCH  19  28
HETATM   28  O   UNL     1     -12.025  12.047  65.683  1.00  0.00    -0.479 OA 
BRANCH  28  29
HETATM   29  C   UNL     1     -12.488  12.376  64.373  1.00  0.00    -0.433 C  
HETATM   30  C   UNL     1     -11.294  12.370  63.435  1.00  0.00    -0.507 C  
ENDBRANCH  28  29
ENDBRANCH  19  28
ENDBRANCH  15  18
ENDBRANCH  12  14
TORSDOF 4
ENDMDL
MODEL       57
REMARK 921   NORMALIZED FREE ENERGY PREDICTED BY IDOCK:   -5.64 KCAL/MOL
REMARK 922        TOTAL FREE ENERGY PREDICTED BY IDOCK:   -8.10 KCAL/MOL
REMARK 923 INTER-LIGAND FREE ENERGY PREDICTED BY IDOCK:   -8.40 KCAL/MOL
REMARK 924 INTRA-LIGAND FREE ENERGY PREDICTED BY IDOCK:    0.30 KCAL/MOL
REMARK 927      BINDING AFFINITY PREDICTED BY RF-SCORE:    0.00 PKD
ROOT
HETATM    1  C   UNL     1     -12.296  13.315  65.576  1.00  0.00    -0.480 C  
HETATM    2  S   UNL     1     -11.767  14.090  67.156  1.00  0.00    -0.413 SA 
HETATM    3  C   UNL     1     -10.303  14.948  66.411  1.00  0.00    -0.286 C  
HETATM    4  C   UNL     1     -10.039  16.266  67.142  1.00  0.00    -0.268 C  
HETATM    5  CA  UNL     1     -10.632  15.076  64.903  1.00  0.00    -0.374 C  
HETATM    6  C   UNL     1      -9.072  14.053  66.653  1.00  0.00    -0.221 C  
HETATM    7  N   UNL     1     -11.440  13.901  64.531  1.00  0.00    -0.378 N  
HETATM    8  C   UNL     1     -11.418  16.331  64.482  1.00  0.00    -0.169 C  
HETATM    9  OXT UNL     1     -11.101  17.479  64.748  1.00  0.00    -0.959 OA 
HETATM   10  O   UNL     1     -12.488  16.055  63.693  1.00  0.00    -0.631 OA 
HETATM   11  C   UNL     1     -10.793  12.722  64.252  1.00  0.00    -0.390 C  
HETATM   12  CA  UNL     1     -11.713  11.915  65.229  1.00  0.00    -0.169 C  
HETATM   13  O   UNL     1      -9.828  12.573  63.542  1.00  0.00    -0.340 OA 
ENDROOT
BRANCH  12  14
HETATM   14  N   UNL     1     -11.131  11.172  66.380  1.00  0.00    -0.202 N  
HETATM   15  C   UNL     1     -10.321  10.062  66.259  1.00  0.00    -0.165 C  
HETATM   16  H   UNL     1     -11.345  11.505  67.320  1.00  0.00     0.000 HD 
HETATM   17  O   UNL     1      -9.996   9.601  65.172  1.00  0.00    -0.263 OA 
BRANCH  15  18
HETATM   18  C   UNL     1      -9.846   9.434  67.537  1.00  0.00    -0.220 A  
HETATM   19  C   UNL     1      -8.668   8.648  67.527  1.00  0.00    -0.135 A  
HETATM   20  C   UNL     1      -8.192   8.118  68.726  1.00  0.00    -0.125 A  
HETATM   21  C   UNL     1     -12.331  10.708  70.132  1.00  0.00    -0.370 A  
HETATM   22  C   UNL     1      -8.844   8.386  69.926  1.00  0.00    -0.137 A  
HETATM   23  C   UNL     1     -10.543   9.696  68.764  1.00  0.00    -0.242 A  
HETATM   24  C   UNL     1     -11.747  10.439  68.889  1.00  0.00    -0.138 A  
HETATM   25  C   UNL     1      -9.997   9.175  69.965  1.00  0.00    -0.223 A  
HETATM   26  C   UNL     1     -10.594   9.451  71.206  1.00  0.00    -0.400 A  
HETATM   27  C   UNL     1     -11.745  10.228  71.292  1.00  0.00    -0.378 A  
BRANCH  19  28
HETATM   28  O   UNL     1      -8.040   8.458  66.320  1.00  0.00    -0.099 OA 
BRANCH  28  29
HETATM   29  C   UNL     1      -7.448   7.182  66.072  1.00  0.00    -0.080 C  
HETATM   30  C   UNL     1      -8.510   6.277  65.474  1.00  0.00    -0.145 C  
ENDBRANCH  28  29
ENDBRANCH  19  28
ENDBRANCH  15  18
ENDBRANCH  12  14
TORSDOF 4
ENDMDL
MODEL       58
REMARK 921   NORMALIZED FREE ENERGY PREDICTED BY IDOCK:   -5.52 KCAL/MOL
REMARK 922        TOTAL FREE ENERGY PREDICTED BY IDOCK:   -7.94 KCAL/MOL
REMARK 923 INTER-LIGAND FREE ENERGY PREDICTED BY IDOCK:   -6.93 KCAL/MOL
REMARK 924 INTRA-LIGAND FREE ENERGY PREDICTED BY IDOCK:   -1.01 KCAL/MOL
REMARK 927      BINDING AFFINITY PREDICTED BY RF-SCORE:    0.00 PKD
ROOT
HETATM    1  C   UNL     1      -8.469   9.094  68.287  1.00  0.00    -0.125 C  
HETATM    2  S   UNL     1      -7.684   9.845  69.768  1.00  0.00    -0.169 SA 
HETATM    3  C   UNL     1      -8.382   8.598  70.948  1.00  0.00    -0.157 C  
HETATM    4  C   UNL     1      -7.411   8.375  72.110  1.00  0.00    -0.146 C  
HETATM    5  CA  UNL     1      -8.686   7.350  70.085  1.00  0.00    -0.143 C  
HETATM    6  C   UNL     1      -9.664   9.202  71.552  1.00  0.00    -0.313 C  
HETATM    7  N   UNL     1      -9.066   7.827  68.744  1.00  0.00    -0.141 N  
HETATM    8  C   UNL     1      -7.533   6.345  69.909  1.00  0.00    -0.088 C  
HETATM    9  OXT UNL     1      -6.892   5.846  70.820  1.00  0.00    -0.054 OA 
HETATM   10  O   UNL     1      -7.327   5.983  68.616  1.00  0.00    -0.081 OA 
HETATM   11  C   UNL     1     -10.359   8.241  68.537  1.00  0.00    -0.199 C  
HETATM   12  CA  UNL     1      -9.890   9.590  67.895  1.00  0.00    -0.156 C  
HETATM   13  O   UNL     1     -11.368   7.668  68.871  1.00  0.00     0.259 OA 
ENDROOT
BRANCH  12  14
HETATM   14  N   UNL     1     -10.290  10.894  68.492  1.00  0.00    -0.178 N  
HETATM   15  C   UNL     1     -11.175  11.777  67.909  1.00  0.00    -0.267 C  
HETATM   16  H   UNL     1      -9.882  11.151  69.391  1.00  0.00     0.000 HD 
HETATM   17  O   UNL     1     -11.726  11.546  66.841  1.00  0.00    -0.533 OA 
BRANCH  15  18
HETATM   18  C   UNL     1     -11.437  13.054  68.653  1.00  0.00    -0.344 A  
HETATM   19  C   UNL     1     -11.922  12.994  69.982  1.00  0.00    -0.312 A  
HETATM   20  C   UNL     1     -12.105  14.178  70.696  1.00  0.00    -0.421 A  
HETATM   21  C   UNL     1     -10.315  15.756  66.210  1.00  0.00    -0.320 A  
HETATM   22  C   UNL     1     -11.781  15.405  70.124  1.00  0.00    -0.356 A  
HETATM   23  C   UNL     1     -11.124  14.314  68.043  1.00  0.00    -0.286 A  
HETATM   24  C   UNL     1     -10.665  14.497  66.712  1.00  0.00    -0.291 A  
HETATM   25  C   UNL     1     -11.282  15.489  68.822  1.00  0.00    -0.316 A  
HETATM   26  C   UNL     1     -10.929  16.747  68.305  1.00  0.00    -0.327 A  
HETATM   27  C   UNL     1     -10.432  16.880  67.013  1.00  0.00    -0.281 A  
BRANCH  19  28
HETATM   28  O   UNL     1     -12.179  11.751  70.511  1.00  0.00    -0.358 OA 
BRANCH  28  29
HETATM   29  C   UNL     1     -12.820  11.691  71.786  1.00  0.00    -0.313 C  
HETATM   30  C   UNL     1     -13.251  10.255  72.030  1.00  0.00    -0.516 C  
ENDBRANCH  28  29
ENDBRANCH  19  28
ENDBRANCH  15  18
ENDBRANCH  12  14
TORSDOF 4
ENDMDL
MODEL       59
REMARK 921   NORMALIZED FREE ENERGY PREDICTED BY IDOCK:   -5.46 KCAL/MOL
REMARK 922        TOTAL FREE ENERGY PREDICTED BY IDOCK:   -7.88 KCAL/MOL
REMARK 923 INTER-LIGAND FREE ENERGY PREDICTED BY IDOCK:   -6.95 KCAL/MOL
REMARK 924 INTRA-LIGAND FREE ENERGY PREDICTED BY IDOCK:   -0.93 KCAL/MOL
REMARK 927      BINDING AFFINITY PREDICTED BY RF-SCORE:    0.00 PKD
ROOT
HETATM    1  C   UNL     1      -7.499  16.352  67.759  1.00  0.00    -0.142 C  
HETATM    2  S   UNL     1      -8.118  16.843  66.100  1.00  0.00    -0.150 SA 
HETATM    3  C   UNL     1      -9.731  17.498  66.738  1.00  0.00    -0.295 C  
HETATM    4  C   UNL     1     -10.207  18.660  65.863  1.00  0.00    -0.284 C  
HETATM    5  CA  UNL     1      -9.467  17.846  68.223  1.00  0.00    -0.300 C  
HETATM    6  C   UNL     1     -10.775  16.375  66.590  1.00  0.00    -0.173 C  
HETATM    7  N   UNL     1      -8.472  16.884  68.728  1.00  0.00    -0.255 N  
HETATM    8  C   UNL     1      -8.929  19.261  68.506  1.00  0.00    -0.369 C  
HETATM    9  OXT UNL     1      -9.440  20.297  68.112  1.00  0.00    -0.265 OA 
HETATM   10  O   UNL     1      -7.847  19.271  69.326  1.00  0.00    -0.267 OA 
HETATM   11  C   UNL     1      -8.904  15.645  69.133  1.00  0.00    -0.251 C  
HETATM   12  CA  UNL     1      -7.830  14.917  68.256  1.00  0.00    -0.122 C  
HETATM   13  O   UNL     1      -9.844  15.402  69.850  1.00  0.00    -0.270 OA 
ENDROOT
BRANCH  12  14
HETATM   14  N   UNL     1      -8.241  13.960  67.192  1.00  0.00    -0.323 N  
HETATM   15  C   UNL     1      -8.790  12.718  67.434  1.00  0.00    -0.190 C  
HETATM   16  H   UNL     1      -8.108  14.242  66.221  1.00  0.00     0.000 HD 
HETATM   17  O   UNL     1      -9.002  12.302  68.565  1.00  0.00    -0.161 OA 
BRANCH  15  18
HETATM   18  C   UNL     1      -9.120  11.884  66.230  1.00  0.00    -0.188 A  
HETATM   19  C   UNL     1     -10.336  12.114  65.542  1.00  0.00    -0.263 A  
HETATM   20  C   UNL     1     -10.614  11.384  64.386  1.00  0.00    -0.403 A  
HETATM   21  C   UNL     1      -6.040   9.681  65.797  1.00  0.00    -0.062 A  
HETATM   22  C   UNL     1      -9.693  10.465  63.892  1.00  0.00    -0.367 A  
HETATM   23  C   UNL     1      -8.173  10.921  65.746  1.00  0.00    -0.113 A  
HETATM   24  C   UNL     1      -6.943  10.585  66.369  1.00  0.00    -0.124 A  
HETATM   25  C   UNL     1      -8.477  10.235  64.542  1.00  0.00    -0.183 A  
HETATM   26  C   UNL     1      -7.563   9.329  63.979  1.00  0.00    -0.113 A  
HETATM   27  C   UNL     1      -6.343   9.065  64.593  1.00  0.00    -0.070 A  
BRANCH  19  28
HETATM   28  O   UNL     1     -11.185  13.068  66.050  1.00  0.00    -0.282 OA 
BRANCH  28  29
HETATM   29  C   UNL     1     -12.436  13.264  65.390  1.00  0.00    -0.489 C  
HETATM   30  C   UNL     1     -12.254  14.355  64.349  1.00  0.00    -0.481 C  
ENDBRANCH  28  29
ENDBRANCH  19  28
ENDBRANCH  15  18
ENDBRANCH  12  14
TORSDOF 4
ENDMDL
MODEL       60
REMARK 921   NORMALIZED FREE ENERGY PREDICTED BY IDOCK:   -5.41 KCAL/MOL
REMARK 922        TOTAL FREE ENERGY PREDICTED BY IDOCK:   -7.81 KCAL/MOL
REMARK 923 INTER-LIGAND FREE ENERGY PREDICTED BY IDOCK:   -6.56 KCAL/MOL
REMARK 924 INTRA-LIGAND FREE ENERGY PREDICTED BY IDOCK:   -1.25 KCAL/MOL
REMARK 927      BINDING AFFINITY PREDICTED BY RF-SCORE:    0.00 PKD
ROOT
HETATM    1  C   UNL     1     -10.378  16.541  67.914  1.00  0.00    -0.294 C  
HETATM    2  S   UNL     1      -8.674  16.786  68.555  1.00  0.00    -0.252 SA 
HETATM    3  C   UNL     1      -8.153  17.888  67.159  1.00  0.00    -0.212 C  
HETATM    4  C   UNL     1      -7.126  18.911  67.653  1.00  0.00    -0.230 C  
HETATM    5  CA  UNL     1      -9.468  18.481  66.599  1.00  0.00    -0.311 C  
HETATM    6  C   UNL     1      -7.434  17.006  66.120  1.00  0.00    -0.255 C  
HETATM    7  N   UNL     1     -10.517  17.461  66.772  1.00  0.00    -0.292 N  
HETATM    8  C   UNL     1      -9.969  19.777  67.263  1.00  0.00    -0.400 C  
HETATM    9  OXT UNL     1      -9.304  20.790  67.414  1.00  0.00    -0.392 OA 
HETATM   10  O   UNL     1     -11.281  19.732  67.609  1.00  0.00    -0.157 OA 
HETATM   11  C   UNL     1     -10.615  16.456  65.841  1.00  0.00    -0.285 C  
HETATM   12  CA  UNL     1     -10.619  15.348  66.946  1.00  0.00    -0.309 C  
HETATM   13  O   UNL     1     -10.607  16.577  64.640  1.00  0.00    -0.647 OA 
ENDROOT
BRANCH  12  14
HETATM   14  N   UNL     1      -9.566  14.295  66.969  1.00  0.00    -0.248 N  
HETATM   15  C   UNL     1      -9.543  13.239  67.856  1.00  0.00    -0.217 C  
HETATM   16  H   UNL     1      -8.813  14.360  66.284  1.00  0.00     0.000 HD 
HETATM   17  O   UNL     1     -10.412  13.070  68.700  1.00  0.00    -0.249 OA 
BRANCH  15  18
HETATM   18  C   UNL     1      -8.386  12.289  67.738  1.00  0.00    -0.162 A  
HETATM   19  C   UNL     1      -7.183  12.574  68.428  1.00  0.00    -0.111 A  
HETATM   20  C   UNL     1      -6.131  11.661  68.371  1.00  0.00    -0.049 A  
HETATM   21  C   UNL     1      -9.774   9.456  65.599  1.00  0.00    -0.336 A  
HETATM   22  C   UNL     1      -6.272  10.463  67.675  1.00  0.00    -0.056 A  
HETATM   23  C   UNL     1      -8.535  11.070  66.996  1.00  0.00    -0.141 A  
HETATM   24  C   UNL     1      -9.678  10.695  66.242  1.00  0.00    -0.245 A  
HETATM   25  C   UNL     1      -7.456  10.149  67.004  1.00  0.00    -0.092 A  
HETATM   26  C   UNL     1      -7.564   8.909  66.352  1.00  0.00    -0.092 A  
HETATM   27  C   UNL     1      -8.722   8.556  65.668  1.00  0.00    -0.213 A  
BRANCH  19  28
HETATM   28  O   UNL     1      -7.119  13.750  69.137  1.00  0.00    -0.108 OA 
BRANCH  28  29
HETATM   29  C   UNL     1      -5.855  14.129  69.683  1.00  0.00    -0.107 C  
HETATM   30  C   UNL     1      -5.324  15.301  68.876  1.00  0.00    -0.099 C  
ENDBRANCH  28  29
ENDBRANCH  19  28
ENDBRANCH  15  18
ENDBRANCH  12  14
TORSDOF 4
ENDMDL
MODEL       61
REMARK 921   NORMALIZED FREE ENERGY PREDICTED BY IDOCK:   -5.41 KCAL/MOL
REMARK 922        TOTAL FREE ENERGY PREDICTED BY IDOCK:   -7.81 KCAL/MOL
REMARK 923 INTER-LIGAND FREE ENERGY PREDICTED BY IDOCK:   -6.72 KCAL/MOL
REMARK 924 INTRA-LIGAND FREE ENERGY PREDICTED BY IDOCK:   -1.09 KCAL/MOL
REMARK 927      BINDING AFFINITY PREDICTED BY RF-SCORE:    0.00 PKD
ROOT
HETATM    1  C   UNL     1     -10.603   5.668  70.316  1.00  0.00    -0.300 C  
HETATM    2  S   UNL     1      -8.877   6.258  70.533  1.00  0.00    -0.144 SA 
HETATM    3  C   UNL     1      -9.202   7.048  72.178  1.00  0.00    -0.130 C  
HETATM    4  C   UNL     1      -7.946   6.978  73.050  1.00  0.00    -0.112 C  
HETATM    5  CA  UNL     1     -10.445   6.317  72.740  1.00  0.00    -0.214 C  
HETATM    6  C   UNL     1      -9.482   8.541  71.924  1.00  0.00    -0.350 C  
HETATM    7  N   UNL     1     -11.288   5.941  71.591  1.00  0.00    -0.246 N  
HETATM    8  C   UNL     1     -10.174   5.038  73.553  1.00  0.00    -0.191 C  
HETATM    9  OXT UNL     1      -9.411   4.959  74.502  1.00  0.00    -0.119 OA 
HETATM   10  O   UNL     1     -10.940   3.984  73.170  1.00  0.00    -0.194 OA 
HETATM   11  C   UNL     1     -12.129   6.886  71.058  1.00  0.00    -0.380 C  
HETATM   12  CA  UNL     1     -11.606   6.621  69.606  1.00  0.00    -0.243 C  
HETATM   13  O   UNL     1     -12.876   7.618  71.662  1.00  0.00    -0.330 OA 
ENDROOT
BRANCH  12  14
HETATM   14  N   UNL     1     -10.982   7.716  68.813  1.00  0.00    -0.423 N  
HETATM   15  C   UNL     1     -10.749   7.655  67.454  1.00  0.00    -0.248 C  
HETATM   16  H   UNL     1     -10.709   8.566  69.306  1.00  0.00     0.000 HD 
HETATM   17  O   UNL     1     -11.058   6.684  66.777  1.00  0.00    -0.354 OA 
BRANCH  15  18
HETATM   18  C   UNL     1     -10.088   8.851  66.832  1.00  0.00    -0.343 A  
HETATM   19  C   UNL     1     -10.628  10.139  67.065  1.00  0.00    -0.225 A  
HETATM   20  C   UNL     1      -9.978  11.256  66.541  1.00  0.00    -0.247 A  
HETATM   21  C   UNL     1      -7.050   7.374  65.067  1.00  0.00    -0.064 A  
HETATM   22  C   UNL     1      -8.792  11.113  65.827  1.00  0.00    -0.182 A  
HETATM   23  C   UNL     1      -8.880   8.688  66.076  1.00  0.00    -0.213 A  
HETATM   24  C   UNL     1      -8.267   7.448  65.753  1.00  0.00    -0.135 A  
HETATM   25  C   UNL     1      -8.228   9.855  65.601  1.00  0.00    -0.138 A  
HETATM   26  C   UNL     1      -7.007   9.767  64.912  1.00  0.00    -0.124 A  
HETATM   27  C   UNL     1      -6.411   8.535  64.660  1.00  0.00    -0.066 A  
BRANCH  19  28
HETATM   28  O   UNL     1     -11.775  10.223  67.818  1.00  0.00    -0.247 OA 
BRANCH  28  29
HETATM   29  C   UNL     1     -11.900  11.323  68.720  1.00  0.00    -0.329 C  
HETATM   30  C   UNL     1     -12.033  10.766  70.127  1.00  0.00    -0.432 C  
ENDBRANCH  28  29
ENDBRANCH  19  28
ENDBRANCH  15  18
ENDBRANCH  12  14
TORSDOF 4
ENDMDL
MODEL       62
REMARK 921   NORMALIZED FREE ENERGY PREDICTED BY IDOCK:   -5.38 KCAL/MOL
REMARK 922        TOTAL FREE ENERGY PREDICTED BY IDOCK:   -7.78 KCAL/MOL
REMARK 923 INTER-LIGAND FREE ENERGY PREDICTED BY IDOCK:   -6.46 KCAL/MOL
REMARK 924 INTRA-LIGAND FREE ENERGY PREDICTED BY IDOCK:   -1.32 KCAL/MOL
REMARK 927      BINDING AFFINITY PREDICTED BY RF-SCORE:    0.00 PKD
ROOT
HETATM    1  C   UNL     1      -9.583  12.535  65.975  1.00  0.00    -0.202 C  
HETATM    2  S   UNL     1     -11.362  12.481  66.433  1.00  0.00    -0.349 SA 
HETATM    3  C   UNL     1     -11.146  13.500  67.966  1.00  0.00    -0.258 C  
HETATM    4  C   UNL     1     -12.407  14.328  68.227  1.00  0.00    -0.024 C  
HETATM    5  CA  UNL     1      -9.850  14.314  67.732  1.00  0.00    -0.223 C  
HETATM    6  C   UNL     1     -11.003  12.525  69.151  1.00  0.00    -0.198 C  
HETATM    7  N   UNL     1      -8.953  13.482  66.911  1.00  0.00    -0.229 N  
HETATM    8  C   UNL     1     -10.015  15.665  67.013  1.00  0.00    -0.240 C  
HETATM    9  OXT UNL     1     -10.786  16.549  67.350  1.00  0.00    -0.294 OA 
HETATM   10  O   UNL     1      -9.146  15.836  65.984  1.00  0.00    -0.336 OA 
HETATM   11  C   UNL     1      -8.194  12.522  67.535  1.00  0.00    -0.175 C  
HETATM   12  CA  UNL     1      -8.661  11.414  66.533  1.00  0.00    -0.181 C  
HETATM   13  O   UNL     1      -7.532  12.657  68.536  1.00  0.00    -0.117 OA 
ENDROOT
BRANCH  12  14
HETATM   14  N   UNL     1      -9.370  10.199  67.021  1.00  0.00    -0.152 N  
HETATM   15  C   UNL     1      -8.848   9.310  67.938  1.00  0.00    -0.124 C  
HETATM   16  H   UNL     1     -10.303  10.012  66.654  1.00  0.00     0.000 HD 
HETATM   17  O   UNL     1      -7.744   9.461  68.445  1.00  0.00    -0.085 OA 
BRANCH  15  18
HETATM   18  C   UNL     1      -9.705   8.129  68.292  1.00  0.00    -0.175 A  
HETATM   19  C   UNL     1      -9.744   7.015  67.419  1.00  0.00    -0.141 A  
HETATM   20  C   UNL     1     -10.489   5.893  67.779  1.00  0.00    -0.300 A  
HETATM   21  C   UNL     1     -11.128   9.053  71.705  1.00  0.00    -0.444 A  
HETATM   22  C   UNL     1     -11.158   5.849  68.998  1.00  0.00    -0.295 A  
HETATM   23  C   UNL     1     -10.412   8.108  69.540  1.00  0.00    -0.227 A  
HETATM   24  C   UNL     1     -10.471   9.175  70.476  1.00  0.00    -0.289 A  
HETATM   25  C   UNL     1     -11.119   6.928  69.886  1.00  0.00    -0.333 A  
HETATM   26  C   UNL     1     -11.776   6.819  71.123  1.00  0.00    -0.394 A  
HETATM   27  C   UNL     1     -11.767   7.868  72.036  1.00  0.00    -0.360 A  
BRANCH  19  28
HETATM   28  O   UNL     1      -9.024   7.096  66.250  1.00  0.00    -0.153 OA 
BRANCH  28  29
HETATM   29  C   UNL     1      -7.983   6.141  66.044  1.00  0.00    -0.110 C  
HETATM   30  C   UNL     1      -6.654   6.828  66.304  1.00  0.00    -0.048 C  
ENDBRANCH  28  29
ENDBRANCH  19  28
ENDBRANCH  15  18
ENDBRANCH  12  14
TORSDOF 4
ENDMDL
MODEL       63
REMARK 921   NORMALIZED FREE ENERGY PREDICTED BY IDOCK:   -5.38 KCAL/MOL
REMARK 922        TOTAL FREE ENERGY PREDICTED BY IDOCK:   -7.78 KCAL/MOL
REMARK 923 INTER-LIGAND FREE ENERGY PREDICTED BY IDOCK:   -6.93 KCAL/MOL
REMARK 924 INTRA-LIGAND FREE ENERGY PREDICTED BY IDOCK:   -0.85 KCAL/MOL
REMARK 927      BINDING AFFINITY PREDICTED BY RF-SCORE:    0.00 PKD
ROOT
HETATM    1  C   UNL     1      -9.439   9.764  67.036  1.00  0.00    -0.157 C  
HETATM    2  S   UNL     1      -8.831  11.484  67.250  1.00  0.00    -0.165 SA 
HETATM    3  C   UNL     1      -7.230  10.974  68.030  1.00  0.00    -0.086 C  
HETATM    4  C   UNL     1      -6.130  11.977  67.672  1.00  0.00    -0.093 C  
HETATM    5  CA  UNL     1      -6.990   9.522  67.551  1.00  0.00    -0.084 C  
HETATM    6  C   UNL     1      -7.417  11.050  69.558  1.00  0.00    -0.031 C  
HETATM    7  N   UNL     1      -8.311   8.888  67.398  1.00  0.00    -0.108 N  
HETATM    8  C   UNL     1      -6.241   9.360  66.215  1.00  0.00    -0.064 C  
HETATM    9  OXT UNL     1      -5.166   9.873  65.947  1.00  0.00    -0.037 OA 
HETATM   10  O   UNL     1      -6.853   8.506  65.356  1.00  0.00    -0.069 OA 
HETATM   11  C   UNL     1      -8.928   8.380  68.515  1.00  0.00    -0.136 C  
HETATM   12  CA  UNL     1     -10.260   9.139  68.200  1.00  0.00    -0.207 C  
HETATM   13  O   UNL     1      -8.432   7.677  69.362  1.00  0.00    -0.130 OA 
ENDROOT
BRANCH  12  14
HETATM   14  N   UNL     1     -10.822  10.119  69.170  1.00  0.00    -0.216 N  
HETATM   15  C   UNL     1     -11.784  11.057  68.858  1.00  0.00    -0.330 C  
HETATM   16  H   UNL     1     -10.474  10.094  70.129  1.00  0.00     0.000 HD 
HETATM   17  O   UNL     1     -12.274  11.149  67.740  1.00  0.00    -0.432 OA 
BRANCH  15  18
HETATM   18  C   UNL     1     -12.212  11.974  69.967  1.00  0.00    -0.280 A  
HETATM   19  C   UNL     1     -12.932  11.445  71.065  1.00  0.00    -0.187 A  
HETATM   20  C   UNL     1     -13.273  12.284  72.125  1.00  0.00    -0.466 A  
HETATM   21  C   UNL     1     -10.730  15.339  68.961  1.00  0.00    -0.244 A  
HETATM   22  C   UNL     1     -12.881  13.619  72.125  1.00  0.00    -0.352 A  
HETATM   23  C   UNL     1     -11.824  13.356  69.941  1.00  0.00    -0.385 A  
HETATM   24  C   UNL     1     -11.133  14.001  68.883  1.00  0.00    -0.296 A  
HETATM   25  C   UNL     1     -12.153  14.161  71.062  1.00  0.00    -0.411 A  
HETATM   26  C   UNL     1     -11.744  15.503  71.128  1.00  0.00    -0.439 A  
HETATM   27  C   UNL     1     -11.021  16.086  70.092  1.00  0.00    -0.369 A  
BRANCH  19  28
HETATM   28  O   UNL     1     -13.250  10.108  71.033  1.00  0.00    -0.394 OA 
BRANCH  28  29
HETATM   29  C   UNL     1     -13.197   9.382  72.262  1.00  0.00    -0.446 C  
HETATM   30  C   UNL     1     -13.300   7.901  71.940  1.00  0.00    -0.318 C  
ENDBRANCH  28  29
ENDBRANCH  19  28
ENDBRANCH  15  18
ENDBRANCH  12  14
TORSDOF 4
ENDMDL
MODEL       64
REMARK 921   NORMALIZED FREE ENERGY PREDICTED BY IDOCK:   -5.37 KCAL/MOL
REMARK 922        TOTAL FREE ENERGY PREDICTED BY IDOCK:   -7.76 KCAL/MOL
REMARK 923 INTER-LIGAND FREE ENERGY PREDICTED BY IDOCK:   -6.33 KCAL/MOL
REMARK 924 INTRA-LIGAND FREE ENERGY PREDICTED BY IDOCK:   -1.43 KCAL/MOL
REMARK 927      BINDING AFFINITY PREDICTED BY RF-SCORE:    0.00 PKD
ROOT
HETATM    1  C   UNL     1      -8.146   9.526  70.434  1.00  0.00    -0.183 C  
HETATM    2  S   UNL     1      -9.955   9.263  70.620  1.00  0.00    -0.289 SA 
HETATM    3  C   UNL     1     -10.030   7.895  69.373  1.00  0.00    -0.189 C  
HETATM    4  C   UNL     1     -11.127   6.897  69.755  1.00  0.00    -0.316 C  
HETATM    5  CA  UNL     1      -8.595   7.318  69.317  1.00  0.00    -0.137 C  
HETATM    6  C   UNL     1     -10.449   8.519  68.028  1.00  0.00    -0.249 C  
HETATM    7  N   UNL     1      -7.665   8.433  69.571  1.00  0.00    -0.094 N  
HETATM    8  C   UNL     1      -8.268   6.204  70.329  1.00  0.00    -0.124 C  
HETATM    9  OXT UNL     1      -8.922   5.184  70.484  1.00  0.00    -0.128 OA 
HETATM   10  O   UNL     1      -7.109   6.413  71.004  1.00  0.00    -0.066 OA 
HETATM   11  C   UNL     1      -7.334   9.262  68.528  1.00  0.00    -0.076 C  
HETATM   12  CA  UNL     1      -7.673  10.545  69.358  1.00  0.00    -0.155 C  
HETATM   13  O   UNL     1      -6.999   8.931  67.416  1.00  0.00    -0.073 OA 
ENDROOT
BRANCH  12  14
HETATM   14  N   UNL     1      -8.716  11.498  68.891  1.00  0.00    -0.368 N  
HETATM   15  C   UNL     1      -8.542  12.396  67.858  1.00  0.00    -0.171 C  
HETATM   16  H   UNL     1      -9.620  11.486  69.365  1.00  0.00     0.000 HD 
HETATM   17  O   UNL     1      -7.500  12.470  67.221  1.00  0.00    -0.150 OA 
BRANCH  15  18
HETATM   18  C   UNL     1      -9.704  13.293  67.545  1.00  0.00    -0.224 A  
HETATM   19  C   UNL     1      -9.840  14.519  68.240  1.00  0.00    -0.229 A  
HETATM   20  C   UNL     1     -10.883  15.381  67.904  1.00  0.00    -0.300 A  
HETATM   21  C   UNL     1     -11.485  11.483  64.701  1.00  0.00    -0.168 A  
HETATM   22  C   UNL     1     -11.761  15.062  66.872  1.00  0.00    -0.181 A  
HETATM   23  C   UNL     1     -10.618  12.939  66.496  1.00  0.00    -0.272 A  
HETATM   24  C   UNL     1     -10.599  11.727  65.756  1.00  0.00    -0.312 A  
HETATM   25  C   UNL     1     -11.635  13.867  66.157  1.00  0.00    -0.371 A  
HETATM   26  C   UNL     1     -12.520  13.610  65.097  1.00  0.00    -0.488 A  
HETATM   27  C   UNL     1     -12.436  12.432  64.361  1.00  0.00    -0.520 A  
BRANCH  19  28
HETATM   28  O   UNL     1      -8.915  14.803  69.216  1.00  0.00    -0.134 OA 
BRANCH  28  29
HETATM   29  C   UNL     1      -8.219  16.048  69.131  1.00  0.00    -0.241 C  
HETATM   30  C   UNL     1      -7.094  15.891  68.122  1.00  0.00    -0.125 C  
ENDBRANCH  28  29
ENDBRANCH  19  28
ENDBRANCH  15  18
ENDBRANCH  12  14
TORSDOF 4
ENDMDL
MODEL       65
REMARK 921   NORMALIZED FREE ENERGY PREDICTED BY IDOCK:   -5.35 KCAL/MOL
REMARK 922        TOTAL FREE ENERGY PREDICTED BY IDOCK:   -7.74 KCAL/MOL
REMARK 923 INTER-LIGAND FREE ENERGY PREDICTED BY IDOCK:   -6.71 KCAL/MOL
REMARK 924 INTRA-LIGAND FREE ENERGY PREDICTED BY IDOCK:   -1.04 KCAL/MOL
REMARK 927      BINDING AFFINITY PREDICTED BY RF-SCORE:    0.00 PKD
ROOT
HETATM    1  C   UNL     1      -9.266  12.295  67.388  1.00  0.00    -0.182 C  
HETATM    2  S   UNL     1      -8.287  11.172  66.314  1.00  0.00    -0.136 SA 
HETATM    3  C   UNL     1      -9.768  10.491  65.432  1.00  0.00    -0.257 C  
HETATM    4  C   UNL     1      -9.399  10.127  63.991  1.00  0.00    -0.339 C  
HETATM    5  CA  UNL     1     -10.865  11.572  65.587  1.00  0.00    -0.252 C  
HETATM    6  C   UNL     1     -10.158   9.175  66.134  1.00  0.00    -0.278 C  
HETATM    7  N   UNL     1     -10.650  12.229  66.888  1.00  0.00    -0.221 N  
HETATM    8  C   UNL     1     -10.893  12.673  64.512  1.00  0.00    -0.336 C  
HETATM    9  OXT UNL     1     -10.930  12.477  63.307  1.00  0.00    -0.425 OA 
HETATM   10  O   UNL     1     -10.956  13.928  65.027  1.00  0.00    -0.330 OA 
HETATM   11  C   UNL     1     -11.140  11.622  68.019  1.00  0.00    -0.242 C  
HETATM   12  CA  UNL     1      -9.762  11.737  68.752  1.00  0.00    -0.067 C  
HETATM   13  O   UNL     1     -12.244  11.159  68.174  1.00  0.00    -0.612 OA 
ENDROOT
BRANCH  12  14
HETATM   14  N   UNL     1      -9.052  10.519  69.230  1.00  0.00    -0.315 N  
HETATM   15  C   UNL     1      -9.525   9.682  70.220  1.00  0.00    -0.248 C  
HETATM   16  H   UNL     1      -8.157  10.288  68.798  1.00  0.00     0.000 HD 
HETATM   17  O   UNL     1     -10.595   9.870  70.783  1.00  0.00    -0.304 OA 
BRANCH  15  18
HETATM   18  C   UNL     1      -8.656   8.513  70.582  1.00  0.00    -0.163 A  
HETATM   19  C   UNL     1      -7.356   8.748  71.093  1.00  0.00    -0.097 A  
HETATM   20  C   UNL     1      -6.573   7.664  71.490  1.00  0.00    -0.045 A  
HETATM   21  C   UNL     1     -10.907   5.502  69.955  1.00  0.00    -0.298 A  
HETATM   22  C   UNL     1      -7.074   6.367  71.421  1.00  0.00    -0.077 A  
HETATM   23  C   UNL     1      -9.174   7.179  70.482  1.00  0.00    -0.158 A  
HETATM   24  C   UNL     1     -10.445   6.823  69.957  1.00  0.00    -0.241 A  
HETATM   25  C   UNL     1      -8.361   6.111  70.940  1.00  0.00    -0.127 A  
HETATM   26  C   UNL     1      -8.836   4.789  70.930  1.00  0.00    -0.150 A  
HETATM   27  C   UNL     1     -10.108   4.486  70.457  1.00  0.00    -0.233 A  
BRANCH  19  28
HETATM   28  O   UNL     1      -6.933  10.053  71.183  1.00  0.00    -0.320 OA 
BRANCH  28  29
HETATM   29  C   UNL     1      -5.872  10.468  70.322  1.00  0.00    -0.089 C  
HETATM   30  C   UNL     1      -5.833  11.987  70.321  1.00  0.00    -0.164 C  
ENDBRANCH  28  29
ENDBRANCH  19  28
ENDBRANCH  15  18
ENDBRANCH  12  14
TORSDOF 4
ENDMDL
MODEL       66
REMARK 921   NORMALIZED FREE ENERGY PREDICTED BY IDOCK:   -5.35 KCAL/MOL
REMARK 922        TOTAL FREE ENERGY PREDICTED BY IDOCK:   -7.74 KCAL/MOL
REMARK 923 INTER-LIGAND FREE ENERGY PREDICTED BY IDOCK:   -6.55 KCAL/MOL
REMARK 924 INTRA-LIGAND FREE ENERGY PREDICTED BY IDOCK:   -1.19 KCAL/MOL
REMARK 927      BINDING AFFINITY PREDICTED BY RF-SCORE:    0.00 PKD
ROOT
HETATM    1  C   UNL     1     -10.329   7.249  69.112  1.00  0.00    -0.205 C  
HETATM    2  S   UNL     1     -11.010   6.386  67.640  1.00  0.00    -0.302 SA 
HETATM    3  C   UNL     1      -9.442   5.467  67.275  1.00  0.00    -0.123 C  
HETATM    4  C   UNL     1      -9.764   4.109  66.646  1.00  0.00    -0.233 C  
HETATM    5  CA  UNL     1      -8.681   5.414  68.623  1.00  0.00    -0.097 C  
HETATM    6  C   UNL     1      -8.671   6.275  66.214  1.00  0.00    -0.143 C  
HETATM    7  N   UNL     1      -9.006   6.649  69.357  1.00  0.00    -0.134 N  
HETATM    8  C   UNL     1      -9.010   4.226  69.545  1.00  0.00    -0.100 C  
HETATM    9  OXT UNL     1      -8.978   3.051  69.214  1.00  0.00    -0.092 OA 
HETATM   10  O   UNL     1      -9.272   4.595  70.825  1.00  0.00    -0.126 OA 
HETATM   11  C   UNL     1      -8.314   7.795  69.053  1.00  0.00    -0.131 C  
HETATM   12  CA  UNL     1      -9.634   8.621  68.886  1.00  0.00    -0.159 C  
HETATM   13  O   UNL     1      -7.119   7.910  68.927  1.00  0.00    -0.070 OA 
ENDROOT
BRANCH  12  14
HETATM   14  N   UNL     1      -9.955   9.285  67.593  1.00  0.00    -0.183 N  
HETATM   15  C   UNL     1      -9.390  10.469  67.166  1.00  0.00    -0.154 C  
HETATM   16  H   UNL     1     -10.638   8.835  66.983  1.00  0.00     0.000 HD 
HETATM   17  O   UNL     1      -8.550  11.070  67.822  1.00  0.00    -0.126 OA 
BRANCH  15  18
HETATM   18  C   UNL     1      -9.857  10.996  65.840  1.00  0.00    -0.278 A  
HETATM   19  C   UNL     1      -9.430  10.357  64.651  1.00  0.00    -0.280 A  
HETATM   20  C   UNL     1      -9.914  10.806  63.423  1.00  0.00    -0.385 A  
HETATM   21  C   UNL     1     -12.222  13.831  66.791  1.00  0.00    -0.440 A  
HETATM   22  C   UNL     1     -10.837  11.846  63.365  1.00  0.00    -0.469 A  
HETATM   23  C   UNL     1     -10.788  12.087  65.793  1.00  0.00    -0.329 A  
HETATM   24  C   UNL     1     -11.260  12.821  66.912  1.00  0.00    -0.339 A  
HETATM   25  C   UNL     1     -11.290  12.480  64.525  1.00  0.00    -0.379 A  
HETATM   26  C   UNL     1     -12.254  13.496  64.417  1.00  0.00    -0.440 A  
HETATM   27  C   UNL     1     -12.731  14.157  65.544  1.00  0.00    -0.468 A  
BRANCH  19  28
HETATM   28  O   UNL     1      -8.555   9.304  64.774  1.00  0.00    -0.164 OA 
BRANCH  28  29
HETATM   29  C   UNL     1      -7.760   8.964  63.637  1.00  0.00    -0.129 C  
HETATM   30  C   UNL     1      -6.353   8.654  64.120  1.00  0.00    -0.071 C  
ENDBRANCH  28  29
ENDBRANCH  19  28
ENDBRANCH  15  18
ENDBRANCH  12  14
TORSDOF 4
ENDMDL
MODEL       67
REMARK 921   NORMALIZED FREE ENERGY PREDICTED BY IDOCK:   -5.33 KCAL/MOL
REMARK 922        TOTAL FREE ENERGY PREDICTED BY IDOCK:   -7.71 KCAL/MOL
REMARK 923 INTER-LIGAND FREE ENERGY PREDICTED BY IDOCK:   -6.74 KCAL/MOL
REMARK 924 INTRA-LIGAND FREE ENERGY PREDICTED BY IDOCK:   -0.98 KCAL/MOL
REMARK 927      BINDING AFFINITY PREDICTED BY RF-SCORE:    0.00 PKD
ROOT
HETATM    1  C   UNL     1      -9.770  14.761  66.143  1.00  0.00    -0.312 C  
HETATM    2  S   UNL     1      -9.427  12.972  66.381  1.00  0.00    -0.181 SA 
HETATM    3  C   UNL     1     -11.108  12.593  67.062  1.00  0.00    -0.281 C  
HETATM    4  C   UNL     1     -11.520  11.169  66.682  1.00  0.00     0.058 C  
HETATM    5  CA  UNL     1     -12.026  13.718  66.525  1.00  0.00    -0.434 C  
HETATM    6  C   UNL     1     -11.001  12.627  68.599  1.00  0.00    -0.292 C  
HETATM    7  N   UNL     1     -11.206  14.938  66.419  1.00  0.00    -0.341 N  
HETATM    8  C   UNL     1     -12.670  13.473  65.149  1.00  0.00    -0.399 C  
HETATM    9  OXT UNL     1     -13.315  12.482  64.843  1.00  0.00    -0.702 OA 
HETATM   10  O   UNL     1     -12.529  14.518  64.294  1.00  0.00    -0.657 OA 
HETATM   11  C   UNL     1     -11.003  15.692  67.548  1.00  0.00    -0.309 C  
HETATM   12  CA  UNL     1      -9.454  15.719  67.327  1.00  0.00    -0.212 C  
HETATM   13  O   UNL     1     -11.838  16.044  68.346  1.00  0.00    -0.304 OA 
ENDROOT
BRANCH  12  14
HETATM   14  N   UNL     1      -8.530  15.166  68.356  1.00  0.00    -0.151 N  
HETATM   15  C   UNL     1      -7.179  14.969  68.161  1.00  0.00    -0.117 C  
HETATM   16  H   UNL     1      -8.922  14.917  69.264  1.00  0.00     0.000 HD 
HETATM   17  O   UNL     1      -6.617  15.254  67.111  1.00  0.00    -0.292 OA 
BRANCH  15  18
HETATM   18  C   UNL     1      -6.414  14.380  69.311  1.00  0.00    -0.117 A  
HETATM   19  C   UNL     1      -5.920  15.236  70.325  1.00  0.00    -0.130 A  
HETATM   20  C   UNL     1      -5.266  14.683  71.425  1.00  0.00    -0.144 A  
HETATM   21  C   UNL     1      -6.551  10.629  68.645  1.00  0.00    -0.056 A  
HETATM   22  C   UNL     1      -5.130  13.303  71.547  1.00  0.00    -0.175 A  
HETATM   23  C   UNL     1      -6.257  12.957  69.411  1.00  0.00    -0.114 A  
HETATM   24  C   UNL     1      -6.680  12.008  68.443  1.00  0.00    -0.065 A  
HETATM   25  C   UNL     1      -5.626  12.436  70.570  1.00  0.00    -0.169 A  
HETATM   26  C   UNL     1      -5.501  11.050  70.759  1.00  0.00    -0.124 A  
HETATM   27  C   UNL     1      -5.976  10.149  69.811  1.00  0.00    -0.047 A  
BRANCH  19  28
HETATM   28  O   UNL     1      -6.127  16.586  70.175  1.00  0.00    -0.192 OA 
BRANCH  28  29
HETATM   29  C   UNL     1      -5.187  17.474  70.782  1.00  0.00    -0.261 C  
HETATM   30  C   UNL     1      -5.352  18.843  70.145  1.00  0.00    -0.221 C  
ENDBRANCH  28  29
ENDBRANCH  19  28
ENDBRANCH  15  18
ENDBRANCH  12  14
TORSDOF 4
ENDMDL
MODEL       68
REMARK 921   NORMALIZED FREE ENERGY PREDICTED BY IDOCK:   -5.33 KCAL/MOL
REMARK 922        TOTAL FREE ENERGY PREDICTED BY IDOCK:   -7.71 KCAL/MOL
REMARK 923 INTER-LIGAND FREE ENERGY PREDICTED BY IDOCK:   -6.82 KCAL/MOL
REMARK 924 INTRA-LIGAND FREE ENERGY PREDICTED BY IDOCK:   -0.89 KCAL/MOL
REMARK 927      BINDING AFFINITY PREDICTED BY RF-SCORE:    0.00 PKD
ROOT
HETATM    1  C   UNL     1      -7.430  17.020  66.222  1.00  0.00    -0.283 C  
HETATM    2  S   UNL     1      -9.097  17.792  66.220  1.00  0.00    -0.115 SA 
HETATM    3  C   UNL     1      -8.748  18.891  67.670  1.00  0.00    -0.288 C  
HETATM    4  C   UNL     1      -9.532  20.199  67.538  1.00  0.00    -0.523 C  
HETATM    5  CA  UNL     1      -7.207  19.038  67.706  1.00  0.00    -0.236 C  
HETATM    6  C   UNL     1      -9.284  18.179  68.928  1.00  0.00    -0.172 C  
HETATM    7  N   UNL     1      -6.636  17.775  67.207  1.00  0.00    -0.161 N  
HETATM    8  C   UNL     1      -6.612  20.181  66.862  1.00  0.00    -0.217 C  
HETATM    9  OXT UNL     1      -6.958  21.350  66.921  1.00  0.00    -0.454 OA 
HETATM   10  O   UNL     1      -5.579  19.786  66.074  1.00  0.00    -0.166 OA 
HETATM   11  C   UNL     1      -6.518  16.719  68.077  1.00  0.00    -0.143 C  
HETATM   12  CA  UNL     1      -7.228  15.741  67.082  1.00  0.00    -0.206 C  
HETATM   13  O   UNL     1      -6.070  16.748  69.198  1.00  0.00    -0.158 OA 
ENDROOT
BRANCH  12  14
HETATM   14  N   UNL     1      -8.483  15.040  67.472  1.00  0.00    -0.163 N  
HETATM   15  C   UNL     1      -8.674  14.405  68.682  1.00  0.00    -0.164 C  
HETATM   16  H   UNL     1      -9.250  15.028  66.801  1.00  0.00     0.000 HD 
HETATM   17  O   UNL     1      -7.817  14.382  69.555  1.00  0.00     0.015 OA 
BRANCH  15  18
HETATM   18  C   UNL     1     -10.001  13.733  68.885  1.00  0.00    -0.043 A  
HETATM   19  C   UNL     1     -10.270  12.514  68.216  1.00  0.00    -0.234 A  
HETATM   20  C   UNL     1     -11.477  11.858  68.455  1.00  0.00    -0.357 A  
HETATM   21  C   UNL     1     -11.743  15.956  71.445  1.00  0.00    -0.530 A  
HETATM   22  C   UNL     1     -12.394  12.372  69.367  1.00  0.00     0.041 A  
HETATM   23  C   UNL     1     -10.950  14.288  69.808  1.00  0.00    -0.112 A  
HETATM   24  C   UNL     1     -10.802  15.515  70.508  1.00  0.00    -0.353 A  
HETATM   25  C   UNL     1     -12.143  13.562  70.054  1.00  0.00    -0.411 A  
HETATM   26  C   UNL     1     -13.080  14.017  70.996  1.00  0.00    -0.342 A  
HETATM   27  C   UNL     1     -12.875  15.199  71.701  1.00  0.00    -0.439 A  
BRANCH  19  28
HETATM   28  O   UNL     1      -9.307  12.030  67.364  1.00  0.00    -0.173 OA 
BRANCH  28  29
HETATM   29  C   UNL     1      -9.716  11.634  66.054  1.00  0.00    -0.232 C  
HETATM   30  C   UNL     1      -8.762  10.557  65.567  1.00  0.00    -0.197 C  
ENDBRANCH  28  29
ENDBRANCH  19  28
ENDBRANCH  15  18
ENDBRANCH  12  14
TORSDOF 4
ENDMDL
MODEL       69
REMARK 921   NORMALIZED FREE ENERGY PREDICTED BY IDOCK:   -5.31 KCAL/MOL
REMARK 922        TOTAL FREE ENERGY PREDICTED BY IDOCK:   -7.69 KCAL/MOL
REMARK 923 INTER-LIGAND FREE ENERGY PREDICTED BY IDOCK:   -6.96 KCAL/MOL
REMARK 924 INTRA-LIGAND FREE ENERGY PREDICTED BY IDOCK:   -0.73 KCAL/MOL
REMARK 927      BINDING AFFINITY PREDICTED BY RF-SCORE:    0.00 PKD
ROOT
HETATM    1  C   UNL     1     -10.123  14.177  66.444  1.00  0.00    -0.293 C  
HETATM    2  S   UNL     1     -11.546  14.477  67.566  1.00  0.00    -0.391 SA 
HETATM    3  C   UNL     1     -10.655  15.735  68.594  1.00  0.00    -0.250 C  
HETATM    4  C   UNL     1     -11.644  16.775  69.125  1.00  0.00     0.358 C  
HETATM    5  CA  UNL     1      -9.535  16.286  67.679  1.00  0.00    -0.221 C  
HETATM    6  C   UNL     1     -10.081  15.003  69.823  1.00  0.00    -0.104 C  
HETATM    7  N   UNL     1      -9.110  15.186  66.796  1.00  0.00    -0.238 N  
HETATM    8  C   UNL     1      -9.914  17.479  66.782  1.00  0.00    -0.313 C  
HETATM    9  OXT UNL     1     -10.425  18.516  67.172  1.00  0.00    -0.380 OA 
HETATM   10  O   UNL     1      -9.548  17.314  65.484  1.00  0.00    -0.464 OA 
HETATM   11  C   UNL     1      -8.211  14.267  67.280  1.00  0.00    -0.192 C  
HETATM   12  CA  UNL     1      -9.113  13.064  66.843  1.00  0.00    -0.227 C  
HETATM   13  O   UNL     1      -7.185  14.497  67.873  1.00  0.00    -0.123 OA 
ENDROOT
BRANCH  12  14
HETATM   14  N   UNL     1      -9.615  12.087  67.848  1.00  0.00    -0.189 N  
HETATM   15  C   UNL     1     -10.563  11.119  67.585  1.00  0.00    -0.211 C  
HETATM   16  H   UNL     1      -9.235  12.137  68.793  1.00  0.00     0.000 HD 
HETATM   17  O   UNL     1     -11.062  10.973  66.478  1.00  0.00    -0.226 OA 
BRANCH  15  18
HETATM   18  C   UNL     1     -10.960  10.239  68.734  1.00  0.00    -0.285 A  
HETATM   19  C   UNL     1     -10.483   8.907  68.783  1.00  0.00    -0.200 A  
HETATM   20  C   UNL     1     -10.800   8.109  69.883  1.00  0.00    -0.215 A  
HETATM   21  C   UNL     1     -13.014  12.553  70.961  1.00  0.00    -0.154 A  
HETATM   22  C   UNL     1     -11.544   8.625  70.939  1.00  0.00    -0.307 A  
HETATM   23  C   UNL     1     -11.751  10.775  69.805  1.00  0.00    -0.399 A  
HETATM   24  C   UNL     1     -12.309  12.080  69.849  1.00  0.00    -0.143 A  
HETATM   25  C   UNL     1     -12.009   9.942  70.924  1.00  0.00    -0.434 A  
HETATM   26  C   UNL     1     -12.720  10.429  72.034  1.00  0.00    -0.365 A  
HETATM   27  C   UNL     1     -13.206  11.732  72.061  1.00  0.00    -0.460 A  
BRANCH  19  28
HETATM   28  O   UNL     1      -9.712   8.467  67.734  1.00  0.00    -0.152 OA 
BRANCH  28  29
HETATM   29  C   UNL     1     -10.228   7.408  66.927  1.00  0.00    -0.276 C  
HETATM   30  C   UNL     1      -9.112   6.918  66.021  1.00  0.00    -0.101 C  
ENDBRANCH  28  29
ENDBRANCH  19  28
ENDBRANCH  15  18
ENDBRANCH  12  14
TORSDOF 4
ENDMDL
MODEL       70
REMARK 921   NORMALIZED FREE ENERGY PREDICTED BY IDOCK:   -5.30 KCAL/MOL
REMARK 922        TOTAL FREE ENERGY PREDICTED BY IDOCK:   -7.68 KCAL/MOL
REMARK 923 INTER-LIGAND FREE ENERGY PREDICTED BY IDOCK:   -6.59 KCAL/MOL
REMARK 924 INTRA-LIGAND FREE ENERGY PREDICTED BY IDOCK:   -1.09 KCAL/MOL
REMARK 927      BINDING AFFINITY PREDICTED BY RF-SCORE:    0.00 PKD
ROOT
HETATM    1  C   UNL     1      -8.201   6.658  69.463  1.00  0.00    -0.130 C  
HETATM    2  S   UNL     1      -9.284   7.654  70.562  1.00  0.00    -0.159 SA 
HETATM    3  C   UNL     1     -10.512   6.292  70.827  1.00  0.00    -0.222 C  
HETATM    4  C   UNL     1     -11.129   6.406  72.223  1.00  0.00    -0.302 C  
HETATM    5  CA  UNL     1      -9.733   4.984  70.547  1.00  0.00    -0.204 C  
HETATM    6  C   UNL     1     -11.658   6.503  69.819  1.00  0.00    -0.392 C  
HETATM    7  N   UNL     1      -8.733   5.285  69.507  1.00  0.00    -0.103 N  
HETATM    8  C   UNL     1      -8.986   4.367  71.743  1.00  0.00    -0.124 C  
HETATM    9  OXT UNL     1      -9.486   4.111  72.826  1.00  0.00    -0.121 OA 
HETATM   10  O   UNL     1      -7.697   4.043  71.463  1.00  0.00    -0.061 OA 
HETATM   11  C   UNL     1      -9.133   5.285  68.193  1.00  0.00    -0.110 C  
HETATM   12  CA  UNL     1      -8.496   6.692  67.936  1.00  0.00    -0.119 C  
HETATM   13  O   UNL     1      -9.799   4.447  67.637  1.00  0.00    -0.169 OA 
ENDROOT
BRANCH  12  14
HETATM   14  N   UNL     1      -9.337   7.834  67.483  1.00  0.00    -0.138 N  
HETATM   15  C   UNL     1      -8.865   9.115  67.282  1.00  0.00    -0.124 C  
HETATM   16  H   UNL     1     -10.327   7.659  67.310  1.00  0.00     0.000 HD 
HETATM   17  O   UNL     1      -7.691   9.416  67.448  1.00  0.00    -0.094 OA 
BRANCH  15  18
HETATM   18  C   UNL     1      -9.871  10.140  66.844  1.00  0.00    -0.244 A  
HETATM   19  C   UNL     1     -10.661  10.796  67.819  1.00  0.00    -0.228 A  
HETATM   20  C   UNL     1     -11.549  11.794  67.418  1.00  0.00    -0.352 A  
HETATM   21  C   UNL     1      -9.351  10.343  63.073  1.00  0.00    -0.344 A  
HETATM   22  C   UNL     1     -11.634  12.169  66.081  1.00  0.00    -0.418 A  
HETATM   23  C   UNL     1      -9.968  10.499  65.458  1.00  0.00    -0.342 A  
HETATM   24  C   UNL     1      -9.252   9.891  64.394  1.00  0.00    -0.317 A  
HETATM   25  C   UNL     1     -10.850  11.551  65.103  1.00  0.00    -0.326 A  
HETATM   26  C   UNL     1     -10.942  11.996  63.773  1.00  0.00    -0.492 A  
HETATM   27  C   UNL     1     -10.184  11.407  62.765  1.00  0.00    -0.069 A  
BRANCH  19  28
HETATM   28  O   UNL     1     -10.499  10.417  69.130  1.00  0.00    -0.199 OA 
BRANCH  28  29
HETATM   29  C   UNL     1     -11.335  11.035  70.109  1.00  0.00    -0.251 C  
HETATM   30  C   UNL     1     -12.035   9.937  70.892  1.00  0.00    -0.434 C  
ENDBRANCH  28  29
ENDBRANCH  19  28
ENDBRANCH  15  18
ENDBRANCH  12  14
TORSDOF 4
ENDMDL
MODEL       71
REMARK 921   NORMALIZED FREE ENERGY PREDICTED BY IDOCK:   -5.30 KCAL/MOL
REMARK 922        TOTAL FREE ENERGY PREDICTED BY IDOCK:   -7.67 KCAL/MOL
REMARK 923 INTER-LIGAND FREE ENERGY PREDICTED BY IDOCK:   -6.42 KCAL/MOL
REMARK 924 INTRA-LIGAND FREE ENERGY PREDICTED BY IDOCK:   -1.25 KCAL/MOL
REMARK 927      BINDING AFFINITY PREDICTED BY RF-SCORE:    0.00 PKD
ROOT
HETATM    1  C   UNL     1      -8.646   9.226  70.901  1.00  0.00    -0.162 C  
HETATM    2  S   UNL     1     -10.470   9.015  70.957  1.00  0.00    -0.296 SA 
HETATM    3  C   UNL     1     -10.477   7.529  69.851  1.00  0.00    -0.229 C  
HETATM    4  C   UNL     1     -11.627   6.595  70.235  1.00  0.00    -0.454 C  
HETATM    5  CA  UNL     1      -9.057   6.924  69.976  1.00  0.00    -0.145 C  
HETATM    6  C   UNL     1     -10.765   8.021  68.420  1.00  0.00    -0.070 C  
HETATM    7  N   UNL     1      -8.123   8.042  70.197  1.00  0.00    -0.112 N  
HETATM    8  C   UNL     1      -8.845   5.913  71.118  1.00  0.00    -0.136 C  
HETATM    9  OXT UNL     1      -9.536   4.926  71.317  1.00  0.00    -0.143 OA 
HETATM   10  O   UNL     1      -7.742   6.169  71.866  1.00  0.00    -0.095 OA 
HETATM   11  C   UNL     1      -7.684   8.755  69.108  1.00  0.00    -0.093 C  
HETATM   12  CA  UNL     1      -8.058  10.122  69.774  1.00  0.00    -0.154 C  
HETATM   13  O   UNL     1      -7.267   8.307  68.067  1.00  0.00    -0.090 OA 
ENDROOT
BRANCH  12  14
HETATM   14  N   UNL     1      -9.034  11.041  69.126  1.00  0.00    -0.377 N  
HETATM   15  C   UNL     1      -8.759  11.804  68.010  1.00  0.00    -0.167 C  
HETATM   16  H   UNL     1      -9.966  11.111  69.534  1.00  0.00     0.000 HD 
HETATM   17  O   UNL     1      -7.675  11.773  67.443  1.00  0.00    -0.133 OA 
BRANCH  15  18
HETATM   18  C   UNL     1      -9.866  12.689  67.513  1.00  0.00    -0.203 A  
HETATM   19  C   UNL     1     -10.848  12.149  66.648  1.00  0.00    -0.268 A  
HETATM   20  C   UNL     1     -11.911  12.953  66.238  1.00  0.00    -0.472 A  
HETATM   21  C   UNL     1      -9.218  16.003  69.281  1.00  0.00    -0.243 A  
HETATM   22  C   UNL     1     -12.029  14.261  66.701  1.00  0.00    -0.454 A  
HETATM   23  C   UNL     1      -9.960  14.044  67.977  1.00  0.00    -0.235 A  
HETATM   24  C   UNL     1      -9.021  14.698  68.816  1.00  0.00    -0.173 A  
HETATM   25  C   UNL     1     -11.083  14.810  67.571  1.00  0.00    -0.323 A  
HETATM   26  C   UNL     1     -11.269  16.119  68.044  1.00  0.00    -0.291 A  
HETATM   27  C   UNL     1     -10.351  16.708  68.908  1.00  0.00    -0.300 A  
BRANCH  19  28
HETATM   28  O   UNL     1     -10.706  10.838  66.263  1.00  0.00    -0.220 OA 
BRANCH  28  29
HETATM   29  C   UNL     1     -10.533  10.569  64.871  1.00  0.00    -0.144 C  
HETATM   30  C   UNL     1      -9.052  10.679  64.550  1.00  0.00    -0.243 C  
ENDBRANCH  28  29
ENDBRANCH  19  28
ENDBRANCH  15  18
ENDBRANCH  12  14
TORSDOF 4
ENDMDL
MODEL       72
REMARK 921   NORMALIZED FREE ENERGY PREDICTED BY IDOCK:   -5.22 KCAL/MOL
REMARK 922        TOTAL FREE ENERGY PREDICTED BY IDOCK:   -7.58 KCAL/MOL
REMARK 923 INTER-LIGAND FREE ENERGY PREDICTED BY IDOCK:   -6.91 KCAL/MOL
REMARK 924 INTRA-LIGAND FREE ENERGY PREDICTED BY IDOCK:   -0.67 KCAL/MOL
REMARK 927      BINDING AFFINITY PREDICTED BY RF-SCORE:    0.00 PKD
ROOT
HETATM    1  C   UNL     1      -8.156   6.223  67.594  1.00  0.00    -0.117 C  
HETATM    2  S   UNL     1      -8.489   6.654  69.348  1.00  0.00    -0.132 SA 
HETATM    3  C   UNL     1      -9.713   5.287  69.602  1.00  0.00    -0.182 C  
HETATM    4  C   UNL     1      -9.662   4.799  71.052  1.00  0.00    -0.257 C  
HETATM    5  CA  UNL     1      -9.365   4.227  68.528  1.00  0.00    -0.151 C  
HETATM    6  C   UNL     1     -11.119   5.881  69.384  1.00  0.00    -0.369 C  
HETATM    7  N   UNL     1      -8.853   4.949  67.351  1.00  0.00    -0.103 N  
HETATM    8  C   UNL     1      -8.309   3.179  68.924  1.00  0.00    -0.061 C  
HETATM    9  OXT UNL     1      -8.349   2.487  69.929  1.00  0.00    -0.044 OA 
HETATM   10  O   UNL     1      -7.333   3.021  67.993  1.00  0.00    -0.053 OA 
HETATM   11  C   UNL     1      -9.757   5.491  66.470  1.00  0.00    -0.162 C  
HETATM   12  CA  UNL     1      -9.049   6.886  66.507  1.00  0.00    -0.155 C  
HETATM   13  O   UNL     1     -10.731   4.950  66.004  1.00  0.00    -0.316 OA 
ENDROOT
BRANCH  12  14
HETATM   14  N   UNL     1      -9.787   8.100  66.952  1.00  0.00    -0.222 N  
HETATM   15  C   UNL     1      -9.193   9.316  67.219  1.00  0.00    -0.126 C  
HETATM   16  H   UNL     1     -10.798   8.028  67.067  1.00  0.00     0.000 HD 
HETATM   17  O   UNL     1      -7.990   9.502  67.092  1.00  0.00    -0.102 OA 
BRANCH  15  18
HETATM   18  C   UNL     1     -10.101  10.420  67.679  1.00  0.00    -0.223 A  
HETATM   19  C   UNL     1     -10.426  11.468  66.784  1.00  0.00    -0.239 A  
HETATM   20  C   UNL     1     -11.319  12.459  67.190  1.00  0.00    -0.390 A  
HETATM   21  C   UNL     1     -11.078   9.358  71.207  1.00  0.00    -0.446 A  
HETATM   22  C   UNL     1     -11.916  12.402  68.446  1.00  0.00    -0.269 A  
HETATM   23  C   UNL     1     -10.688  10.364  68.988  1.00  0.00    -0.260 A  
HETATM   24  C   UNL     1     -10.413   9.383  69.977  1.00  0.00    -0.266 A  
HETATM   25  C   UNL     1     -11.627  11.367  69.340  1.00  0.00    -0.391 A  
HETATM   26  C   UNL     1     -12.287  11.331  70.579  1.00  0.00    -0.446 A  
HETATM   27  C   UNL     1     -12.028  10.323  71.502  1.00  0.00    -0.357 A  
BRANCH  19  28
HETATM   28  O   UNL     1      -9.843  11.446  65.539  1.00  0.00    -0.213 OA 
BRANCH  28  29
HETATM   29  C   UNL     1     -10.653  11.044  64.434  1.00  0.00    -0.325 C  
HETATM   30  C   UNL     1     -10.986  12.282  63.619  1.00  0.00    -0.532 C  
ENDBRANCH  28  29
ENDBRANCH  19  28
ENDBRANCH  15  18
ENDBRANCH  12  14
TORSDOF 4
ENDMDL
MODEL       73
REMARK 921   NORMALIZED FREE ENERGY PREDICTED BY IDOCK:   -5.19 KCAL/MOL
REMARK 922        TOTAL FREE ENERGY PREDICTED BY IDOCK:   -7.54 KCAL/MOL
REMARK 923 INTER-LIGAND FREE ENERGY PREDICTED BY IDOCK:   -6.16 KCAL/MOL
REMARK 924 INTRA-LIGAND FREE ENERGY PREDICTED BY IDOCK:   -1.38 KCAL/MOL
REMARK 927      BINDING AFFINITY PREDICTED BY RF-SCORE:    0.00 PKD
ROOT
HETATM    1  C   UNL     1      -7.893   8.083  66.660  1.00  0.00    -0.098 C  
HETATM    2  S   UNL     1      -9.579   8.342  65.979  1.00  0.00    -0.043 SA 
HETATM    3  C   UNL     1      -9.305  10.135  65.596  1.00  0.00    -0.199 C  
HETATM    4  C   UNL     1     -10.120  10.538  64.365  1.00  0.00    -0.395 C  
HETATM    5  CA  UNL     1      -7.771  10.290  65.461  1.00  0.00    -0.149 C  
HETATM    6  C   UNL     1      -9.861  10.949  66.781  1.00  0.00    -0.231 C  
HETATM    7  N   UNL     1      -7.151   9.326  66.386  1.00  0.00    -0.087 N  
HETATM    8  C   UNL     1      -7.181  10.035  64.062  1.00  0.00    -0.129 C  
HETATM    9  OXT UNL     1      -7.560  10.570  63.033  1.00  0.00    -0.131 OA 
HETATM   10  O   UNL     1      -6.114   9.196  64.074  1.00  0.00    -0.074 OA 
HETATM   11  C   UNL     1      -7.032   9.671  67.711  1.00  0.00    -0.079 C  
HETATM   12  CA  UNL     1      -7.684   8.328  68.182  1.00  0.00    -0.106 C  
HETATM   13  O   UNL     1      -6.621  10.715  68.155  1.00  0.00    -0.062 OA 
ENDROOT
BRANCH  12  14
HETATM   14  N   UNL     1      -8.931   8.333  68.996  1.00  0.00    -0.147 N  
HETATM   15  C   UNL     1      -9.025   8.856  70.269  1.00  0.00    -0.183 C  
HETATM   16  H   UNL     1      -9.770   7.923  68.585  1.00  0.00     0.000 HD 
HETATM   17  O   UNL     1      -8.077   9.383  70.835  1.00  0.00    -0.256 OA 
BRANCH  15  18
HETATM   18  C   UNL     1     -10.364   8.750  70.941  1.00  0.00    -0.281 A  
HETATM   19  C   UNL     1     -10.694   7.566  71.644  1.00  0.00    -0.214 A  
HETATM   20  C   UNL     1     -11.910   7.492  72.322  1.00  0.00    -0.331 A  
HETATM   21  C   UNL     1     -11.941  12.166  70.329  1.00  0.00    -0.389 A  
HETATM   22  C   UNL     1     -12.776   8.581  72.340  1.00  0.00    -0.394 A  
HETATM   23  C   UNL     1     -11.260   9.871  70.930  1.00  0.00    -0.433 A  
HETATM   24  C   UNL     1     -11.050  11.091  70.236  1.00  0.00    -0.085 A  
HETATM   25  C   UNL     1     -12.465   9.768  71.671  1.00  0.00    -0.500 A  
HETATM   26  C   UNL     1     -13.352  10.853  71.756  1.00  0.00    -0.413 A  
HETATM   27  C   UNL     1     -13.085  12.052  71.103  1.00  0.00    -0.123 A  
BRANCH  19  28
HETATM   28  O   UNL     1      -9.778   6.541  71.630  1.00  0.00    -0.164 OA 
BRANCH  28  29
HETATM   29  C   UNL     1     -10.243   5.238  71.275  1.00  0.00    -0.224 C  
HETATM   30  C   UNL     1      -9.484   4.787  70.040  1.00  0.00    -0.240 C  
ENDBRANCH  28  29
ENDBRANCH  19  28
ENDBRANCH  15  18
ENDBRANCH  12  14
TORSDOF 4
ENDMDL
MODEL       74
REMARK 921   NORMALIZED FREE ENERGY PREDICTED BY IDOCK:   -5.17 KCAL/MOL
REMARK 922        TOTAL FREE ENERGY PREDICTED BY IDOCK:   -7.52 KCAL/MOL
REMARK 923 INTER-LIGAND FREE ENERGY PREDICTED BY IDOCK:   -6.34 KCAL/MOL
REMARK 924 INTRA-LIGAND FREE ENERGY PREDICTED BY IDOCK:   -1.17 KCAL/MOL
REMARK 927      BINDING AFFINITY PREDICTED BY RF-SCORE:    0.00 PKD
ROOT
HETATM    1  C   UNL     1      -6.985  15.796  68.271  1.00  0.00    -0.117 C  
HETATM    2  S   UNL     1      -6.738  16.496  66.590  1.00  0.00     0.055 SA 
HETATM    3  C   UNL     1      -7.996  17.838  66.808  1.00  0.00    -0.238 C  
HETATM    4  C   UNL     1      -7.588  19.076  66.005  1.00  0.00    -0.273 C  
HETATM    5  CA  UNL     1      -8.109  18.044  68.338  1.00  0.00    -0.298 C  
HETATM    6  C   UNL     1      -9.319  17.333  66.200  1.00  0.00    -0.196 C  
HETATM    7  N   UNL     1      -7.876  16.736  68.974  1.00  0.00    -0.231 N  
HETATM    8  C   UNL     1      -7.123  19.046  68.965  1.00  0.00    -0.326 C  
HETATM    9  OXT UNL     1      -6.956  20.195  68.589  1.00  0.00    -0.297 OA 
HETATM   10  O   UNL     1      -6.486  18.560  70.062  1.00  0.00    -0.098 OA 
HETATM   11  C   UNL     1      -8.921  15.848  69.053  1.00  0.00    -0.245 C  
HETATM   12  CA  UNL     1      -8.065  14.690  68.440  1.00  0.00    -0.147 C  
HETATM   13  O   UNL     1     -10.047  16.084  69.417  1.00  0.00    -0.241 OA 
ENDROOT
BRANCH  12  14
HETATM   14  N   UNL     1      -8.485  14.022  67.177  1.00  0.00    -0.287 N  
HETATM   15  C   UNL     1      -9.403  12.994  67.110  1.00  0.00    -0.230 C  
HETATM   16  H   UNL     1      -8.066  14.345  66.305  1.00  0.00     0.000 HD 
HETATM   17  O   UNL     1      -9.969  12.553  68.101  1.00  0.00    -0.212 OA 
BRANCH  15  18
HETATM   18  C   UNL     1      -9.682  12.432  65.747  1.00  0.00    -0.210 A  
HETATM   19  C   UNL     1     -10.307  13.250  64.775  1.00  0.00    -0.363 A  
HETATM   20  C   UNL     1     -10.509  12.749  63.489  1.00  0.00    -0.114 A  
HETATM   21  C   UNL     1      -8.183   8.931  65.903  1.00  0.00    -0.119 A  
HETATM   22  C   UNL     1     -10.069  11.473  63.150  1.00  0.00    -0.395 A  
HETATM   23  C   UNL     1      -9.247  11.104  65.418  1.00  0.00    -0.225 A  
HETATM   24  C   UNL     1      -8.642  10.186  66.316  1.00  0.00    -0.138 A  
HETATM   25  C   UNL     1      -9.431  10.653  64.086  1.00  0.00    -0.327 A  
HETATM   26  C   UNL     1      -8.967   9.390  63.684  1.00  0.00    -0.151 A  
HETATM   27  C   UNL     1      -8.331   8.539  64.582  1.00  0.00    -0.156 A  
BRANCH  19  28
HETATM   28  O   UNL     1     -10.677  14.519  65.153  1.00  0.00    -0.352 OA 
BRANCH  28  29
HETATM   29  C   UNL     1     -12.053  14.877  65.021  1.00  0.00    -0.216 C  
HETATM   30  C   UNL     1     -12.845  14.097  66.057  1.00  0.00    -0.196 C  
ENDBRANCH  28  29
ENDBRANCH  19  28
ENDBRANCH  15  18
ENDBRANCH  12  14
TORSDOF 4
ENDMDL
MODEL       75
REMARK 921   NORMALIZED FREE ENERGY PREDICTED BY IDOCK:   -5.14 KCAL/MOL
REMARK 922        TOTAL FREE ENERGY PREDICTED BY IDOCK:   -7.48 KCAL/MOL
REMARK 923 INTER-LIGAND FREE ENERGY PREDICTED BY IDOCK:   -6.34 KCAL/MOL
REMARK 924 INTRA-LIGAND FREE ENERGY PREDICTED BY IDOCK:   -1.14 KCAL/MOL
REMARK 927      BINDING AFFINITY PREDICTED BY RF-SCORE:    0.00 PKD
ROOT
HETATM    1  C   UNL     1     -10.446  13.758  66.738  1.00  0.00    -0.270 C  
HETATM    2  S   UNL     1     -11.457  14.040  68.245  1.00  0.00    -0.325 SA 
HETATM    3  C   UNL     1     -10.382  15.407  68.885  1.00  0.00    -0.233 C  
HETATM    4  C   UNL     1     -11.227  16.417  69.666  1.00  0.00    -0.257 C  
HETATM    5  CA  UNL     1      -9.655  15.968  67.639  1.00  0.00    -0.218 C  
HETATM    6  C   UNL     1      -9.395  14.784  69.892  1.00  0.00     0.402 C  
HETATM    7  N   UNL     1      -9.451  14.844  66.709  1.00  0.00    -0.239 N  
HETATM    8  C   UNL     1     -10.387  17.081  66.867  1.00  0.00    -0.303 C  
HETATM    9  OXT UNL     1     -10.824  18.107  67.362  1.00  0.00    -0.374 OA 
HETATM   10  O   UNL     1     -10.441  16.861  65.528  1.00  0.00    -0.560 OA 
HETATM   11  C   UNL     1      -8.379  14.009  66.913  1.00  0.00    -0.017 C  
HETATM   12  CA  UNL     1      -9.281  12.732  66.834  1.00  0.00    -0.229 C  
HETATM   13  O   UNL     1      -7.238  14.335  67.137  1.00  0.00    -0.099 OA 
ENDROOT
BRANCH  12  14
HETATM   14  N   UNL     1      -9.364  11.789  67.983  1.00  0.00    -0.178 N  
HETATM   15  C   UNL     1     -10.119  10.635  67.988  1.00  0.00    -0.157 C  
HETATM   16  H   UNL     1      -8.828  12.011  68.822  1.00  0.00     0.000 HD 
HETATM   17  O   UNL     1     -10.781  10.278  67.022  1.00  0.00    -0.253 OA 
BRANCH  15  18
HETATM   18  C   UNL     1     -10.094   9.821  69.249  1.00  0.00    -0.207 A  
HETATM   19  C   UNL     1     -10.988  10.143  70.299  1.00  0.00    -0.317 A  
HETATM   20  C   UNL     1     -11.009   9.348  71.444  1.00  0.00    -0.443 A  
HETATM   21  C   UNL     1      -7.501   7.124  68.518  1.00  0.00    -0.106 A  
HETATM   22  C   UNL     1     -10.189   8.228  71.543  1.00  0.00    -0.277 A  
HETATM   23  C   UNL     1      -9.224   8.684  69.349  1.00  0.00    -0.150 A  
HETATM   24  C   UNL     1      -8.268   8.286  68.378  1.00  0.00    -0.132 A  
HETATM   25  C   UNL     1      -9.313   7.877  70.513  1.00  0.00    -0.162 A  
HETATM   26  C   UNL     1      -8.537   6.714  70.642  1.00  0.00    -0.142 A  
HETATM   27  C   UNL     1      -7.648   6.328  69.644  1.00  0.00    -0.094 A  
BRANCH  19  28
HETATM   28  O   UNL     1     -11.809  11.232  70.125  1.00  0.00    -0.310 OA 
BRANCH  28  29
HETATM   29  C   UNL     1     -12.789  11.493  71.130  1.00  0.00    -0.315 C  
HETATM   30  C   UNL     1     -12.752  12.977  71.451  1.00  0.00    -0.375 C  
ENDBRANCH  28  29
ENDBRANCH  19  28
ENDBRANCH  15  18
ENDBRANCH  12  14
TORSDOF 4
ENDMDL
MODEL       76
REMARK 921   NORMALIZED FREE ENERGY PREDICTED BY IDOCK:   -5.14 KCAL/MOL
REMARK 922        TOTAL FREE ENERGY PREDICTED BY IDOCK:   -7.48 KCAL/MOL
REMARK 923 INTER-LIGAND FREE ENERGY PREDICTED BY IDOCK:   -6.23 KCAL/MOL
REMARK 924 INTRA-LIGAND FREE ENERGY PREDICTED BY IDOCK:   -1.25 KCAL/MOL
REMARK 927      BINDING AFFINITY PREDICTED BY RF-SCORE:    0.00 PKD
ROOT
HETATM    1  C   UNL     1      -8.352   5.384  69.224  1.00  0.00    -0.096 C  
HETATM    2  S   UNL     1      -9.993   5.094  68.449  1.00  0.00    -0.128 SA 
HETATM    3  C   UNL     1      -9.399   5.430  66.726  1.00  0.00    -0.134 C  
HETATM    4  C   UNL     1     -10.189   4.583  65.725  1.00  0.00    -0.289 C  
HETATM    5  CA  UNL     1      -7.874   5.167  66.765  1.00  0.00    -0.100 C  
HETATM    6  C   UNL     1      -9.718   6.903  66.408  1.00  0.00    -0.127 C  
HETATM    7  N   UNL     1      -7.400   5.537  68.110  1.00  0.00    -0.072 N  
HETATM    8  C   UNL     1      -7.425   3.719  66.498  1.00  0.00    -0.080 C  
HETATM    9  OXT UNL     1      -7.751   3.050  65.530  1.00  0.00    -0.079 OA 
HETATM   10  O   UNL     1      -6.541   3.251  67.417  1.00  0.00    -0.036 OA 
HETATM   11  C   UNL     1      -7.143   6.860  68.374  1.00  0.00    -0.086 C  
HETATM   12  CA  UNL     1      -8.014   6.834  69.674  1.00  0.00    -0.124 C  
HETATM   13  O   UNL     1      -6.512   7.628  67.689  1.00  0.00    -0.054 OA 
ENDROOT
BRANCH  12  14
HETATM   14  N   UNL     1      -9.188   7.738  69.819  1.00  0.00    -0.150 N  
HETATM   15  C   UNL     1      -9.224   8.836  70.654  1.00  0.00    -0.196 C  
HETATM   16  H   UNL     1     -10.020   7.533  69.265  1.00  0.00     0.000 HD 
HETATM   17  O   UNL     1      -8.269   9.170  71.343  1.00  0.00    -0.316 OA 
BRANCH  15  18
HETATM   18  C   UNL     1     -10.507   9.616  70.682  1.00  0.00    -0.379 A  
HETATM   19  C   UNL     1     -11.510   9.268  71.618  1.00  0.00    -0.398 A  
HETATM   20  C   UNL     1     -12.674  10.033  71.687  1.00  0.00    -0.535 A  
HETATM   21  C   UNL     1      -9.954  12.330  68.062  1.00  0.00    -0.202 A  
HETATM   22  C   UNL     1     -12.836  11.149  70.872  1.00  0.00    -0.374 A  
HETATM   23  C   UNL     1     -10.672  10.750  69.817  1.00  0.00    -0.241 A  
HETATM   24  C   UNL     1      -9.752  11.172  68.821  1.00  0.00    -0.194 A  
HETATM   25  C   UNL     1     -11.852  11.526  69.954  1.00  0.00    -0.430 A  
HETATM   26  C   UNL     1     -12.043  12.685  69.184  1.00  0.00    -0.191 A  
HETATM   27  C   UNL     1     -11.093  13.096  68.255  1.00  0.00    -0.295 A  
BRANCH  19  28
HETATM   28  O   UNL     1     -11.274   8.184  72.431  1.00  0.00    -0.330 OA 
BRANCH  28  29
HETATM   29  C   UNL     1     -12.035   6.999  72.196  1.00  0.00    -0.261 C  
HETATM   30  C   UNL     1     -11.074   5.824  72.140  1.00  0.00    -0.327 C  
ENDBRANCH  28  29
ENDBRANCH  19  28
ENDBRANCH  15  18
ENDBRANCH  12  14
TORSDOF 4
ENDMDL
MODEL       77
REMARK 921   NORMALIZED FREE ENERGY PREDICTED BY IDOCK:   -5.14 KCAL/MOL
REMARK 922        TOTAL FREE ENERGY PREDICTED BY IDOCK:   -7.48 KCAL/MOL
REMARK 923 INTER-LIGAND FREE ENERGY PREDICTED BY IDOCK:   -6.43 KCAL/MOL
REMARK 924 INTRA-LIGAND FREE ENERGY PREDICTED BY IDOCK:   -1.05 KCAL/MOL
REMARK 927      BINDING AFFINITY PREDICTED BY RF-SCORE:    0.00 PKD
ROOT
HETATM    1  C   UNL     1      -8.490   7.691  69.024  1.00  0.00    -0.132 C  
HETATM    2  S   UNL     1      -8.617   8.870  70.428  1.00  0.00    -0.201 SA 
HETATM    3  C   UNL     1     -10.262   8.235  70.998  1.00  0.00    -0.191 C  
HETATM    4  C   UNL     1     -10.381   8.378  72.518  1.00  0.00    -0.371 C  
HETATM    5  CA  UNL     1     -10.348   6.787  70.456  1.00  0.00    -0.201 C  
HETATM    6  C   UNL     1     -11.345   9.142  70.382  1.00  0.00    -0.260 C  
HETATM    7  N   UNL     1      -9.617   6.755  69.178  1.00  0.00    -0.140 N  
HETATM    8  C   UNL     1      -9.757   5.687  71.356  1.00  0.00    -0.162 C  
HETATM    9  OXT UNL     1     -10.043   5.512  72.530  1.00  0.00    -0.171 OA 
HETATM   10  O   UNL     1      -8.922   4.844  70.697  1.00  0.00    -0.119 OA 
HETATM   11  C   UNL     1     -10.261   7.180  68.042  1.00  0.00    -0.185 C  
HETATM   12  CA  UNL     1      -9.081   8.134  67.656  1.00  0.00    -0.134 C  
HETATM   13  O   UNL     1     -11.371   6.875  67.680  1.00  0.00    -0.149 OA 
ENDROOT
BRANCH  12  14
HETATM   14  N   UNL     1      -9.306   9.598  67.510  1.00  0.00    -0.130 N  
HETATM   15  C   UNL     1      -8.969  10.329  66.389  1.00  0.00    -0.148 C  
HETATM   16  H   UNL     1      -9.736  10.095  68.291  1.00  0.00     0.000 HD 
HETATM   17  O   UNL     1      -8.464   9.817  65.399  1.00  0.00    -0.133 OA 
BRANCH  15  18
HETATM   18  C   UNL     1      -9.253  11.802  66.437  1.00  0.00    -0.223 A  
HETATM   19  C   UNL     1      -8.497  12.625  67.307  1.00  0.00    -0.193 A  
HETATM   20  C   UNL     1      -8.717  14.002  67.305  1.00  0.00    -0.227 A  
HETATM   21  C   UNL     1     -11.945  12.277  63.781  1.00  0.00    -0.609 A  
HETATM   22  C   UNL     1      -9.642  14.569  66.433  1.00  0.00    -0.324 A  
HETATM   23  C   UNL     1     -10.229  12.371  65.552  1.00  0.00    -0.297 A  
HETATM   24  C   UNL     1     -11.064  11.643  64.664  1.00  0.00    -0.342 A  
HETATM   25  C   UNL     1     -10.385  13.781  65.551  1.00  0.00    -0.333 A  
HETATM   26  C   UNL     1     -11.275  14.405  64.660  1.00  0.00    -0.366 A  
HETATM   27  C   UNL     1     -12.039  13.660  63.768  1.00  0.00    -0.435 A  
BRANCH  19  28
HETATM   28  O   UNL     1      -7.564  12.015  68.111  1.00  0.00    -0.103 OA 
BRANCH  28  29
HETATM   29  C   UNL     1      -6.644  12.850  68.813  1.00  0.00    -0.090 C  
HETATM   30  C   UNL     1      -5.253  12.585  68.264  1.00  0.00    -0.062 C  
ENDBRANCH  28  29
ENDBRANCH  19  28
ENDBRANCH  15  18
ENDBRANCH  12  14
TORSDOF 4
ENDMDL
MODEL       78
REMARK 921   NORMALIZED FREE ENERGY PREDICTED BY IDOCK:   -5.12 KCAL/MOL
REMARK 922        TOTAL FREE ENERGY PREDICTED BY IDOCK:   -7.46 KCAL/MOL
REMARK 923 INTER-LIGAND FREE ENERGY PREDICTED BY IDOCK:   -6.28 KCAL/MOL
REMARK 924 INTRA-LIGAND FREE ENERGY PREDICTED BY IDOCK:   -1.18 KCAL/MOL
REMARK 927      BINDING AFFINITY PREDICTED BY RF-SCORE:    0.00 PKD
ROOT
HETATM    1  C   UNL     1      -7.352   7.277  67.484  1.00  0.00    -0.092 C  
HETATM    2  S   UNL     1      -8.454   6.173  68.454  1.00  0.00    -0.113 SA 
HETATM    3  C   UNL     1      -9.266   5.434  66.961  1.00  0.00    -0.113 C  
HETATM    4  C   UNL     1      -9.665   3.984  67.244  1.00  0.00    -0.199 C  
HETATM    5  CA  UNL     1      -8.252   5.634  65.808  1.00  0.00    -0.122 C  
HETATM    6  C   UNL     1     -10.573   6.213  66.715  1.00  0.00    -0.351 C  
HETATM    7  N   UNL     1      -7.529   6.889  66.074  1.00  0.00    -0.078 N  
HETATM    8  C   UNL     1      -7.202   4.523  65.625  1.00  0.00    -0.072 C  
HETATM    9  OXT UNL     1      -7.451   3.334  65.511  1.00  0.00    -0.074 OA 
HETATM   10  O   UNL     1      -5.933   4.996  65.516  1.00  0.00    -0.021 OA 
HETATM   11  C   UNL     1      -8.118   8.076  65.713  1.00  0.00    -0.121 C  
HETATM   12  CA  UNL     1      -7.883   8.696  67.131  1.00  0.00    -0.097 C  
HETATM   13  O   UNL     1      -8.645   8.333  64.657  1.00  0.00    -0.106 OA 
ENDROOT
BRANCH  12  14
HETATM   14  N   UNL     1      -9.031   9.162  67.956  1.00  0.00    -0.129 N  
HETATM   15  C   UNL     1      -8.912   9.964  69.072  1.00  0.00    -0.160 C  
HETATM   16  H   UNL     1      -9.968   8.870  67.677  1.00  0.00     0.000 HD 
HETATM   17  O   UNL     1      -7.831  10.377  69.471  1.00  0.00    -0.151 OA 
BRANCH  15  18
HETATM   18  C   UNL     1     -10.184  10.313  69.788  1.00  0.00    -0.262 A  
HETATM   19  C   UNL     1     -10.944  11.423  69.346  1.00  0.00    -0.205 A  
HETATM   20  C   UNL     1     -12.159  11.709  69.970  1.00  0.00    -0.395 A  
HETATM   21  C   UNL     1     -10.524   7.557  72.399  1.00  0.00    -0.291 A  
HETATM   22  C   UNL     1     -12.640  10.893  70.989  1.00  0.00    -0.517 A  
HETATM   23  C   UNL     1     -10.656   9.479  70.856  1.00  0.00    -0.395 A  
HETATM   24  C   UNL     1      -9.966   8.364  71.401  1.00  0.00    -0.275 A  
HETATM   25  C   UNL     1     -11.918   9.780  71.429  1.00  0.00    -0.493 A  
HETATM   26  C   UNL     1     -12.466   8.963  72.432  1.00  0.00    -0.405 A  
HETATM   27  C   UNL     1     -11.782   7.847  72.903  1.00  0.00    -0.239 A  
BRANCH  19  28
HETATM   28  O   UNL     1     -10.443  12.164  68.303  1.00  0.00    -0.200 OA 
BRANCH  28  29
HETATM   29  C   UNL     1     -11.376  12.745  67.391  1.00  0.00    -0.313 C  
HETATM   30  C   UNL     1     -10.708  12.841  66.030  1.00  0.00    -0.295 C  
ENDBRANCH  28  29
ENDBRANCH  19  28
ENDBRANCH  15  18
ENDBRANCH  12  14
TORSDOF 4
ENDMDL
MODEL       79
REMARK 921   NORMALIZED FREE ENERGY PREDICTED BY IDOCK:   -5.10 KCAL/MOL
REMARK 922        TOTAL FREE ENERGY PREDICTED BY IDOCK:   -7.43 KCAL/MOL
REMARK 923 INTER-LIGAND FREE ENERGY PREDICTED BY IDOCK:   -6.17 KCAL/MOL
REMARK 924 INTRA-LIGAND FREE ENERGY PREDICTED BY IDOCK:   -1.26 KCAL/MOL
REMARK 927      BINDING AFFINITY PREDICTED BY RF-SCORE:    0.00 PKD
ROOT
HETATM    1  C   UNL     1      -9.810   5.878  70.294  1.00  0.00    -0.185 C  
HETATM    2  S   UNL     1      -8.433   6.737  71.154  1.00  0.00    -0.125 SA 
HETATM    3  C   UNL     1      -9.398   7.034  72.708  1.00  0.00    -0.135 C  
HETATM    4  C   UNL     1      -8.461   7.017  73.919  1.00  0.00    -0.172 C  
HETATM    5  CA  UNL     1     -10.507   5.954  72.709  1.00  0.00    -0.209 C  
HETATM    6  C   UNL     1      -9.984   8.456  72.623  1.00  0.00    -0.329 C  
HETATM    7  N   UNL     1     -10.868   5.697  71.304  1.00  0.00    -0.245 N  
HETATM    8  C   UNL     1     -10.142   4.602  73.348  1.00  0.00    -0.160 C  
HETATM    9  OXT UNL     1      -9.678   4.458  74.468  1.00  0.00    -0.122 OA 
HETATM   10  O   UNL     1     -10.461   3.535  72.571  1.00  0.00    -0.151 OA 
HETATM   11  C   UNL     1     -11.749   6.550  70.685  1.00  0.00    -0.374 C  
HETATM   12  CA  UNL     1     -10.794   6.747  69.461  1.00  0.00    -0.273 C  
HETATM   13  O   UNL     1     -12.800   6.950  71.124  1.00  0.00    -0.354 OA 
ENDROOT
BRANCH  12  14
HETATM   14  N   UNL     1     -10.290   8.101  69.102  1.00  0.00    -0.219 N  
HETATM   15  C   UNL     1     -10.310   8.625  67.826  1.00  0.00    -0.242 C  
HETATM   16  H   UNL     1      -9.903   8.679  69.848  1.00  0.00     0.000 HD 
HETATM   17  O   UNL     1     -10.770   8.012  66.871  1.00  0.00    -0.322 OA 
BRANCH  15  18
HETATM   18  C   UNL     1      -9.736  10.002  67.656  1.00  0.00    -0.185 A  
HETATM   19  C   UNL     1     -10.534  11.129  67.969  1.00  0.00    -0.188 A  
HETATM   20  C   UNL     1      -9.979  12.404  67.873  1.00  0.00    -0.204 A  
HETATM   21  C   UNL     1      -6.143   9.339  66.569  1.00  0.00    -0.064 A  
HETATM   22  C   UNL     1      -8.647  12.571  67.509  1.00  0.00    -0.183 A  
HETATM   23  C   UNL     1      -8.367  10.160  67.253  1.00  0.00    -0.121 A  
HETATM   24  C   UNL     1      -7.486   9.110  66.885  1.00  0.00    -0.091 A  
HETATM   25  C   UNL     1      -7.833  11.473  67.214  1.00  0.00    -0.153 A  
HETATM   26  C   UNL     1      -6.482  11.691  66.894  1.00  0.00    -0.134 A  
HETATM   27  C   UNL     1      -5.636  10.629  66.589  1.00  0.00    -0.066 A  
BRANCH  19  28
HETATM   28  O   UNL     1     -11.829  10.900  68.369  1.00  0.00    -0.498 OA 
BRANCH  28  29
HETATM   29  C   UNL     1     -12.256  11.483  69.601  1.00  0.00    -0.229 C  
HETATM   30  C   UNL     1     -12.327  10.381  70.644  1.00  0.00    -0.438 C  
ENDBRANCH  28  29
ENDBRANCH  19  28
ENDBRANCH  15  18
ENDBRANCH  12  14
TORSDOF 4
ENDMDL
MODEL       80
REMARK 921   NORMALIZED FREE ENERGY PREDICTED BY IDOCK:   -5.01 KCAL/MOL
REMARK 922        TOTAL FREE ENERGY PREDICTED BY IDOCK:   -7.32 KCAL/MOL
REMARK 923 INTER-LIGAND FREE ENERGY PREDICTED BY IDOCK:   -6.74 KCAL/MOL
REMARK 924 INTRA-LIGAND FREE ENERGY PREDICTED BY IDOCK:   -0.59 KCAL/MOL
REMARK 927      BINDING AFFINITY PREDICTED BY RF-SCORE:    0.00 PKD
ROOT
HETATM    1  C   UNL     1      -8.765  12.075  66.941  1.00  0.00    -0.193 C  
HETATM    2  S   UNL     1      -9.351  12.478  68.635  1.00  0.00     0.103 SA 
HETATM    3  C   UNL     1     -11.046  11.777  68.372  1.00  0.00    -0.237 C  
HETATM    4  C   UNL     1     -11.589  11.211  69.686  1.00  0.00    -0.398 C  
HETATM    5  CA  UNL     1     -10.886  10.754  67.221  1.00  0.00    -0.288 C  
HETATM    6  C   UNL     1     -11.971  12.944  67.976  1.00  0.00    -0.323 C  
HETATM    7  N   UNL     1      -9.829  11.260  66.329  1.00  0.00    -0.207 N  
HETATM    8  C   UNL     1     -10.499   9.321  67.631  1.00  0.00    -0.264 C  
HETATM    9  OXT UNL     1     -11.087   8.646  68.462  1.00  0.00     0.101 OA 
HETATM   10  O   UNL     1      -9.462   8.818  66.914  1.00  0.00    -0.155 OA 
HETATM   11  C   UNL     1     -10.160  12.208  65.391  1.00  0.00    -0.255 C  
HETATM   12  CA  UNL     1      -8.982  13.142  65.831  1.00  0.00     0.478 C  
HETATM   13  O   UNL     1     -11.105  12.188  64.641  1.00  0.00    -0.298 OA 
ENDROOT
BRANCH  12  14
HETATM   14  N   UNL     1      -9.250  14.520  66.325  1.00  0.00    -0.468 N  
HETATM   15  C   UNL     1      -8.356  15.268  67.063  1.00  0.00    -0.234 C  
HETATM   16  H   UNL     1     -10.153  14.939  66.104  1.00  0.00     0.000 HD 
HETATM   17  O   UNL     1      -7.243  14.856  67.361  1.00  0.00    -0.194 OA 
BRANCH  15  18
HETATM   18  C   UNL     1      -8.814  16.632  67.491  1.00  0.00    -0.202 A  
HETATM   19  C   UNL     1      -9.820  16.746  68.480  1.00  0.00    -0.257 A  
HETATM   20  C   UNL     1     -10.201  18.012  68.924  1.00  0.00    -0.320 A  
HETATM   21  C   UNL     1      -6.565  18.990  65.512  1.00  0.00    -0.309 A  
HETATM   22  C   UNL     1      -9.575  19.152  68.429  1.00  0.00    -0.437 A  
HETATM   23  C   UNL     1      -8.179  17.801  66.952  1.00  0.00    -0.254 A  
HETATM   24  C   UNL     1      -7.187  17.810  65.938  1.00  0.00    -0.260 A  
HETATM   25  C   UNL     1      -8.566  19.066  67.467  1.00  0.00    -0.311 A  
HETATM   26  C   UNL     1      -7.935  20.243  67.030  1.00  0.00    -0.366 A  
HETATM   27  C   UNL     1      -6.929  20.205  66.071  1.00  0.00    -0.291 A  
BRANCH  19  28
HETATM   28  O   UNL     1     -10.369  15.583  68.967  1.00  0.00    -0.214 OA 
BRANCH  28  29
HETATM   29  C   UNL     1     -10.559  15.478  70.379  1.00  0.00    -0.271 C  
HETATM   30  C   UNL     1     -12.052  15.464  70.654  1.00  0.00    -0.412 C  
ENDBRANCH  28  29
ENDBRANCH  19  28
ENDBRANCH  15  18
ENDBRANCH  12  14
TORSDOF 4
ENDMDL
MODEL       81
REMARK 921   NORMALIZED FREE ENERGY PREDICTED BY IDOCK:   -4.97 KCAL/MOL
REMARK 922        TOTAL FREE ENERGY PREDICTED BY IDOCK:   -7.27 KCAL/MOL
REMARK 923 INTER-LIGAND FREE ENERGY PREDICTED BY IDOCK:   -6.46 KCAL/MOL
REMARK 924 INTRA-LIGAND FREE ENERGY PREDICTED BY IDOCK:   -0.81 KCAL/MOL
REMARK 927      BINDING AFFINITY PREDICTED BY RF-SCORE:    0.00 PKD
ROOT
HETATM    1  C   UNL     1      -8.644  15.502  67.710  1.00  0.00    -0.152 C  
HETATM    2  S   UNL     1      -9.210  14.840  66.093  1.00  0.00    -0.120 SA 
HETATM    3  C   UNL     1     -10.821  15.756  66.119  1.00  0.00    -0.240 C  
HETATM    4  C   UNL     1     -11.247  16.108  64.691  1.00  0.00    -0.307 C  
HETATM    5  CA  UNL     1     -10.586  16.962  67.061  1.00  0.00    -0.230 C  
HETATM    6  C   UNL     1     -11.889  14.794  66.675  1.00  0.00    -0.255 C  
HETATM    7  N   UNL     1      -9.628  16.530  68.093  1.00  0.00    -0.222 N  
HETATM    8  C   UNL     1     -10.021  18.236  66.409  1.00  0.00    -0.380 C  
HETATM    9  OXT UNL     1     -10.495  18.794  65.432  1.00  0.00    -0.509 OA 
HETATM   10  O   UNL     1      -8.959  18.757  67.076  1.00  0.00    -0.278 OA 
HETATM   11  C   UNL     1     -10.101  15.824  69.173  1.00  0.00    -0.238 C  
HETATM   12  CA  UNL     1      -9.024  14.703  68.989  1.00  0.00    -0.093 C  
HETATM   13  O   UNL     1     -11.064  16.091  69.850  1.00  0.00    -0.301 OA 
ENDROOT
BRANCH  12  14
HETATM   14  N   UNL     1      -9.431  13.291  68.752  1.00  0.00    -0.406 N  
HETATM   15  C   UNL     1      -8.559  12.276  68.417  1.00  0.00    -0.136 C  
HETATM   16  H   UNL     1     -10.420  13.058  68.843  1.00  0.00     0.000 HD 
HETATM   17  O   UNL     1      -7.354  12.456  68.303  1.00  0.00    -0.097 OA 
BRANCH  15  18
HETATM   18  C   UNL     1      -9.161  10.919  68.196  1.00  0.00    -0.155 A  
HETATM   19  C   UNL     1     -10.068  10.730  67.125  1.00  0.00    -0.204 A  
HETATM   20  C   UNL     1     -10.578   9.455  66.880  1.00  0.00    -0.238 A  
HETATM   21  C   UNL     1      -7.479   8.755  70.845  1.00  0.00    -0.094 A  
HETATM   22  C   UNL     1     -10.173   8.371  67.653  1.00  0.00    -0.298 A  
HETATM   23  C   UNL     1      -8.755   9.814  69.017  1.00  0.00    -0.148 A  
HETATM   24  C   UNL     1      -7.880   9.890  70.133  1.00  0.00    -0.186 A  
HETATM   25  C   UNL     1      -9.263   8.528  68.702  1.00  0.00    -0.142 A  
HETATM   26  C   UNL     1      -8.853   7.395  69.425  1.00  0.00    -0.137 A  
HETATM   27  C   UNL     1      -7.953   7.504  70.480  1.00  0.00    -0.098 A  
BRANCH  19  28
HETATM   28  O   UNL     1     -10.394  11.828  66.366  1.00  0.00    -0.212 OA 
BRANCH  28  29
HETATM   29  C   UNL     1     -11.373  11.660  65.339  1.00  0.00    -0.153 C  
HETATM   30  C   UNL     1     -10.836  12.291  64.067  1.00  0.00    -0.439 C  
ENDBRANCH  28  29
ENDBRANCH  19  28
ENDBRANCH  15  18
ENDBRANCH  12  14
TORSDOF 4
ENDMDL
MODEL       82
REMARK 921   NORMALIZED FREE ENERGY PREDICTED BY IDOCK:   -4.94 KCAL/MOL
REMARK 922        TOTAL FREE ENERGY PREDICTED BY IDOCK:   -7.24 KCAL/MOL
REMARK 923 INTER-LIGAND FREE ENERGY PREDICTED BY IDOCK:   -6.12 KCAL/MOL
REMARK 924 INTRA-LIGAND FREE ENERGY PREDICTED BY IDOCK:   -1.12 KCAL/MOL
REMARK 927      BINDING AFFINITY PREDICTED BY RF-SCORE:    0.00 PKD
ROOT
HETATM    1  C   UNL     1      -9.268   9.059  67.471  1.00  0.00    -0.135 C  
HETATM    2  S   UNL     1      -7.588   8.599  68.055  1.00  0.00    -0.098 SA 
HETATM    3  C   UNL     1      -7.455   7.115  66.952  1.00  0.00    -0.100 C  
HETATM    4  C   UNL     1      -5.996   6.893  66.546  1.00  0.00    -0.033 C  
HETATM    5  CA  UNL     1      -8.438   7.387  65.787  1.00  0.00    -0.143 C  
HETATM    6  C   UNL     1      -7.876   5.886  67.782  1.00  0.00    -0.098 C  
HETATM    7  N   UNL     1      -9.560   8.169  66.335  1.00  0.00    -0.225 N  
HETATM    8  C   UNL     1      -7.872   8.168  64.587  1.00  0.00    -0.136 C  
HETATM    9  OXT UNL     1      -6.860   7.872  63.972  1.00  0.00    -0.060 OA 
HETATM   10  O   UNL     1      -8.659   9.204  64.200  1.00  0.00    -0.191 OA 
HETATM   11  C   UNL     1     -10.570   7.501  66.983  1.00  0.00    -0.339 C  
HETATM   12  CA  UNL     1     -10.485   8.451  68.225  1.00  0.00    -0.163 C  
HETATM   13  O   UNL     1     -11.144   6.508  66.606  1.00  0.00    -0.283 OA 
ENDROOT
BRANCH  12  14
HETATM   14  N   UNL     1     -10.181   7.907  69.577  1.00  0.00    -0.204 N  
HETATM   15  C   UNL     1     -10.990   7.022  70.259  1.00  0.00    -0.271 C  
HETATM   16  H   UNL     1      -9.317   8.208  70.029  1.00  0.00     0.000 HD 
HETATM   17  O   UNL     1     -12.035   6.591  69.789  1.00  0.00    -0.277 OA 
BRANCH  15  18
HETATM   18  C   UNL     1     -10.526   6.602  71.623  1.00  0.00    -0.232 A  
HETATM   19  C   UNL     1     -10.735   7.469  72.723  1.00  0.00    -0.330 A  
HETATM   20  C   UNL     1     -10.362   7.052  74.000  1.00  0.00    -0.310 A  
HETATM   21  C   UNL     1      -9.160   3.088  71.058  1.00  0.00    -0.185 A  
HETATM   22  C   UNL     1      -9.825   5.784  74.202  1.00  0.00    -0.208 A  
HETATM   23  C   UNL     1      -9.948   5.302  71.813  1.00  0.00    -0.245 A  
HETATM   24  C   UNL     1      -9.663   4.365  70.785  1.00  0.00    -0.271 A  
HETATM   25  C   UNL     1      -9.627   4.902  73.136  1.00  0.00    -0.154 A  
HETATM   26  C   UNL     1      -9.121   3.618  73.396  1.00  0.00    -0.109 A  
HETATM   27  C   UNL     1      -8.905   2.708  72.366  1.00  0.00    -0.100 A  
BRANCH  19  28
HETATM   28  O   UNL     1     -11.314   8.689  72.471  1.00  0.00    -0.340 OA 
BRANCH  28  29
HETATM   29  C   UNL     1     -12.740   8.763  72.481  1.00  0.00    -0.311 C  
HETATM   30  C   UNL     1     -13.150  10.059  71.803  1.00  0.00    -0.562 C  
ENDBRANCH  28  29
ENDBRANCH  19  28
ENDBRANCH  15  18
ENDBRANCH  12  14
TORSDOF 4
ENDMDL
MODEL       83
REMARK 921   NORMALIZED FREE ENERGY PREDICTED BY IDOCK:   -4.94 KCAL/MOL
REMARK 922        TOTAL FREE ENERGY PREDICTED BY IDOCK:   -7.23 KCAL/MOL
REMARK 923 INTER-LIGAND FREE ENERGY PREDICTED BY IDOCK:   -7.11 KCAL/MOL
REMARK 924 INTRA-LIGAND FREE ENERGY PREDICTED BY IDOCK:   -0.12 KCAL/MOL
REMARK 927      BINDING AFFINITY PREDICTED BY RF-SCORE:    0.00 PKD
ROOT
HETATM    1  C   UNL     1      -7.294  16.989  66.544  1.00  0.00    -0.285 C  
HETATM    2  S   UNL     1      -9.050  17.430  66.236  1.00  0.00    -0.156 SA 
HETATM    3  C   UNL     1      -9.160  18.595  67.672  1.00  0.00    -0.278 C  
HETATM    4  C   UNL     1     -10.140  19.728  67.355  1.00  0.00    -0.555 C  
HETATM    5  CA  UNL     1      -7.702  19.033  67.952  1.00  0.00    -0.266 C  
HETATM    6  C   UNL     1      -9.760  17.811  68.856  1.00  0.00    -0.262 C  
HETATM    7  N   UNL     1      -6.831  17.895  67.611  1.00  0.00    -0.183 N  
HETATM    8  C   UNL     1      -7.195  20.255  67.166  1.00  0.00    -0.285 C  
HETATM    9  OXT UNL     1      -7.756  21.338  67.115  1.00  0.00    -0.329 OA 
HETATM   10  O   UNL     1      -5.989  20.054  66.576  1.00  0.00    -0.171 OA 
HETATM   11  C   UNL     1      -6.669  16.892  68.535  1.00  0.00    -0.168 C  
HETATM   12  CA  UNL     1      -7.007  15.783  67.483  1.00  0.00    -0.186 C  
HETATM   13  O   UNL     1      -6.430  17.021  69.712  1.00  0.00    -0.226 OA 
ENDROOT
BRANCH  12  14
HETATM   14  N   UNL     1      -8.158  14.862  67.694  1.00  0.00    -0.153 N  
HETATM   15  C   UNL     1      -8.116  13.502  67.467  1.00  0.00    -0.186 C  
HETATM   16  H   UNL     1      -9.034  15.263  68.028  1.00  0.00     0.000 HD 
HETATM   17  O   UNL     1      -7.104  12.930  67.083  1.00  0.00    -0.106 OA 
BRANCH  15  18
HETATM   18  C   UNL     1      -9.385  12.740  67.717  1.00  0.00    -0.199 A  
HETATM   19  C   UNL     1     -10.581  13.163  67.088  1.00  0.00    -0.257 A  
HETATM   20  C   UNL     1     -11.746  12.418  67.268  1.00  0.00    -0.419 A  
HETATM   21  C   UNL     1      -8.269   9.851  69.938  1.00  0.00    -0.199 A  
HETATM   22  C   UNL     1     -11.730  11.251  68.027  1.00  0.00    -0.305 A  
HETATM   23  C   UNL     1      -9.360  11.553  68.523  1.00  0.00    -0.171 A  
HETATM   24  C   UNL     1      -8.232  11.054  69.226  1.00  0.00     0.010 A  
HETATM   25  C   UNL     1     -10.558  10.802  68.641  1.00  0.00    -0.226 A  
HETATM   26  C   UNL     1     -10.582   9.596  69.361  1.00  0.00    -0.243 A  
HETATM   27  C   UNL     1      -9.441   9.113  69.992  1.00  0.00    -0.218 A  
BRANCH  19  28
HETATM   28  O   UNL     1     -10.527  14.295  66.311  1.00  0.00    -0.281 OA 
BRANCH  28  29
HETATM   29  C   UNL     1     -10.464  14.128  64.894  1.00  0.00    -0.438 C  
HETATM   30  C   UNL     1     -10.931  12.720  64.565  1.00  0.00    -0.370 C  
ENDBRANCH  28  29
ENDBRANCH  19  28
ENDBRANCH  15  18
ENDBRANCH  12  14
TORSDOF 4
ENDMDL
MODEL       84
REMARK 921   NORMALIZED FREE ENERGY PREDICTED BY IDOCK:   -4.93 KCAL/MOL
REMARK 922        TOTAL FREE ENERGY PREDICTED BY IDOCK:   -7.21 KCAL/MOL
REMARK 923 INTER-LIGAND FREE ENERGY PREDICTED BY IDOCK:   -6.22 KCAL/MOL
REMARK 924 INTRA-LIGAND FREE ENERGY PREDICTED BY IDOCK:   -1.00 KCAL/MOL
REMARK 927      BINDING AFFINITY PREDICTED BY RF-SCORE:    0.00 PKD
ROOT
HETATM    1  C   UNL     1     -10.144   8.170  68.464  1.00  0.00    -0.200 C  
HETATM    2  S   UNL     1      -8.928   8.660  67.176  1.00  0.00    -0.134 SA 
HETATM    3  C   UNL     1      -7.455   8.098  68.150  1.00  0.00    -0.097 C  
HETATM    4  C   UNL     1      -6.355   7.610  67.203  1.00  0.00    -0.054 C  
HETATM    5  CA  UNL     1      -8.002   7.039  69.138  1.00  0.00    -0.119 C  
HETATM    6  C   UNL     1      -6.891   9.330  68.885  1.00  0.00    -0.056 C  
HETATM    7  N   UNL     1      -9.378   7.435  69.484  1.00  0.00    -0.156 N  
HETATM    8  C   UNL     1      -8.052   5.589  68.623  1.00  0.00    -0.102 C  
HETATM    9  OXT UNL     1      -7.111   4.985  68.134  1.00  0.00    -0.060 OA 
HETATM   10  O   UNL     1      -9.249   4.984  68.837  1.00  0.00    -0.105 OA 
HETATM   11  C   UNL     1      -9.562   8.386  70.458  1.00  0.00    -0.170 C  
HETATM   12  CA  UNL     1     -10.515   9.226  69.544  1.00  0.00    -0.220 C  
HETATM   13  O   UNL     1      -9.030   8.428  71.541  1.00  0.00    -0.158 OA 
ENDROOT
BRANCH  12  14
HETATM   14  N   UNL     1     -10.181  10.633  69.190  1.00  0.00    -0.213 N  
HETATM   15  C   UNL     1     -11.073  11.528  68.636  1.00  0.00    -0.238 C  
HETATM   16  H   UNL     1      -9.230  10.957  69.369  1.00  0.00     0.000 HD 
HETATM   17  O   UNL     1     -12.238  11.235  68.403  1.00  0.00    -0.604 OA 
BRANCH  15  18
HETATM   18  C   UNL     1     -10.545  12.899  68.327  1.00  0.00    -0.259 A  
HETATM   19  C   UNL     1      -9.798  13.103  67.142  1.00  0.00    -0.235 A  
HETATM   20  C   UNL     1      -9.363  14.389  66.823  1.00  0.00    -0.285 A  
HETATM   21  C   UNL     1     -11.908  15.040  71.172  1.00  0.00    -0.382 A  
HETATM   22  C   UNL     1      -9.688  15.468  67.639  1.00  0.00    -0.212 A  
HETATM   23  C   UNL     1     -10.865  13.999  69.192  1.00  0.00    -0.235 A  
HETATM   24  C   UNL     1     -11.576  13.909  70.417  1.00  0.00    -0.177 A  
HETATM   25  C   UNL     1     -10.441  15.296  68.804  1.00  0.00    -0.237 A  
HETATM   26  C   UNL     1     -10.779  16.423  69.571  1.00  0.00    -0.325 A  
HETATM   27  C   UNL     1     -11.523  16.299  70.740  1.00  0.00    -0.327 A  
BRANCH  19  28
HETATM   28  O   UNL     1      -9.549  12.007  66.350  1.00  0.00    -0.217 OA 
BRANCH  28  29
HETATM   29  C   UNL     1     -10.526  11.661  65.368  1.00  0.00    -0.275 C  
HETATM   30  C   UNL     1      -9.818  10.945  64.230  1.00  0.00    -0.365 C  
ENDBRANCH  28  29
ENDBRANCH  19  28
ENDBRANCH  15  18
ENDBRANCH  12  14
TORSDOF 4
ENDMDL
MODEL       85
REMARK 921   NORMALIZED FREE ENERGY PREDICTED BY IDOCK:   -4.91 KCAL/MOL
REMARK 922        TOTAL FREE ENERGY PREDICTED BY IDOCK:   -7.20 KCAL/MOL
REMARK 923 INTER-LIGAND FREE ENERGY PREDICTED BY IDOCK:   -6.49 KCAL/MOL
REMARK 924 INTRA-LIGAND FREE ENERGY PREDICTED BY IDOCK:   -0.71 KCAL/MOL
REMARK 927      BINDING AFFINITY PREDICTED BY RF-SCORE:    0.00 PKD
ROOT
HETATM    1  C   UNL     1      -8.989  13.505  67.455  1.00  0.00    -0.219 C  
HETATM    2  S   UNL     1      -9.297  12.532  65.926  1.00  0.00     0.057 SA 
HETATM    3  C   UNL     1     -10.962  13.284  65.612  1.00  0.00    -0.277 C  
HETATM    4  C   UNL     1     -11.230  13.352  64.106  1.00  0.00    -0.379 C  
HETATM    5  CA  UNL     1     -10.937  14.646  66.347  1.00  0.00    -0.325 C  
HETATM    6  C   UNL     1     -12.017  12.332  66.206  1.00  0.00    -0.307 C  
HETATM    7  N   UNL     1     -10.086  14.484  67.539  1.00  0.00    -0.228 N  
HETATM    8  C   UNL     1     -10.389  15.842  65.547  1.00  0.00    -0.400 C  
HETATM    9  OXT UNL     1     -10.778  16.183  64.441  1.00  0.00    -0.487 OA 
HETATM   10  O   UNL     1      -9.462  16.564  66.226  1.00  0.00    -0.274 OA 
HETATM   11  C   UNL     1     -10.637  13.926  68.667  1.00  0.00    -0.257 C  
HETATM   12  CA  UNL     1      -9.466  12.896  68.804  1.00  0.00     0.120 C  
HETATM   13  O   UNL     1     -11.695  14.210  69.175  1.00  0.00    -0.283 OA 
ENDROOT
BRANCH  12  14
HETATM   14  N   UNL     1      -9.735  11.432  68.775  1.00  0.00    -0.321 N  
HETATM   15  C   UNL     1      -8.918  10.480  69.349  1.00  0.00    -0.093 C  
HETATM   16  H   UNL     1     -10.579  11.112  68.300  1.00  0.00     0.000 HD 
HETATM   17  O   UNL     1      -7.895  10.771  69.955  1.00  0.00     0.012 OA 
BRANCH  15  18
HETATM   18  C   UNL     1      -9.345   9.049  69.197  1.00  0.00    -0.148 A  
HETATM   19  C   UNL     1      -8.573   8.178  68.390  1.00  0.00    -0.130 A  
HETATM   20  C   UNL     1      -8.932   6.834  68.301  1.00  0.00    -0.123 A  
HETATM   21  C   UNL     1     -12.390   8.781  71.474  1.00  0.00    -0.380 A  
HETATM   22  C   UNL     1     -10.015   6.342  69.024  1.00  0.00    -0.175 A  
HETATM   23  C   UNL     1     -10.479   8.560  69.927  1.00  0.00    -0.219 A  
HETATM   24  C   UNL     1     -11.342   9.344  70.738  1.00  0.00    -0.363 A  
HETATM   25  C   UNL     1     -10.780   7.177  69.843  1.00  0.00    -0.258 A  
HETATM   26  C   UNL     1     -11.836   6.623  70.586  1.00  0.00    -0.443 A  
HETATM   27  C   UNL     1     -12.627   7.417  71.410  1.00  0.00    -0.405 A  
BRANCH  19  28
HETATM   28  O   UNL     1      -7.486   8.710  67.738  1.00  0.00    -0.094 OA 
BRANCH  28  29
HETATM   29  C   UNL     1      -6.304   7.914  67.657  1.00  0.00    -0.052 C  
HETATM   30  C   UNL     1      -5.765   8.011  66.240  1.00  0.00    -0.040 C  
ENDBRANCH  28  29
ENDBRANCH  19  28
ENDBRANCH  15  18
ENDBRANCH  12  14
TORSDOF 4
ENDMDL
MODEL       86
REMARK 921   NORMALIZED FREE ENERGY PREDICTED BY IDOCK:   -4.91 KCAL/MOL
REMARK 922        TOTAL FREE ENERGY PREDICTED BY IDOCK:   -7.20 KCAL/MOL
REMARK 923 INTER-LIGAND FREE ENERGY PREDICTED BY IDOCK:   -6.31 KCAL/MOL
REMARK 924 INTRA-LIGAND FREE ENERGY PREDICTED BY IDOCK:   -0.89 KCAL/MOL
REMARK 927      BINDING AFFINITY PREDICTED BY RF-SCORE:    0.00 PKD
ROOT
HETATM    1  C   UNL     1     -10.379  16.630  66.000  1.00  0.00    -0.340 C  
HETATM    2  S   UNL     1     -11.306  16.206  67.528  1.00  0.00     0.108 SA 
HETATM    3  C   UNL     1     -10.072  16.990  68.667  1.00  0.00    -0.303 C  
HETATM    4  C   UNL     1     -10.780  17.543  69.906  1.00  0.00     0.688 C  
HETATM    5  CA  UNL     1      -9.330  18.037  67.800  1.00  0.00    -0.263 C  
HETATM    6  C   UNL     1      -9.125  15.878  69.157  1.00  0.00    -0.255 C  
HETATM    7  N   UNL     1      -9.276  17.508  66.426  1.00  0.00    -0.263 N  
HETATM    8  C   UNL     1      -9.964  19.438  67.733  1.00  0.00    -0.379 C  
HETATM    9  OXT UNL     1     -10.273  20.116  68.700  1.00  0.00    -0.403 OA 
HETATM   10  O   UNL     1     -10.083  19.914  66.467  1.00  0.00    -0.417 OA 
HETATM   11  C   UNL     1      -8.293  16.603  66.110  1.00  0.00    -0.270 C  
HETATM   12  CA  UNL     1      -9.327  15.605  65.488  1.00  0.00    -0.037 C  
HETATM   13  O   UNL     1      -7.117  16.686  66.371  1.00  0.00    -0.218 OA 
ENDROOT
BRANCH  12  14
HETATM   14  N   UNL     1      -9.473  14.227  66.031  1.00  0.00    -0.499 N  
HETATM   15  C   UNL     1     -10.516  13.378  65.725  1.00  0.00    -0.290 C  
HETATM   16  H   UNL     1      -8.755  13.888  66.672  1.00  0.00     0.000 HD 
HETATM   17  O   UNL     1     -11.414  13.690  64.954  1.00  0.00    -0.320 OA 
BRANCH  15  18
HETATM   18  C   UNL     1     -10.503  12.031  66.389  1.00  0.00    -0.267 A  
HETATM   19  C   UNL     1     -11.137  11.873  67.646  1.00  0.00    -0.257 A  
HETATM   20  C   UNL     1     -11.180  10.609  68.233  1.00  0.00    -0.362 A  
HETATM   21  C   UNL     1      -8.751   9.799  63.844  1.00  0.00    -0.236 A  
HETATM   22  C   UNL     1     -10.642   9.506  67.577  1.00  0.00    -0.338 A  
HETATM   23  C   UNL     1      -9.920  10.907  65.714  1.00  0.00    -0.299 A  
HETATM   24  C   UNL     1      -9.234  10.952  64.472  1.00  0.00    -0.226 A  
HETATM   25  C   UNL     1     -10.029   9.632  66.327  1.00  0.00    -0.335 A  
HETATM   26  C   UNL     1      -9.539   8.482  65.687  1.00  0.00     0.041 A  
HETATM   27  C   UNL     1      -8.918   8.561  64.445  1.00  0.00     0.320 A  
BRANCH  19  28
HETATM   28  O   UNL     1     -11.693  12.989  68.223  1.00  0.00    -0.314 OA 
BRANCH  28  29
HETATM   29  C   UNL     1     -11.570  13.137  69.639  1.00  0.00    -0.253 C  
HETATM   30  C   UNL     1     -12.628  14.123  70.104  1.00  0.00    -0.325 C  
ENDBRANCH  28  29
ENDBRANCH  19  28
ENDBRANCH  15  18
ENDBRANCH  12  14
TORSDOF 4
ENDMDL
MODEL       87
REMARK 921   NORMALIZED FREE ENERGY PREDICTED BY IDOCK:   -4.88 KCAL/MOL
REMARK 922        TOTAL FREE ENERGY PREDICTED BY IDOCK:   -7.16 KCAL/MOL
REMARK 923 INTER-LIGAND FREE ENERGY PREDICTED BY IDOCK:   -6.08 KCAL/MOL
REMARK 924 INTRA-LIGAND FREE ENERGY PREDICTED BY IDOCK:   -1.08 KCAL/MOL
REMARK 927      BINDING AFFINITY PREDICTED BY RF-SCORE:    0.00 PKD
ROOT
HETATM    1  C   UNL     1      -9.456   8.500  67.623  1.00  0.00    -0.145 C  
HETATM    2  S   UNL     1      -7.962   9.176  66.795  1.00  0.00    -0.104 SA 
HETATM    3  C   UNL     1      -6.956   9.247  68.350  1.00  0.00    -0.067 C  
HETATM    4  C   UNL     1      -5.478   9.014  68.030  1.00  0.00    -0.035 C  
HETATM    5  CA  UNL     1      -7.605   8.210  69.300  1.00  0.00    -0.095 C  
HETATM    6  C   UNL     1      -7.068  10.680  68.906  1.00  0.00    -0.078 C  
HETATM    7  N   UNL     1      -9.048   8.188  69.004  1.00  0.00    -0.148 N  
HETATM    8  C   UNL     1      -7.087   6.765  69.185  1.00  0.00    -0.088 C  
HETATM    9  OXT UNL     1      -5.914   6.433  69.246  1.00  0.00    -0.020 OA 
HETATM   10  O   UNL     1      -8.080   5.844  69.087  1.00  0.00    -0.103 OA 
HETATM   11  C   UNL     1      -9.848   9.151  69.568  1.00  0.00    -0.178 C  
HETATM   12  CA  UNL     1     -10.489   9.516  68.188  1.00  0.00    -0.223 C  
HETATM   13  O   UNL     1      -9.854   9.504  70.723  1.00  0.00    -0.272 OA 
ENDROOT
BRANCH  12  14
HETATM   14  N   UNL     1     -10.380  10.896  67.640  1.00  0.00    -0.189 N  
HETATM   15  C   UNL     1     -11.387  11.837  67.699  1.00  0.00    -0.302 C  
HETATM   16  H   UNL     1      -9.503  11.163  67.192  1.00  0.00     0.000 HD 
HETATM   17  O   UNL     1     -12.465  11.613  68.232  1.00  0.00    -0.251 OA 
BRANCH  15  18
HETATM   18  C   UNL     1     -11.097  13.170  67.072  1.00  0.00    -0.305 A  
HETATM   19  C   UNL     1     -11.067  13.279  65.660  1.00  0.00    -0.282 A  
HETATM   20  C   UNL     1     -10.862  14.529  65.077  1.00  0.00    -0.425 A  
HETATM   21  C   UNL     1     -10.810  15.518  70.061  1.00  0.00    -0.330 A  
HETATM   22  C   UNL     1     -10.725  15.665  65.870  1.00  0.00    -0.336 A  
HETATM   23  C   UNL     1     -10.930  14.329  67.901  1.00  0.00    -0.278 A  
HETATM   24  C   UNL     1     -10.910  14.335  69.321  1.00  0.00    -0.241 A  
HETATM   25  C   UNL     1     -10.771  15.587  67.264  1.00  0.00    -0.308 A  
HETATM   26  C   UNL     1     -10.670  16.767  68.019  1.00  0.00    -0.355 A  
HETATM   27  C   UNL     1     -10.706  16.737  69.409  1.00  0.00    -0.300 A  
BRANCH  19  28
HETATM   28  O   UNL     1     -11.257  12.131  64.929  1.00  0.00    -0.309 OA 
BRANCH  28  29
HETATM   29  C   UNL     1     -11.071  12.206  63.515  1.00  0.00    -0.452 C  
HETATM   30  C   UNL     1     -12.423  12.012  62.850  1.00  0.00     0.137 C  
ENDBRANCH  28  29
ENDBRANCH  19  28
ENDBRANCH  15  18
ENDBRANCH  12  14
TORSDOF 4
ENDMDL
MODEL       88
REMARK 921   NORMALIZED FREE ENERGY PREDICTED BY IDOCK:   -4.87 KCAL/MOL
REMARK 922        TOTAL FREE ENERGY PREDICTED BY IDOCK:   -7.14 KCAL/MOL
REMARK 923 INTER-LIGAND FREE ENERGY PREDICTED BY IDOCK:   -5.90 KCAL/MOL
REMARK 924 INTRA-LIGAND FREE ENERGY PREDICTED BY IDOCK:   -1.24 KCAL/MOL
REMARK 927      BINDING AFFINITY PREDICTED BY RF-SCORE:    0.00 PKD
ROOT
HETATM    1  C   UNL     1     -10.513  10.248  65.785  1.00  0.00    -0.089 C  
HETATM    2  S   UNL     1     -11.060  10.963  67.387  1.00  0.00    -0.266 SA 
HETATM    3  C   UNL     1      -9.820  12.340  67.360  1.00  0.00    -0.198 C  
HETATM    4  C   UNL     1     -10.393  13.575  68.059  1.00  0.00    -0.241 C  
HETATM    5  CA  UNL     1      -9.456  12.528  65.867  1.00  0.00    -0.107 C  
HETATM    6  C   UNL     1      -8.606  11.883  68.192  1.00  0.00    -0.165 C  
HETATM    7  N   UNL     1      -9.542  11.204  65.226  1.00  0.00    -0.221 N  
HETATM    8  C   UNL     1     -10.349  13.491  65.063  1.00  0.00    -0.362 C  
HETATM    9  OXT UNL     1     -10.609  14.639  65.385  1.00  0.00    -0.323 OA 
HETATM   10  O   UNL     1     -10.777  12.970  63.885  1.00  0.00    -0.392 OA 
HETATM   11  C   UNL     1      -8.474  10.348  65.341  1.00  0.00    -0.168 C  
HETATM   12  CA  UNL     1      -9.390   9.173  65.822  1.00  0.00    -0.245 C  
HETATM   13  O   UNL     1      -7.309  10.613  65.167  1.00  0.00    -0.073 OA 
ENDROOT
BRANCH  12  14
HETATM   14  N   UNL     1      -9.171   8.535  67.150  1.00  0.00    -0.139 N  
HETATM   15  C   UNL     1      -9.964   7.533  67.670  1.00  0.00    -0.171 C  
HETATM   16  H   UNL     1      -8.385   8.861  67.712  1.00  0.00     0.000 HD 
HETATM   17  O   UNL     1     -10.918   7.067  67.062  1.00  0.00    -0.375 OA 
BRANCH  15  18
HETATM   18  C   UNL     1      -9.599   7.029  69.036  1.00  0.00    -0.141 A  
HETATM   19  C   UNL     1      -8.513   6.130  69.176  1.00  0.00    -0.119 A  
HETATM   20  C   UNL     1      -8.134   5.713  70.451  1.00  0.00    -0.105 A  
HETATM   21  C   UNL     1     -12.004   8.882  71.341  1.00  0.00    -0.374 A  
HETATM   22  C   UNL     1      -8.787   6.200  71.579  1.00  0.00    -0.135 A  
HETATM   23  C   UNL     1     -10.299   7.519  70.189  1.00  0.00    -0.217 A  
HETATM   24  C   UNL     1     -11.417   8.394  70.168  1.00  0.00     0.012 A  
HETATM   25  C   UNL     1      -9.848   7.104  71.469  1.00  0.00    -0.176 A  
HETATM   26  C   UNL     1     -10.447   7.600  72.638  1.00  0.00    -0.343 A  
HETATM   27  C   UNL     1     -11.508   8.497  72.577  1.00  0.00    -0.368 A  
BRANCH  19  28
HETATM   28  O   UNL     1      -7.875   5.720  68.030  1.00  0.00    -0.098 OA 
BRANCH  28  29
HETATM   29  C   UNL     1      -7.822   4.318  67.764  1.00  0.00    -0.083 C  
HETATM   30  C   UNL     1      -9.243   3.824  67.553  1.00  0.00    -0.216 C  
ENDBRANCH  28  29
ENDBRANCH  19  28
ENDBRANCH  15  18
ENDBRANCH  12  14
TORSDOF 4
ENDMDL
MODEL       89
REMARK 921   NORMALIZED FREE ENERGY PREDICTED BY IDOCK:   -4.85 KCAL/MOL
REMARK 922        TOTAL FREE ENERGY PREDICTED BY IDOCK:   -7.12 KCAL/MOL
REMARK 923 INTER-LIGAND FREE ENERGY PREDICTED BY IDOCK:   -6.06 KCAL/MOL
REMARK 924 INTRA-LIGAND FREE ENERGY PREDICTED BY IDOCK:   -1.06 KCAL/MOL
REMARK 927      BINDING AFFINITY PREDICTED BY RF-SCORE:    0.00 PKD
ROOT
HETATM    1  C   UNL     1      -7.118  10.763  68.138  1.00  0.00    -0.078 C  
HETATM    2  S   UNL     1      -8.924  10.683  68.464  1.00  0.00    -0.163 SA 
HETATM    3  C   UNL     1      -9.286   9.605  67.001  1.00  0.00    -0.147 C  
HETATM    4  C   UNL     1     -10.473   8.688  67.306  1.00  0.00    -0.360 C  
HETATM    5  CA  UNL     1      -7.951   8.886  66.687  1.00  0.00    -0.103 C  
HETATM    6  C   UNL     1      -9.724  10.526  65.846  1.00  0.00    -0.270 C  
HETATM    7  N   UNL     1      -6.862   9.812  67.043  1.00  0.00    -0.082 N  
HETATM    8  C   UNL     1      -7.697   7.564  67.435  1.00  0.00    -0.117 C  
HETATM    9  OXT UNL     1      -8.468   6.618  67.468  1.00  0.00    -0.120 OA 
HETATM   10  O   UNL     1      -6.469   7.499  68.010  1.00  0.00    -0.046 OA 
HETATM   11  C   UNL     1      -6.508  10.785  66.140  1.00  0.00    -0.129 C  
HETATM   12  CA  UNL     1      -6.601  11.911  67.225  1.00  0.00    -0.141 C  
HETATM   13  O   UNL     1      -6.313  10.642  64.958  1.00  0.00    -0.084 OA 
ENDROOT
BRANCH  12  14
HETATM   14  N   UNL     1      -7.540  13.053  67.054  1.00  0.00    -0.388 N  
HETATM   15  C   UNL     1      -7.535  14.187  67.840  1.00  0.00    -0.152 C  
HETATM   16  H   UNL     1      -8.233  12.993  66.308  1.00  0.00     0.000 HD 
HETATM   17  O   UNL     1      -6.730  14.355  68.747  1.00  0.00    -0.083 OA 
BRANCH  15  18
HETATM   18  C   UNL     1      -8.576  15.224  67.529  1.00  0.00    -0.190 A  
HETATM   19  C   UNL     1      -9.932  14.957  67.837  1.00  0.00    -0.219 A  
HETATM   20  C   UNL     1     -10.889  15.945  67.608  1.00  0.00    -0.312 A  
HETATM   21  C   UNL     1      -6.542  18.150  66.175  1.00  0.00    -0.281 A  
HETATM   22  C   UNL     1     -10.516  17.192  67.118  1.00  0.00    -0.291 A  
HETATM   23  C   UNL     1      -8.180  16.497  66.998  1.00  0.00    -0.227 A  
HETATM   24  C   UNL     1      -6.860  16.863  66.624  1.00  0.00    -0.271 A  
HETATM   25  C   UNL     1      -9.181  17.487  66.825  1.00  0.00    -0.277 A  
HETATM   26  C   UNL     1      -8.849  18.774  66.373  1.00  0.00    -0.298 A  
HETATM   27  C   UNL     1      -7.534  19.111  66.065  1.00  0.00    -0.287 A  
BRANCH  19  28
HETATM   28  O   UNL     1     -10.235  13.725  68.365  1.00  0.00    -0.238 OA 
BRANCH  28  29
HETATM   29  C   UNL     1     -11.614  13.385  68.511  1.00  0.00    -0.333 C  
HETATM   30  C   UNL     1     -11.833  12.903  69.935  1.00  0.00    -0.373 C  
ENDBRANCH  28  29
ENDBRANCH  19  28
ENDBRANCH  15  18
ENDBRANCH  12  14
TORSDOF 4
ENDMDL
MODEL       90
REMARK 921   NORMALIZED FREE ENERGY PREDICTED BY IDOCK:   -4.85 KCAL/MOL
REMARK 922        TOTAL FREE ENERGY PREDICTED BY IDOCK:   -7.12 KCAL/MOL
REMARK 923 INTER-LIGAND FREE ENERGY PREDICTED BY IDOCK:   -6.55 KCAL/MOL
REMARK 924 INTRA-LIGAND FREE ENERGY PREDICTED BY IDOCK:   -0.57 KCAL/MOL
REMARK 927      BINDING AFFINITY PREDICTED BY RF-SCORE:    0.00 PKD
ROOT
HETATM    1  C   UNL     1     -10.360   5.363  70.309  1.00  0.00    -0.287 C  
HETATM    2  S   UNL     1      -8.619   5.897  70.553  1.00  0.00    -0.137 SA 
HETATM    3  C   UNL     1      -8.963   6.786  72.142  1.00  0.00    -0.133 C  
HETATM    4  C   UNL     1      -7.739   6.715  73.058  1.00  0.00    -0.095 C  
HETATM    5  CA  UNL     1     -10.252   6.135  72.700  1.00  0.00    -0.182 C  
HETATM    6  C   UNL     1      -9.175   8.274  71.801  1.00  0.00    -0.261 C  
HETATM    7  N   UNL     1     -11.073   5.730  71.545  1.00  0.00    -0.248 N  
HETATM    8  C   UNL     1     -10.058   4.892  73.588  1.00  0.00    -0.171 C  
HETATM    9  OXT UNL     1      -9.328   4.835  74.565  1.00  0.00    -0.118 OA 
HETATM   10  O   UNL     1     -10.852   3.849  73.235  1.00  0.00    -0.187 OA 
HETATM   11  C   UNL     1     -11.859   6.677  70.935  1.00  0.00    -0.377 C  
HETATM   12  CA  UNL     1     -11.302   6.314  69.517  1.00  0.00    -0.404 C  
HETATM   13  O   UNL     1     -12.594   7.468  71.475  1.00  0.00    -0.328 OA 
ENDROOT
BRANCH  12  14
HETATM   14  N   UNL     1     -10.610   7.339  68.689  1.00  0.00    -0.274 N  
HETATM   15  C   UNL     1     -10.700   7.417  67.314  1.00  0.00    -0.308 C  
HETATM   16  H   UNL     1     -10.031   8.029  69.169  1.00  0.00     0.000 HD 
HETATM   17  O   UNL     1     -11.383   6.645  66.656  1.00  0.00    -0.150 OA 
BRANCH  15  18
HETATM   18  C   UNL     1      -9.911   8.509  66.651  1.00  0.00    -0.363 A  
HETATM   19  C   UNL     1      -8.903   8.166  65.718  1.00  0.00    -0.135 A  
HETATM   20  C   UNL     1      -8.214   9.181  65.054  1.00  0.00    -0.150 A  
HETATM   21  C   UNL     1     -11.509  11.701  67.987  1.00  0.00    -0.385 A  
HETATM   22  C   UNL     1      -8.537  10.516  65.275  1.00  0.00    -0.185 A  
HETATM   23  C   UNL     1     -10.236   9.883  66.908  1.00  0.00    -0.302 A  
HETATM   24  C   UNL     1     -11.201  10.344  67.842  1.00  0.00    -0.332 A  
HETATM   25  C   UNL     1      -9.542  10.880  66.176  1.00  0.00    -0.239 A  
HETATM   26  C   UNL     1      -9.860  12.239  66.332  1.00  0.00    -0.242 A  
HETATM   27  C   UNL     1     -10.849  12.648  67.220  1.00  0.00    -0.277 A  
BRANCH  19  28
HETATM   28  O   UNL     1      -8.661   6.830  65.505  1.00  0.00    -0.147 OA 
BRANCH  28  29
HETATM   29  C   UNL     1      -7.384   6.461  64.982  1.00  0.00    -0.078 C  
HETATM   30  C   UNL     1      -6.692   5.579  66.007  1.00  0.00    -0.056 C  
ENDBRANCH  28  29
ENDBRANCH  19  28
ENDBRANCH  15  18
ENDBRANCH  12  14
TORSDOF 4
ENDMDL
MODEL       91
REMARK 921   NORMALIZED FREE ENERGY PREDICTED BY IDOCK:   -4.85 KCAL/MOL
REMARK 922        TOTAL FREE ENERGY PREDICTED BY IDOCK:   -7.12 KCAL/MOL
REMARK 923 INTER-LIGAND FREE ENERGY PREDICTED BY IDOCK:   -6.37 KCAL/MOL
REMARK 924 INTRA-LIGAND FREE ENERGY PREDICTED BY IDOCK:   -0.75 KCAL/MOL
REMARK 927      BINDING AFFINITY PREDICTED BY RF-SCORE:    0.00 PKD
ROOT
HETATM    1  C   UNL     1      -8.242   6.374  67.095  1.00  0.00    -0.113 C  
HETATM    2  S   UNL     1      -8.281   6.815  68.878  1.00  0.00    -0.121 SA 
HETATM    3  C   UNL     1      -9.429   5.436  69.341  1.00  0.00    -0.133 C  
HETATM    4  C   UNL     1      -9.129   4.960  70.765  1.00  0.00    -0.181 C  
HETATM    5  CA  UNL     1      -9.252   4.372  68.231  1.00  0.00    -0.137 C  
HETATM    6  C   UNL     1     -10.858   6.013  69.359  1.00  0.00    -0.433 C  
HETATM    7  N   UNL     1      -8.954   5.090  66.980  1.00  0.00    -0.112 N  
HETATM    8  C   UNL     1      -8.132   3.338  68.450  1.00  0.00    -0.068 C  
HETATM    9  OXT UNL     1      -7.995   2.654  69.451  1.00  0.00    -0.042 OA 
HETATM   10  O   UNL     1      -7.324   3.184  67.370  1.00  0.00    -0.057 OA 
HETATM   11  C   UNL     1      -9.999   5.615  66.260  1.00  0.00    -0.115 C  
HETATM   12  CA  UNL     1      -9.312   7.019  66.170  1.00  0.00    -0.040 C  
HETATM   13  O   UNL     1     -11.031   5.060  65.967  1.00  0.00    -0.243 OA 
ENDROOT
BRANCH  12  14
HETATM   14  N   UNL     1      -9.980   8.228  66.725  1.00  0.00    -0.261 N  
HETATM   15  C   UNL     1      -9.378   9.465  66.840  1.00  0.00    -0.147 C  
HETATM   16  H   UNL     1     -10.945   8.136  67.043  1.00  0.00     0.000 HD 
HETATM   17  O   UNL     1      -8.231   9.674  66.470  1.00  0.00    -0.118 OA 
BRANCH  15  18
HETATM   18  C   UNL     1     -10.206  10.560  67.447  1.00  0.00    -0.253 A  
HETATM   19  C   UNL     1     -10.632  10.442  68.792  1.00  0.00    -0.208 A  
HETATM   20  C   UNL     1     -11.346  11.489  69.375  1.00  0.00    -0.355 A  
HETATM   21  C   UNL     1     -10.399  13.171  64.675  1.00  0.00    -0.381 A  
HETATM   22  C   UNL     1     -11.607  12.653  68.659  1.00  0.00    -0.356 A  
HETATM   23  C   UNL     1     -10.492  11.744  66.688  1.00  0.00    -0.259 A  
HETATM   24  C   UNL     1     -10.145  11.959  65.328  1.00  0.00    -0.290 A  
HETATM   25  C   UNL     1     -11.180  12.802  67.336  1.00  0.00    -0.337 A  
HETATM   26  C   UNL     1     -11.431  14.012  66.670  1.00  0.00    -0.377 A  
HETATM   27  C   UNL     1     -11.028  14.204  65.352  1.00  0.00    -0.328 A  
BRANCH  19  28
HETATM   28  O   UNL     1     -10.303   9.290  69.465  1.00  0.00    -0.200 OA 
BRANCH  28  29
HETATM   29  C   UNL     1      -9.975   9.400  70.850  1.00  0.00    -0.283 C  
HETATM   30  C   UNL     1     -11.154   8.884  71.657  1.00  0.00    -0.420 C  
ENDBRANCH  28  29
ENDBRANCH  19  28
ENDBRANCH  15  18
ENDBRANCH  12  14
TORSDOF 4
ENDMDL
MODEL       92
REMARK 921   NORMALIZED FREE ENERGY PREDICTED BY IDOCK:   -4.84 KCAL/MOL
REMARK 922        TOTAL FREE ENERGY PREDICTED BY IDOCK:   -7.12 KCAL/MOL
REMARK 923 INTER-LIGAND FREE ENERGY PREDICTED BY IDOCK:   -6.03 KCAL/MOL
REMARK 924 INTRA-LIGAND FREE ENERGY PREDICTED BY IDOCK:   -1.08 KCAL/MOL
REMARK 927      BINDING AFFINITY PREDICTED BY RF-SCORE:    0.00 PKD
ROOT
HETATM    1  C   UNL     1     -10.585   8.799  68.663  1.00  0.00    -0.139 C  
HETATM    2  S   UNL     1      -8.788   8.694  68.296  1.00  0.00    -0.142 SA 
HETATM    3  C   UNL     1      -8.334   8.073  69.982  1.00  0.00    -0.123 C  
HETATM    4  C   UNL     1      -7.117   7.149  69.891  1.00  0.00    -0.073 C  
HETATM    5  CA  UNL     1      -9.625   7.423  70.536  1.00  0.00    -0.172 C  
HETATM    6  C   UNL     1      -7.902   9.292  70.821  1.00  0.00    -0.174 C  
HETATM    7  N   UNL     1     -10.765   8.177  69.986  1.00  0.00    -0.243 N  
HETATM    8  C   UNL     1      -9.842   5.939  70.190  1.00  0.00    -0.176 C  
HETATM    9  OXT UNL     1      -9.032   5.047  70.385  1.00  0.00    -0.118 OA 
HETATM   10  O   UNL     1     -11.083   5.675  69.706  1.00  0.00    -0.328 OA 
HETATM   11  C   UNL     1     -11.134   9.348  70.601  1.00  0.00    -0.289 C  
HETATM   12  CA  UNL     1     -11.125  10.135  69.248  1.00  0.00    -0.225 C  
HETATM   13  O   UNL     1     -11.287   9.530  71.785  1.00  0.00    -0.370 OA 
ENDROOT
BRANCH  12  14
HETATM   14  N   UNL     1     -10.233  11.311  69.059  1.00  0.00    -0.337 N  
HETATM   15  C   UNL     1     -10.220  12.104  67.930  1.00  0.00    -0.198 C  
HETATM   16  H   UNL     1      -9.589  11.547  69.815  1.00  0.00     0.000 HD 
HETATM   17  O   UNL     1     -10.967  11.908  66.981  1.00  0.00    -0.248 OA 
BRANCH  15  18
HETATM   18  C   UNL     1      -9.232  13.235  67.915  1.00  0.00    -0.213 A  
HETATM   19  C   UNL     1      -7.865  12.957  67.675  1.00  0.00    -0.168 A  
HETATM   20  C   UNL     1      -6.958  14.014  67.597  1.00  0.00    -0.198 A  
HETATM   21  C   UNL     1     -11.410  16.324  68.409  1.00  0.00    -0.312 A  
HETATM   22  C   UNL     1      -7.394  15.330  67.716  1.00  0.00    -0.181 A  
HETATM   23  C   UNL     1      -9.692  14.586  68.067  1.00  0.00    -0.218 A  
HETATM   24  C   UNL     1     -11.027  14.980  68.342  1.00  0.00    -0.266 A  
HETATM   25  C   UNL     1      -8.742  15.631  67.934  1.00  0.00    -0.166 A  
HETATM   26  C   UNL     1      -9.138  16.977  68.005  1.00  0.00    -0.237 A  
HETATM   27  C   UNL     1     -10.468  17.323  68.224  1.00  0.00    -0.385 A  
BRANCH  19  28
HETATM   28  O   UNL     1      -7.500  11.642  67.517  1.00  0.00    -0.108 OA 
BRANCH  28  29
HETATM   29  C   UNL     1      -6.187  11.370  67.026  1.00  0.00    -0.123 C  
HETATM   30  C   UNL     1      -6.319  10.714  65.663  1.00  0.00    -0.103 C  
ENDBRANCH  28  29
ENDBRANCH  19  28
ENDBRANCH  15  18
ENDBRANCH  12  14
TORSDOF 4
ENDMDL
MODEL       93
REMARK 921   NORMALIZED FREE ENERGY PREDICTED BY IDOCK:   -4.84 KCAL/MOL
REMARK 922        TOTAL FREE ENERGY PREDICTED BY IDOCK:   -7.10 KCAL/MOL
REMARK 923 INTER-LIGAND FREE ENERGY PREDICTED BY IDOCK:   -5.82 KCAL/MOL
REMARK 924 INTRA-LIGAND FREE ENERGY PREDICTED BY IDOCK:   -1.28 KCAL/MOL
REMARK 927      BINDING AFFINITY PREDICTED BY RF-SCORE:    0.00 PKD
ROOT
HETATM    1  C   UNL     1      -6.570   8.045  68.673  1.00  0.00    -0.057 C  
HETATM    2  S   UNL     1      -5.788   9.682  68.383  1.00  0.00    -0.039 SA 
HETATM    3  C   UNL     1      -6.727  10.531  69.737  1.00  0.00    -0.126 C  
HETATM    4  C   UNL     1      -5.874  11.647  70.347  1.00  0.00    -0.156 C  
HETATM    5  CA  UNL     1      -7.143   9.402  70.711  1.00  0.00    -0.114 C  
HETATM    6  C   UNL     1      -7.951  11.211  69.093  1.00  0.00    -0.046 C  
HETATM    7  N   UNL     1      -7.365   8.189  69.905  1.00  0.00    -0.064 N  
HETATM    8  C   UNL     1      -6.129   9.046  71.814  1.00  0.00    -0.075 C  
HETATM    9  OXT UNL     1      -5.624   9.844  72.587  1.00  0.00    -0.298 OA 
HETATM   10  O   UNL     1      -5.891   7.713  71.917  1.00  0.00    -0.036 OA 
HETATM   11  C   UNL     1      -8.572   8.035  69.269  1.00  0.00    -0.137 C  
HETATM   12  CA  UNL     1      -7.881   7.726  67.899  1.00  0.00    -0.127 C  
HETATM   13  O   UNL     1      -9.669   8.200  69.745  1.00  0.00    -0.171 OA 
ENDROOT
BRANCH  12  14
HETATM   14  N   UNL     1      -8.136   8.584  66.710  1.00  0.00    -0.097 N  
HETATM   15  C   UNL     1      -9.365   8.719  66.098  1.00  0.00    -0.234 C  
HETATM   16  H   UNL     1      -7.350   9.106  66.321  1.00  0.00     0.000 HD 
HETATM   17  O   UNL     1     -10.368   8.146  66.504  1.00  0.00    -0.273 OA 
BRANCH  15  18
HETATM   18  C   UNL     1      -9.421   9.615  64.894  1.00  0.00    -0.288 A  
HETATM   19  C   UNL     1      -8.709   9.250  63.726  1.00  0.00    -0.167 A  
HETATM   20  C   UNL     1      -8.813  10.048  62.587  1.00  0.00    -0.246 A  
HETATM   21  C   UNL     1     -11.825  12.378  65.951  1.00  0.00    -0.467 A  
HETATM   22  C   UNL     1      -9.635  11.171  62.583  1.00  0.00    -0.271 A  
HETATM   23  C   UNL     1     -10.252  10.785  64.912  1.00  0.00    -0.388 A  
HETATM   24  C   UNL     1     -10.982  11.264  66.031  1.00  0.00    -0.237 A  
HETATM   25  C   UNL     1     -10.363  11.541  63.717  1.00  0.00    -0.450 A  
HETATM   26  C   UNL     1     -11.212  12.658  63.650  1.00  0.00    -0.525 A  
HETATM   27  C   UNL     1     -11.953  13.066  64.754  1.00  0.00    -0.443 A  
BRANCH  19  28
HETATM   28  O   UNL     1      -7.952   8.104  63.774  1.00  0.00    -0.142 OA 
BRANCH  28  29
HETATM   29  C   UNL     1      -6.650   8.143  63.187  1.00  0.00    -0.085 C  
HETATM   30  C   UNL     1      -5.693   8.743  64.203  1.00  0.00    -0.065 C  
ENDBRANCH  28  29
ENDBRANCH  19  28
ENDBRANCH  15  18
ENDBRANCH  12  14
TORSDOF 4
ENDMDL
MODEL       94
REMARK 921   NORMALIZED FREE ENERGY PREDICTED BY IDOCK:   -4.81 KCAL/MOL
REMARK 922        TOTAL FREE ENERGY PREDICTED BY IDOCK:   -7.08 KCAL/MOL
REMARK 923 INTER-LIGAND FREE ENERGY PREDICTED BY IDOCK:   -6.01 KCAL/MOL
REMARK 924 INTRA-LIGAND FREE ENERGY PREDICTED BY IDOCK:   -1.06 KCAL/MOL
REMARK 927      BINDING AFFINITY PREDICTED BY RF-SCORE:    0.00 PKD
ROOT
HETATM    1  C   UNL     1     -11.628  11.468  67.110  1.00  0.00    -0.167 C  
HETATM    2  S   UNL     1     -10.959  12.122  68.691  1.00  0.00    -0.258 SA 
HETATM    3  C   UNL     1      -9.634  13.131  67.879  1.00  0.00    -0.218 C  
HETATM    4  C   UNL     1      -9.352  14.389  68.704  1.00  0.00    -0.188 C  
HETATM    5  CA  UNL     1     -10.140  13.379  66.437  1.00  0.00    -0.292 C  
HETATM    6  C   UNL     1      -8.341  12.293  67.895  1.00  0.00    -0.163 C  
HETATM    7  N   UNL     1     -10.927  12.199  66.041  1.00  0.00    -0.281 N  
HETATM    8  C   UNL     1     -11.029  14.619  66.231  1.00  0.00    -0.327 C  
HETATM    9  OXT UNL     1     -10.740  15.754  66.573  1.00  0.00    -0.313 OA 
HETATM   10  O   UNL     1     -12.168  14.356  65.541  1.00  0.00    -0.382 OA 
HETATM   11  C   UNL     1     -10.261  11.091  65.577  1.00  0.00    -0.268 C  
HETATM   12  CA  UNL     1     -11.022  10.144  66.564  1.00  0.00     0.133 C  
HETATM   13  O   UNL     1      -9.378  11.066  64.754  1.00  0.00    -0.211 OA 
ENDROOT
BRANCH  12  14
HETATM   14  N   UNL     1     -10.276   9.332  67.565  1.00  0.00    -0.225 N  
HETATM   15  C   UNL     1     -10.323   7.956  67.639  1.00  0.00    -0.241 C  
HETATM   16  H   UNL     1      -9.693   9.827  68.240  1.00  0.00     0.000 HD 
HETATM   17  O   UNL     1     -10.981   7.277  66.862  1.00  0.00    -0.343 OA 
BRANCH  15  18
HETATM   18  C   UNL     1      -9.518   7.315  68.733  1.00  0.00    -0.142 A  
HETATM   19  C   UNL     1      -8.112   7.220  68.593  1.00  0.00    -0.125 A  
HETATM   20  C   UNL     1      -7.358   6.684  69.636  1.00  0.00    -0.083 A  
HETATM   21  C   UNL     1     -12.119   6.508  71.399  1.00  0.00    -0.344 A  
HETATM   22  C   UNL     1      -7.972   6.278  70.817  1.00  0.00    -0.112 A  
HETATM   23  C   UNL     1     -10.167   6.876  69.935  1.00  0.00    -0.214 A  
HETATM   24  C   UNL     1     -11.566   6.892  70.172  1.00  0.00    -0.340 A  
HETATM   25  C   UNL     1      -9.355   6.379  70.987  1.00  0.00    -0.171 A  
HETATM   26  C   UNL     1      -9.923   5.996  72.214  1.00  0.00    -0.189 A  
HETATM   27  C   UNL     1     -11.295   6.076  72.426  1.00  0.00    -0.349 A  
BRANCH  19  28
HETATM   28  O   UNL     1      -7.555   7.681  67.424  1.00  0.00    -0.103 OA 
BRANCH  28  29
HETATM   29  C   UNL     1      -6.691   6.800  66.706  1.00  0.00    -0.056 C  
HETATM   30  C   UNL     1      -5.897   7.626  65.709  1.00  0.00    -0.037 C  
ENDBRANCH  28  29
ENDBRANCH  19  28
ENDBRANCH  15  18
ENDBRANCH  12  14
TORSDOF 4
ENDMDL
MODEL       95
REMARK 921   NORMALIZED FREE ENERGY PREDICTED BY IDOCK:   -4.81 KCAL/MOL
REMARK 922        TOTAL FREE ENERGY PREDICTED BY IDOCK:   -7.07 KCAL/MOL
REMARK 923 INTER-LIGAND FREE ENERGY PREDICTED BY IDOCK:   -5.90 KCAL/MOL
REMARK 924 INTRA-LIGAND FREE ENERGY PREDICTED BY IDOCK:   -1.18 KCAL/MOL
REMARK 927      BINDING AFFINITY PREDICTED BY RF-SCORE:    0.00 PKD
ROOT
HETATM    1  C   UNL     1      -7.837   5.557  69.203  1.00  0.00    -0.091 C  
HETATM    2  S   UNL     1      -9.527   5.225  68.562  1.00  0.00    -0.135 SA 
HETATM    3  C   UNL     1      -8.998   5.167  66.787  1.00  0.00    -0.113 C  
HETATM    4  C   UNL     1      -9.882   4.190  66.008  1.00  0.00    -0.206 C  
HETATM    5  CA  UNL     1      -7.490   4.819  66.824  1.00  0.00    -0.086 C  
HETATM    6  C   UNL     1      -9.248   6.564  66.187  1.00  0.00    -0.126 C  
HETATM    7  N   UNL     1      -6.932   5.420  68.048  1.00  0.00    -0.064 N  
HETATM    8  C   UNL     1      -7.138   3.320  66.843  1.00  0.00    -0.058 C  
HETATM    9  OXT UNL     1      -7.547   2.493  66.043  1.00  0.00    -0.067 OA 
HETATM   10  O   UNL     1      -6.239   2.990  67.806  1.00  0.00    -0.030 OA 
HETATM   11  C   UNL     1      -6.587   6.749  68.028  1.00  0.00    -0.059 C  
HETATM   12  CA  UNL     1      -7.396   7.043  69.336  1.00  0.00    -0.091 C  
HETATM   13  O   UNL     1      -5.948   7.320  67.178  1.00  0.00    -0.037 OA 
ENDROOT
BRANCH  12  14
HETATM   14  N   UNL     1      -8.508   8.033  69.335  1.00  0.00    -0.131 N  
HETATM   15  C   UNL     1      -8.574   9.128  70.171  1.00  0.00    -0.182 C  
HETATM   16  H   UNL     1      -9.271   7.892  68.673  1.00  0.00     0.000 HD 
HETATM   17  O   UNL     1      -7.697   9.387  70.985  1.00  0.00    -0.284 OA 
BRANCH  15  18
HETATM   18  C   UNL     1      -9.787  10.002  70.038  1.00  0.00    -0.247 A  
HETATM   19  C   UNL     1      -9.789  11.041  69.075  1.00  0.00    -0.149 A  
HETATM   20  C   UNL     1     -10.938  11.812  68.907  1.00  0.00    -0.288 A  
HETATM   21  C   UNL     1     -12.253   8.492  72.521  1.00  0.00    -0.383 A  
HETATM   22  C   UNL     1     -12.085  11.543  69.648  1.00  0.00    -0.363 A  
HETATM   23  C   UNL     1     -10.954   9.731  70.827  1.00  0.00    -0.406 A  
HETATM   24  C   UNL     1     -11.056   8.741  71.840  1.00  0.00    -0.434 A  
HETATM   25  C   UNL     1     -12.115  10.511  70.589  1.00  0.00    -0.452 A  
HETATM   26  C   UNL     1     -13.310  10.251  71.281  1.00  0.00    -0.369 A  
HETATM   27  C   UNL     1     -13.385   9.237  72.230  1.00  0.00    -0.547 A  
BRANCH  19  28
HETATM   28  O   UNL     1      -8.644  11.229  68.339  1.00  0.00    -0.143 OA 
BRANCH  28  29
HETATM   29  C   UNL     1      -8.783  11.429  66.932  1.00  0.00    -0.165 C  
HETATM   30  C   UNL     1      -9.228  10.116  66.311  1.00  0.00    -0.191 C  
ENDBRANCH  28  29
ENDBRANCH  19  28
ENDBRANCH  15  18
ENDBRANCH  12  14
TORSDOF 4
ENDMDL
MODEL       96
REMARK 921   NORMALIZED FREE ENERGY PREDICTED BY IDOCK:   -4.78 KCAL/MOL
REMARK 922        TOTAL FREE ENERGY PREDICTED BY IDOCK:   -7.04 KCAL/MOL
REMARK 923 INTER-LIGAND FREE ENERGY PREDICTED BY IDOCK:   -7.20 KCAL/MOL
REMARK 924 INTRA-LIGAND FREE ENERGY PREDICTED BY IDOCK:    0.16 KCAL/MOL
REMARK 927      BINDING AFFINITY PREDICTED BY RF-SCORE:    0.00 PKD
ROOT
HETATM    1  C   UNL     1     -10.739   7.163  70.753  1.00  0.00    -0.231 C  
HETATM    2  S   UNL     1      -9.005   6.786  70.277  1.00  0.00    -0.152 SA 
HETATM    3  C   UNL     1      -8.271   8.097  71.362  1.00  0.00    -0.120 C  
HETATM    4  C   UNL     1      -6.894   7.653  71.862  1.00  0.00    -0.062 C  
HETATM    5  CA  UNL     1      -9.330   8.351  72.463  1.00  0.00    -0.275 C  
HETATM    6  C   UNL     1      -8.043   9.345  70.487  1.00  0.00    -0.212 C  
HETATM    7  N   UNL     1     -10.654   8.139  71.853  1.00  0.00    -0.242 N  
HETATM    8  C   UNL     1      -9.245   7.454  73.710  1.00  0.00    -0.257 C  
HETATM    9  OXT UNL     1      -8.243   7.286  74.387  1.00  0.00    -0.152 OA 
HETATM   10  O   UNL     1     -10.436   6.904  74.060  1.00  0.00    -0.374 OA 
HETATM   11  C   UNL     1     -11.215   9.162  71.128  1.00  0.00    -0.325 C  
HETATM   12  CA  UNL     1     -11.505   8.222  69.910  1.00  0.00     0.181 C  
HETATM   13  O   UNL     1     -11.293  10.322  71.450  1.00  0.00    -0.218 OA 
ENDROOT
BRANCH  12  14
HETATM   14  N   UNL     1     -10.916   8.508  68.573  1.00  0.00    -0.436 N  
HETATM   15  C   UNL     1     -10.770   9.774  68.043  1.00  0.00    -0.247 C  
HETATM   16  H   UNL     1     -10.599   7.717  68.012  1.00  0.00     0.000 HD 
HETATM   17  O   UNL     1     -11.104  10.783  68.649  1.00  0.00    -0.221 OA 
BRANCH  15  18
HETATM   18  C   UNL     1     -10.173   9.861  66.668  1.00  0.00    -0.293 A  
HETATM   19  C   UNL     1      -9.218   8.896  66.265  1.00  0.00    -0.207 A  
HETATM   20  C   UNL     1      -8.711   8.940  64.967  1.00  0.00    -0.200 A  
HETATM   21  C   UNL     1     -12.004  12.807  65.087  1.00  0.00    -0.466 A  
HETATM   22  C   UNL     1      -9.164   9.895  64.062  1.00  0.00    -0.302 A  
HETATM   23  C   UNL     1     -10.630  10.868  65.753  1.00  0.00    -0.230 A  
HETATM   24  C   UNL     1     -11.556  11.901  66.055  1.00  0.00    -0.296 A  
HETATM   25  C   UNL     1     -10.122  10.845  64.429  1.00  0.00    -0.402 A  
HETATM   26  C   UNL     1     -10.578  11.761  63.467  1.00  0.00    -0.499 A  
HETATM   27  C   UNL     1     -11.527  12.727  63.789  1.00  0.00    -0.533 A  
BRANCH  19  28
HETATM   28  O   UNL     1      -8.843   7.947  67.186  1.00  0.00    -0.128 OA 
BRANCH  28  29
HETATM   29  C   UNL     1      -8.448   6.665  66.697  1.00  0.00    -0.120 C  
HETATM   30  C   UNL     1      -9.669   5.762  66.701  1.00  0.00    -0.180 C  
ENDBRANCH  28  29
ENDBRANCH  19  28
ENDBRANCH  15  18
ENDBRANCH  12  14
TORSDOF 4
ENDMDL
MODEL       97
REMARK 921   NORMALIZED FREE ENERGY PREDICTED BY IDOCK:   -4.77 KCAL/MOL
REMARK 922        TOTAL FREE ENERGY PREDICTED BY IDOCK:   -7.03 KCAL/MOL
REMARK 923 INTER-LIGAND FREE ENERGY PREDICTED BY IDOCK:   -5.96 KCAL/MOL
REMARK 924 INTRA-LIGAND FREE ENERGY PREDICTED BY IDOCK:   -1.07 KCAL/MOL
REMARK 927      BINDING AFFINITY PREDICTED BY RF-SCORE:    0.00 PKD
ROOT
HETATM    1  C   UNL     1      -7.526  11.620  68.660  1.00  0.00    -0.117 C  
HETATM    2  S   UNL     1      -9.319  11.664  68.264  1.00  0.00    -0.190 SA 
HETATM    3  C   UNL     1      -9.155  10.622  66.740  1.00  0.00    -0.152 C  
HETATM    4  C   UNL     1     -10.422   9.788  66.536  1.00  0.00    -0.212 C  
HETATM    5  CA  UNL     1      -7.850   9.813  66.941  1.00  0.00    -0.102 C  
HETATM    6  C   UNL     1      -9.057  11.578  65.536  1.00  0.00    -0.101 C  
HETATM    7  N   UNL     1      -6.927  10.659  67.717  1.00  0.00    -0.077 N  
HETATM    8  C   UNL     1      -7.987   8.473  67.686  1.00  0.00    -0.107 C  
HETATM    9  OXT UNL     1      -8.767   7.582  67.390  1.00  0.00    -0.124 OA 
HETATM   10  O   UNL     1      -7.082   8.319  68.686  1.00  0.00    -0.069 OA 
HETATM   11  C   UNL     1      -6.192  11.611  67.052  1.00  0.00    -0.144 C  
HETATM   12  CA  UNL     1      -6.626  12.734  68.053  1.00  0.00    -0.101 C  
HETATM   13  O   UNL     1      -5.566  11.461  66.031  1.00  0.00    -0.204 OA 
ENDROOT
BRANCH  12  14
HETATM   14  N   UNL     1      -7.355  13.940  67.571  1.00  0.00    -0.209 N  
HETATM   15  C   UNL     1      -7.796  14.959  68.390  1.00  0.00    -0.121 C  
HETATM   16  H   UNL     1      -7.540  14.017  66.571  1.00  0.00     0.000 HD 
HETATM   17  O   UNL     1      -7.604  14.961  69.598  1.00  0.00    -0.174 OA 
BRANCH  15  18
HETATM   18  C   UNL     1      -8.532  16.084  67.723  1.00  0.00    -0.168 A  
HETATM   19  C   UNL     1      -9.805  15.838  67.153  1.00  0.00    -0.226 A  
HETATM   20  C   UNL     1     -10.517  16.896  66.590  1.00  0.00    -0.257 A  
HETATM   21  C   UNL     1      -6.261  19.093  68.287  1.00  0.00    -0.242 A  
HETATM   22  C   UNL     1     -10.002  18.189  66.620  1.00  0.00    -0.363 A  
HETATM   23  C   UNL     1      -7.978  17.408  67.736  1.00  0.00    -0.208 A  
HETATM   24  C   UNL     1      -6.704  17.766  68.249  1.00  0.00    -0.206 A  
HETATM   25  C   UNL     1      -8.758  18.462  67.194  1.00  0.00    -0.260 A  
HETATM   26  C   UNL     1      -8.302  19.790  67.238  1.00  0.00    -0.351 A  
HETATM   27  C   UNL     1      -7.068  20.108  67.796  1.00  0.00    -0.330 A  
BRANCH  19  28
HETATM   28  O   UNL     1     -10.283  14.549  67.196  1.00  0.00    -0.256 OA 
BRANCH  28  29
HETATM   29  C   UNL     1     -11.693  14.368  67.328  1.00  0.00    -0.404 C  
HETATM   30  C   UNL     1     -12.160  13.462  66.202  1.00  0.00    -0.481 C  
ENDBRANCH  28  29
ENDBRANCH  19  28
ENDBRANCH  15  18
ENDBRANCH  12  14
TORSDOF 4
ENDMDL
MODEL       98
REMARK 921   NORMALIZED FREE ENERGY PREDICTED BY IDOCK:   -4.77 KCAL/MOL
REMARK 922        TOTAL FREE ENERGY PREDICTED BY IDOCK:   -7.02 KCAL/MOL
REMARK 923 INTER-LIGAND FREE ENERGY PREDICTED BY IDOCK:   -5.83 KCAL/MOL
REMARK 924 INTRA-LIGAND FREE ENERGY PREDICTED BY IDOCK:   -1.19 KCAL/MOL
REMARK 927      BINDING AFFINITY PREDICTED BY RF-SCORE:    0.00 PKD
ROOT
HETATM    1  C   UNL     1      -7.108   8.199  67.085  1.00  0.00    -0.079 C  
HETATM    2  S   UNL     1      -8.709   8.096  66.190  1.00  0.00    -0.163 SA 
HETATM    3  C   UNL     1      -8.696   9.874  65.669  1.00  0.00    -0.151 C  
HETATM    4  C   UNL     1      -9.398  10.029  64.317  1.00  0.00    -0.345 C  
HETATM    5  CA  UNL     1      -7.206  10.294  65.698  1.00  0.00    -0.148 C  
HETATM    6  C   UNL     1      -9.533  10.662  66.695  1.00  0.00    -0.195 C  
HETATM    7  N   UNL     1      -6.558   9.531  66.779  1.00  0.00    -0.067 N  
HETATM    8  C   UNL     1      -6.403  10.045  64.409  1.00  0.00    -0.131 C  
HETATM    9  OXT UNL     1      -6.728  10.423  63.295  1.00  0.00    -0.130 OA 
HETATM   10  O   UNL     1      -5.219   9.416  64.626  1.00  0.00    -0.048 OA 
HETATM   11  C   UNL     1      -6.676   9.990  68.068  1.00  0.00    -0.064 C  
HETATM   12  CA  UNL     1      -7.146   8.591  68.589  1.00  0.00    -0.072 C  
HETATM   13  O   UNL     1      -6.510  11.122  68.454  1.00  0.00    -0.055 OA 
ENDROOT
BRANCH  12  14
HETATM   14  N   UNL     1      -8.472   8.432  69.248  1.00  0.00    -0.124 N  
HETATM   15  C   UNL     1      -8.765   8.878  70.520  1.00  0.00    -0.186 C  
HETATM   16  H   UNL     1      -9.211   7.963  68.725  1.00  0.00     0.000 HD 
HETATM   17  O   UNL     1      -7.948   9.466  71.215  1.00  0.00    -0.328 OA 
BRANCH  15  18
HETATM   18  C   UNL     1     -10.154   8.607  71.023  1.00  0.00    -0.273 A  
HETATM   19  C   UNL     1     -11.183   9.540  70.752  1.00  0.00    -0.317 A  
HETATM   20  C   UNL     1     -12.485   9.258  71.163  1.00  0.00    -0.341 A  
HETATM   21  C   UNL     1      -9.854   5.176  72.658  1.00  0.00    -0.193 A  
HETATM   22  C   UNL     1     -12.781   8.056  71.800  1.00  0.00    -0.352 A  
HETATM   23  C   UNL     1     -10.440   7.375  71.702  1.00  0.00    -0.219 A  
HETATM   24  C   UNL     1      -9.486   6.384  72.055  1.00  0.00    -0.154 A  
HETATM   25  C   UNL     1     -11.786   7.110  72.061  1.00  0.00    -0.333 A  
HETATM   26  C   UNL     1     -12.142   5.894  72.667  1.00  0.00    -0.046 A  
HETATM   27  C   UNL     1     -11.186   4.924  72.950  1.00  0.00    -0.318 A  
BRANCH  19  28
HETATM   28  O   UNL     1     -10.841  10.688  70.077  1.00  0.00    -0.274 OA 
BRANCH  28  29
HETATM   29  C   UNL     1     -11.892  11.446  69.479  1.00  0.00    -0.357 C  
HETATM   30  C   UNL     1     -11.928  12.811  70.146  1.00  0.00    -0.371 C  
ENDBRANCH  28  29
ENDBRANCH  19  28
ENDBRANCH  15  18
ENDBRANCH  12  14
TORSDOF 4
ENDMDL
MODEL       99
REMARK 921   NORMALIZED FREE ENERGY PREDICTED BY IDOCK:   -4.77 KCAL/MOL
REMARK 922        TOTAL FREE ENERGY PREDICTED BY IDOCK:   -7.02 KCAL/MOL
REMARK 923 INTER-LIGAND FREE ENERGY PREDICTED BY IDOCK:   -5.91 KCAL/MOL
REMARK 924 INTRA-LIGAND FREE ENERGY PREDICTED BY IDOCK:   -1.11 KCAL/MOL
REMARK 927      BINDING AFFINITY PREDICTED BY RF-SCORE:    0.00 PKD
ROOT
HETATM    1  C   UNL     1      -8.978  11.824  67.881  1.00  0.00    -0.180 C  
HETATM    2  S   UNL     1      -8.016  10.849  66.658  1.00  0.00    -0.153 SA 
HETATM    3  C   UNL     1      -9.441  10.634  65.493  1.00  0.00    -0.214 C  
HETATM    4  C   UNL     1      -8.934  10.570  64.050  1.00  0.00    -0.235 C  
HETATM    5  CA  UNL     1     -10.403  11.805  65.810  1.00  0.00    -0.253 C  
HETATM    6  C   UNL     1     -10.083   9.267  65.797  1.00  0.00    -0.092 C  
HETATM    7  N   UNL     1     -10.281  12.093  67.249  1.00  0.00    -0.201 N  
HETATM    8  C   UNL     1     -10.149  13.120  65.051  1.00  0.00    -0.222 C  
HETATM    9  OXT UNL     1     -10.051  13.223  63.838  1.00  0.00    -0.274 OA 
HETATM   10  O   UNL     1     -10.121  14.211  65.859  1.00  0.00    -0.297 OA 
HETATM   11  C   UNL     1     -10.989  11.319  68.136  1.00  0.00    -0.231 C  
HETATM   12  CA  UNL     1      -9.717  11.043  69.005  1.00  0.00    -0.134 C  
HETATM   13  O   UNL     1     -12.154  11.010  68.060  1.00  0.00    -0.615 OA 
ENDROOT
BRANCH  12  14
HETATM   14  N   UNL     1      -9.236   9.651  69.225  1.00  0.00    -0.172 N  
HETATM   15  C   UNL     1      -9.998   8.645  69.782  1.00  0.00    -0.190 C  
HETATM   16  H   UNL     1      -8.281   9.427  68.947  1.00  0.00     0.000 HD 
HETATM   17  O   UNL     1     -11.159   8.815  70.130  1.00  0.00    -0.251 OA 
BRANCH  15  18
HETATM   18  C   UNL     1      -9.332   7.309  69.944  1.00  0.00    -0.154 A  
HETATM   19  C   UNL     1      -8.545   7.063  71.096  1.00  0.00    -0.133 A  
HETATM   20  C   UNL     1      -7.979   5.802  71.278  1.00  0.00    -0.113 A  
HETATM   21  C   UNL     1     -10.534   5.338  66.911  1.00  0.00    -0.313 A  
HETATM   22  C   UNL     1      -8.212   4.783  70.360  1.00  0.00    -0.083 A  
HETATM   23  C   UNL     1      -9.559   6.274  68.976  1.00  0.00    -0.138 A  
HETATM   24  C   UNL     1     -10.300   6.415  67.773  1.00  0.00    -0.238 A  
HETATM   25  C   UNL     1      -9.002   4.994  69.226  1.00  0.00    -0.127 A  
HETATM   26  C   UNL     1      -9.243   3.922  68.352  1.00  0.00    -0.210 A  
HETATM   27  C   UNL     1     -10.018   4.087  67.209  1.00  0.00    -0.025 A  
BRANCH  19  28
HETATM   28  O   UNL     1      -8.389   8.094  71.992  1.00  0.00    -0.126 OA 
BRANCH  28  29
HETATM   29  C   UNL     1      -9.123   8.027  73.215  1.00  0.00    -0.282 C  
HETATM   30  C   UNL     1      -8.155   8.272  74.360  1.00  0.00    -0.259 C  
ENDBRANCH  28  29
ENDBRANCH  19  28
ENDBRANCH  15  18
ENDBRANCH  12  14
TORSDOF 4
ENDMDL
MODEL      100
REMARK 921   NORMALIZED FREE ENERGY PREDICTED BY IDOCK:   -4.69 KCAL/MOL
REMARK 922        TOTAL FREE ENERGY PREDICTED BY IDOCK:   -6.93 KCAL/MOL
REMARK 923 INTER-LIGAND FREE ENERGY PREDICTED BY IDOCK:   -5.85 KCAL/MOL
REMARK 924 INTRA-LIGAND FREE ENERGY PREDICTED BY IDOCK:   -1.08 KCAL/MOL
REMARK 927      BINDING AFFINITY PREDICTED BY RF-SCORE:    0.00 PKD
ROOT
HETATM    1  C   UNL     1      -9.813   5.879  70.360  1.00  0.00    -0.182 C  
HETATM    2  S   UNL     1      -8.361   6.542  71.270  1.00  0.00    -0.126 SA 
HETATM    3  C   UNL     1      -9.330   6.977  72.789  1.00  0.00    -0.135 C  
HETATM    4  C   UNL     1      -8.448   6.835  74.031  1.00  0.00    -0.155 C  
HETATM    5  CA  UNL     1     -10.578   6.062  72.749  1.00  0.00    -0.225 C  
HETATM    6  C   UNL     1      -9.708   8.467  72.683  1.00  0.00    -0.332 C  
HETATM    7  N   UNL     1     -10.921   5.852  71.331  1.00  0.00    -0.272 N  
HETATM    8  C   UNL     1     -10.428   4.675  73.400  1.00  0.00    -0.207 C  
HETATM    9  OXT UNL     1     -10.029   4.473  74.535  1.00  0.00    -0.160 OA 
HETATM   10  O   UNL     1     -10.865   3.661  72.611  1.00  0.00    -0.069 OA 
HETATM   11  C   UNL     1     -11.652   6.817  70.682  1.00  0.00    -0.370 C  
HETATM   12  CA  UNL     1     -10.636   6.873  69.493  1.00  0.00    -0.236 C  
HETATM   13  O   UNL     1     -12.652   7.362  71.083  1.00  0.00    -0.335 OA 
ENDROOT
BRANCH  12  14
HETATM   14  N   UNL     1      -9.935   8.142  69.153  1.00  0.00    -0.187 N  
HETATM   15  C   UNL     1     -10.041   8.787  67.938  1.00  0.00    -0.207 C  
HETATM   16  H   UNL     1      -9.337   8.562  69.865  1.00  0.00     0.000 HD 
HETATM   17  O   UNL     1     -10.747   8.368  67.031  1.00  0.00    -0.289 OA 
BRANCH  15  18
HETATM   18  C   UNL     1      -9.240  10.046  67.774  1.00  0.00    -0.143 A  
HETATM   19  C   UNL     1      -7.861   9.954  67.462  1.00  0.00    -0.098 A  
HETATM   20  C   UNL     1      -7.132  11.123  67.247  1.00  0.00    -0.109 A  
HETATM   21  C   UNL     1     -11.830  12.811  68.189  1.00  0.00    -0.372 A  
HETATM   22  C   UNL     1      -7.756  12.366  67.300  1.00  0.00    -0.158 A  
HETATM   23  C   UNL     1      -9.890  11.323  67.858  1.00  0.00    -0.187 A  
HETATM   24  C   UNL     1     -11.252  11.537  68.194  1.00  0.00    -0.335 A  
HETATM   25  C   UNL     1      -9.119  12.482  67.586  1.00  0.00    -0.187 A  
HETATM   26  C   UNL     1      -9.711  13.756  67.586  1.00  0.00    -0.227 A  
HETATM   27  C   UNL     1     -11.063  13.920  67.869  1.00  0.00    -0.278 A  
BRANCH  19  28
HETATM   28  O   UNL     1      -7.311   8.698  67.375  1.00  0.00    -0.086 OA 
BRANCH  28  29
HETATM   29  C   UNL     1      -6.812   8.277  66.105  1.00  0.00    -0.058 C  
HETATM   30  C   UNL     1      -7.965   7.673  65.322  1.00  0.00    -0.129 C  
ENDBRANCH  28  29
ENDBRANCH  19  28
ENDBRANCH  15  18
ENDBRANCH  12  14
TORSDOF 4
ENDMDL
MODEL      101
REMARK 921   NORMALIZED FREE ENERGY PREDICTED BY IDOCK:   -4.68 KCAL/MOL
REMARK 922        TOTAL FREE ENERGY PREDICTED BY IDOCK:   -6.91 KCAL/MOL
REMARK 923 INTER-LIGAND FREE ENERGY PREDICTED BY IDOCK:   -5.75 KCAL/MOL
REMARK 924 INTRA-LIGAND FREE ENERGY PREDICTED BY IDOCK:   -1.17 KCAL/MOL
REMARK 927      BINDING AFFINITY PREDICTED BY RF-SCORE:    0.00 PKD
ROOT
HETATM    1  C   UNL     1      -9.601   9.709  66.612  1.00  0.00    -0.187 C  
HETATM    2  S   UNL     1      -8.398  10.531  67.732  1.00  0.00    -0.111 SA 
HETATM    3  C   UNL     1      -6.937   9.592  67.085  1.00  0.00    -0.085 C  
HETATM    4  C   UNL     1      -5.679  10.460  67.165  1.00  0.00    -0.045 C  
HETATM    5  CA  UNL     1      -7.344   9.138  65.662  1.00  0.00    -0.086 C  
HETATM    6  C   UNL     1      -6.708   8.392  68.025  1.00  0.00    -0.065 C  
HETATM    7  N   UNL     1      -8.798   8.901  65.678  1.00  0.00    -0.180 N  
HETATM    8  C   UNL     1      -7.049  10.128  64.521  1.00  0.00    -0.119 C  
HETATM    9  OXT UNL     1      -5.963  10.639  64.299  1.00  0.00    -0.092 OA 
HETATM   10  O   UNL     1      -8.111  10.335  63.700  1.00  0.00    -0.159 OA 
HETATM   11  C   UNL     1      -9.262   7.699  66.155  1.00  0.00    -0.116 C  
HETATM   12  CA  UNL     1     -10.279   8.403  67.116  1.00  0.00    -0.292 C  
HETATM   13  O   UNL     1      -8.853   6.600  65.873  1.00  0.00    -0.154 OA 
ENDROOT
BRANCH  12  14
HETATM   14  N   UNL     1     -10.209   8.184  68.587  1.00  0.00    -0.204 N  
HETATM   15  C   UNL     1     -10.789   7.117  69.242  1.00  0.00    -0.183 C  
HETATM   16  H   UNL     1      -9.699   8.868  69.147  1.00  0.00     0.000 HD 
HETATM   17  O   UNL     1     -11.404   6.240  68.652  1.00  0.00    -0.337 OA 
BRANCH  15  18
HETATM   18  C   UNL     1     -10.629   7.079  70.735  1.00  0.00    -0.240 A  
HETATM   19  C   UNL     1     -11.377   7.976  71.535  1.00  0.00    -0.259 A  
HETATM   20  C   UNL     1     -11.277   7.897  72.923  1.00  0.00    -0.429 A  
HETATM   21  C   UNL     1      -8.221   4.178  71.298  1.00  0.00    -0.079 A  
HETATM   22  C   UNL     1     -10.481   6.924  73.521  1.00  0.00    -0.382 A  
HETATM   23  C   UNL     1      -9.784   6.088  71.337  1.00  0.00    -0.189 A  
HETATM   24  C   UNL     1      -8.967   5.161  70.638  1.00  0.00    -0.162 A  
HETATM   25  C   UNL     1      -9.749   6.014  72.753  1.00  0.00    -0.164 A  
HETATM   26  C   UNL     1      -8.995   5.024  73.404  1.00  0.00    -0.119 A  
HETATM   27  C   UNL     1      -8.247   4.099  72.681  1.00  0.00    -0.096 A  
BRANCH  19  28
HETATM   28  O   UNL     1     -12.183   8.884  70.890  1.00  0.00    -0.252 OA 
BRANCH  28  29
HETATM   29  C   UNL     1     -13.176   9.558  71.663  1.00  0.00    -0.406 C  
HETATM   30  C   UNL     1     -12.918  11.052  71.564  1.00  0.00    -0.553 C  
ENDBRANCH  28  29
ENDBRANCH  19  28
ENDBRANCH  15  18
ENDBRANCH  12  14
TORSDOF 4
ENDMDL
MODEL      102
REMARK 921   NORMALIZED FREE ENERGY PREDICTED BY IDOCK:   -4.66 KCAL/MOL
REMARK 922        TOTAL FREE ENERGY PREDICTED BY IDOCK:   -6.89 KCAL/MOL
REMARK 923 INTER-LIGAND FREE ENERGY PREDICTED BY IDOCK:   -5.83 KCAL/MOL
REMARK 924 INTRA-LIGAND FREE ENERGY PREDICTED BY IDOCK:   -1.06 KCAL/MOL
REMARK 927      BINDING AFFINITY PREDICTED BY RF-SCORE:    0.00 PKD
ROOT
HETATM    1  C   UNL     1      -8.774   8.502  71.680  1.00  0.00    -0.199 C  
HETATM    2  S   UNL     1     -10.598   8.649  71.518  1.00  0.00    -0.310 SA 
HETATM    3  C   UNL     1     -10.879   6.821  71.399  1.00  0.00    -0.236 C  
HETATM    4  C   UNL     1     -12.233   6.458  72.013  1.00  0.00    -0.320 C  
HETATM    5  CA  UNL     1      -9.645   6.177  72.076  1.00  0.00    -0.152 C  
HETATM    6  C   UNL     1     -10.962   6.464  69.902  1.00  0.00    -0.410 C  
HETATM    7  N   UNL     1      -8.495   7.063  71.824  1.00  0.00    -0.114 N  
HETATM    8  C   UNL     1      -9.738   5.961  73.597  1.00  0.00    -0.160 C  
HETATM    9  OXT UNL     1     -10.646   5.379  74.169  1.00  0.00    -0.280 OA 
HETATM   10  O   UNL     1      -8.651   6.415  74.273  1.00  0.00    -0.123 OA 
HETATM   11  C   UNL     1      -7.841   6.963  70.620  1.00  0.00    -0.101 C  
HETATM   12  CA  UNL     1      -7.931   8.506  70.373  1.00  0.00    -0.099 C  
HETATM   13  O   UNL     1      -7.476   5.950  70.074  1.00  0.00    -0.075 OA 
ENDROOT
BRANCH  12  14
HETATM   14  N   UNL     1      -8.631   9.044  69.174  1.00  0.00    -0.131 N  
HETATM   15  C   UNL     1      -8.164  10.090  68.405  1.00  0.00    -0.106 C  
HETATM   16  H   UNL     1      -9.514   8.610  68.903  1.00  0.00     0.000 HD 
HETATM   17  O   UNL     1      -7.107  10.659  68.643  1.00  0.00    -0.068 OA 
BRANCH  15  18
HETATM   18  C   UNL     1      -9.021  10.506  67.245  1.00  0.00    -0.145 A  
HETATM   19  C   UNL     1      -8.848   9.869  65.992  1.00  0.00    -0.146 A  
HETATM   20  C   UNL     1      -9.687  10.210  64.932  1.00  0.00    -0.392 A  
HETATM   21  C   UNL     1     -11.371  13.098  68.759  1.00  0.00    -0.333 A  
HETATM   22  C   UNL     1     -10.709  11.138  65.110  1.00  0.00    -0.279 A  
HETATM   23  C   UNL     1     -10.054  11.484  67.435  1.00  0.00    -0.213 A  
HETATM   24  C   UNL     1     -10.299  12.207  68.631  1.00  0.00    -0.211 A  
HETATM   25  C   UNL     1     -10.914  11.765  66.342  1.00  0.00    -0.341 A  
HETATM   26  C   UNL     1     -11.985  12.663  66.482  1.00  0.00    -0.401 A  
HETATM   27  C   UNL     1     -12.224  13.313  67.688  1.00  0.00    -0.181 A  
BRANCH  19  28
HETATM   28  O   UNL     1      -7.853   8.926  65.890  1.00  0.00    -0.098 OA 
BRANCH  28  29
HETATM   29  C   UNL     1      -7.984   7.931  64.874  1.00  0.00    -0.138 C  
HETATM   30  C   UNL     1      -6.741   7.982  64.001  1.00  0.00    -0.066 C  
ENDBRANCH  28  29
ENDBRANCH  19  28
ENDBRANCH  15  18
ENDBRANCH  12  14
TORSDOF 4
ENDMDL
MODEL      103
REMARK 921   NORMALIZED FREE ENERGY PREDICTED BY IDOCK:   -4.66 KCAL/MOL
REMARK 922        TOTAL FREE ENERGY PREDICTED BY IDOCK:   -6.89 KCAL/MOL
REMARK 923 INTER-LIGAND FREE ENERGY PREDICTED BY IDOCK:   -5.63 KCAL/MOL
REMARK 924 INTRA-LIGAND FREE ENERGY PREDICTED BY IDOCK:   -1.25 KCAL/MOL
REMARK 927      BINDING AFFINITY PREDICTED BY RF-SCORE:    0.00 PKD
ROOT
HETATM    1  C   UNL     1      -9.146  11.233  68.616  1.00  0.00    -0.151 C  
HETATM    2  S   UNL     1      -8.347  10.243  67.290  1.00  0.00    -0.121 SA 
HETATM    3  C   UNL     1      -9.806  10.329  66.149  1.00  0.00    -0.225 C  
HETATM    4  C   UNL     1      -9.334  10.321  64.693  1.00  0.00    -0.320 C  
HETATM    5  CA  UNL     1     -10.590  11.590  66.589  1.00  0.00    -0.253 C  
HETATM    6  C   UNL     1     -10.629   9.043  66.356  1.00  0.00     0.043 C  
HETATM    7  N   UNL     1     -10.407  11.733  68.043  1.00  0.00    -0.192 N  
HETATM    8  C   UNL     1     -10.165  12.918  65.936  1.00  0.00    -0.290 C  
HETATM    9  OXT UNL     1     -10.071  13.111  64.734  1.00  0.00    -0.296 OA 
HETATM   10  O   UNL     1      -9.973  13.921  66.831  1.00  0.00    -0.252 OA 
HETATM   11  C   UNL     1     -11.204  10.991  68.881  1.00  0.00    -0.265 C  
HETATM   12  CA  UNL     1      -9.970  10.467  69.690  1.00  0.00    -0.174 C  
HETATM   13  O   UNL     1     -12.401  10.853  68.811  1.00  0.00    -0.495 OA 
ENDROOT
BRANCH  12  14
HETATM   14  N   UNL     1      -9.686   9.008  69.780  1.00  0.00    -0.170 N  
HETATM   15  C   UNL     1      -9.050   8.405  70.845  1.00  0.00    -0.160 C  
HETATM   16  H   UNL     1      -9.980   8.416  69.003  1.00  0.00     0.000 HD 
HETATM   17  O   UNL     1      -8.676   9.031  71.828  1.00  0.00    -0.350 OA 
BRANCH  15  18
HETATM   18  C   UNL     1      -8.832   6.923  70.746  1.00  0.00    -0.150 A  
HETATM   19  C   UNL     1      -7.829   6.427  69.878  1.00  0.00    -0.114 A  
HETATM   20  C   UNL     1      -7.584   5.055  69.833  1.00  0.00    -0.060 A  
HETATM   21  C   UNL     1     -11.274   5.490  73.298  1.00  0.00    -0.282 A  
HETATM   22  C   UNL     1      -8.289   4.183  70.658  1.00  0.00    -0.086 A  
HETATM   23  C   UNL     1      -9.585   6.032  71.582  1.00  0.00    -0.170 A  
HETATM   24  C   UNL     1     -10.631   6.411  72.463  1.00  0.00    -0.240 A  
HETATM   25  C   UNL     1      -9.269   4.650  71.538  1.00  0.00    -0.186 A  
HETATM   26  C   UNL     1      -9.922   3.735  72.380  1.00  0.00    -0.232 A  
HETATM   27  C   UNL     1     -10.908   4.154  73.268  1.00  0.00    -0.315 A  
BRANCH  19  28
HETATM   28  O   UNL     1      -7.132   7.339  69.122  1.00  0.00    -0.074 OA 
BRANCH  28  29
HETATM   29  C   UNL     1      -5.747   7.526  69.416  1.00  0.00    -0.023 C  
HETATM   30  C   UNL     1      -5.574   8.911  70.014  1.00  0.00    -0.028 C  
ENDBRANCH  28  29
ENDBRANCH  19  28
ENDBRANCH  15  18
ENDBRANCH  12  14
TORSDOF 4
ENDMDL
MODEL      104
REMARK 921   NORMALIZED FREE ENERGY PREDICTED BY IDOCK:   -4.66 KCAL/MOL
REMARK 922        TOTAL FREE ENERGY PREDICTED BY IDOCK:   -6.88 KCAL/MOL
REMARK 923 INTER-LIGAND FREE ENERGY PREDICTED BY IDOCK:   -5.97 KCAL/MOL
REMARK 924 INTRA-LIGAND FREE ENERGY PREDICTED BY IDOCK:   -0.92 KCAL/MOL
REMARK 927      BINDING AFFINITY PREDICTED BY RF-SCORE:    0.00 PKD
ROOT
HETATM    1  C   UNL     1     -10.278   7.388  69.687  1.00  0.00    -0.210 C  
HETATM    2  S   UNL     1     -11.120   6.755  68.182  1.00  0.00    -0.075 SA 
HETATM    3  C   UNL     1      -9.609   5.914  67.516  1.00  0.00    -0.112 C  
HETATM    4  C   UNL     1     -10.009   4.666  66.726  1.00  0.00    -0.250 C  
HETATM    5  CA  UNL     1      -8.708   5.663  68.749  1.00  0.00    -0.106 C  
HETATM    6  C   UNL     1      -8.949   6.880  66.513  1.00  0.00    -0.166 C  
HETATM    7  N   UNL     1      -8.942   6.768  69.695  1.00  0.00    -0.143 N  
HETATM    8  C   UNL     1      -8.946   4.345  69.510  1.00  0.00    -0.097 C  
HETATM    9  OXT UNL     1      -8.960   3.235  69.002  1.00  0.00    -0.102 OA 
HETATM   10  O   UNL     1      -9.066   4.513  70.852  1.00  0.00    -0.120 OA 
HETATM   11  C   UNL     1      -8.276   7.953  69.496  1.00  0.00    -0.130 C  
HETATM   12  CA  UNL     1      -9.599   8.784  69.600  1.00  0.00    -0.171 C  
HETATM   13  O   UNL     1      -7.100   8.095  69.261  1.00  0.00    -0.058 OA 
ENDROOT
BRANCH  12  14
HETATM   14  N   UNL     1     -10.052   9.635  68.465  1.00  0.00    -0.169 N  
HETATM   15  C   UNL     1      -9.313  10.668  67.925  1.00  0.00    -0.148 C  
HETATM   16  H   UNL     1     -10.968   9.442  68.060  1.00  0.00     0.000 HD 
HETATM   17  O   UNL     1      -8.198  10.962  68.334  1.00  0.00    -0.119 OA 
BRANCH  15  18
HETATM   18  C   UNL     1      -9.947  11.428  66.797  1.00  0.00    -0.238 A  
HETATM   19  C   UNL     1     -10.672  12.612  67.080  1.00  0.00    -0.245 A  
HETATM   20  C   UNL     1     -11.206  13.352  66.026  1.00  0.00    -0.310 A  
HETATM   21  C   UNL     1      -8.862   9.493  63.697  1.00  0.00    -0.236 A  
HETATM   22  C   UNL     1     -11.000  12.957  64.708  1.00  0.00    -0.344 A  
HETATM   23  C   UNL     1      -9.750  10.995  65.443  1.00  0.00    -0.279 A  
HETATM   24  C   UNL     1      -9.072   9.813  65.043  1.00  0.00    -0.280 A  
HETATM   25  C   UNL     1     -10.272  11.804  64.401  1.00  0.00    -0.332 A  
HETATM   26  C   UNL     1     -10.055  11.471  63.054  1.00  0.00    -0.330 A  
HETATM   27  C   UNL     1      -9.340  10.331  62.702  1.00  0.00    -0.335 A  
BRANCH  19  28
HETATM   28  O   UNL     1     -10.802  12.979  68.398  1.00  0.00    -0.240 OA 
BRANCH  28  29
HETATM   29  C   UNL     1     -12.055  13.522  68.816  1.00  0.00    -0.270 C  
HETATM   30  C   UNL     1     -11.814  14.939  69.307  1.00  0.00    -0.350 C  
ENDBRANCH  28  29
ENDBRANCH  19  28
ENDBRANCH  15  18
ENDBRANCH  12  14
TORSDOF 4
ENDMDL
MODEL      105
REMARK 921   NORMALIZED FREE ENERGY PREDICTED BY IDOCK:   -4.63 KCAL/MOL
REMARK 922        TOTAL FREE ENERGY PREDICTED BY IDOCK:   -6.85 KCAL/MOL
REMARK 923 INTER-LIGAND FREE ENERGY PREDICTED BY IDOCK:   -5.81 KCAL/MOL
REMARK 924 INTRA-LIGAND FREE ENERGY PREDICTED BY IDOCK:   -1.04 KCAL/MOL
REMARK 927      BINDING AFFINITY PREDICTED BY RF-SCORE:    0.00 PKD
ROOT
HETATM    1  C   UNL     1      -9.294   8.981  67.180  1.00  0.00    -0.147 C  
HETATM    2  S   UNL     1      -8.661   9.273  65.480  1.00  0.00    -0.162 SA 
HETATM    3  C   UNL     1      -6.877   9.144  65.967  1.00  0.00    -0.084 C  
HETATM    4  C   UNL     1      -6.058   8.567  64.810  1.00  0.00    -0.064 C  
HETATM    5  CA  UNL     1      -6.873   8.307  67.270  1.00  0.00    -0.070 C  
HETATM    6  C   UNL     1      -6.360  10.576  66.205  1.00  0.00    -0.119 C  
HETATM    7  N   UNL     1      -8.120   8.614  67.991  1.00  0.00    -0.110 N  
HETATM    8  C   UNL     1      -6.802   6.779  67.097  1.00  0.00    -0.069 C  
HETATM    9  OXT UNL     1      -5.964   6.185  66.438  1.00  0.00    -0.026 OA 
HETATM   10  O   UNL     1      -7.731   6.111  67.828  1.00  0.00    -0.095 OA 
HETATM   11  C   UNL     1      -8.169   9.749  68.763  1.00  0.00    -0.108 C  
HETATM   12  CA  UNL     1      -9.503  10.221  68.094  1.00  0.00    -0.147 C  
HETATM   13  O   UNL     1      -7.343  10.120  69.562  1.00  0.00    -0.092 OA 
ENDROOT
BRANCH  12  14
HETATM   14  N   UNL     1      -9.574  11.525  67.380  1.00  0.00    -0.168 N  
HETATM   15  C   UNL     1     -10.321  12.604  67.806  1.00  0.00    -0.220 C  
HETATM   16  H   UNL     1      -9.036  11.628  66.520  1.00  0.00     0.000 HD 
HETATM   17  O   UNL     1     -10.984  12.580  68.834  1.00  0.00    -0.237 OA 
BRANCH  15  18
HETATM   18  C   UNL     1     -10.284  13.830  66.940  1.00  0.00    -0.261 A  
HETATM   19  C   UNL     1     -10.882  13.790  65.657  1.00  0.00    -0.287 A  
HETATM   20  C   UNL     1     -10.904  14.946  64.878  1.00  0.00    -0.431 A  
HETATM   21  C   UNL     1      -8.595  16.434  69.152  1.00  0.00    -0.182 A  
HETATM   22  C   UNL     1     -10.379  16.139  65.368  1.00  0.00    -0.356 A  
HETATM   23  C   UNL     1      -9.716  15.047  67.446  1.00  0.00    -0.216 A  
HETATM   24  C   UNL     1      -9.065  15.197  68.699  1.00  0.00    -0.195 A  
HETATM   25  C   UNL     1      -9.803  16.209  66.639  1.00  0.00    -0.262 A  
HETATM   26  C   UNL     1      -9.326  17.446  67.104  1.00  0.00    -0.246 A  
HETATM   27  C   UNL     1      -8.740  17.563  68.361  1.00  0.00    -0.276 A  
BRANCH  19  28
HETATM   28  O   UNL     1     -11.427  12.597  65.245  1.00  0.00    -0.308 OA 
BRANCH  28  29
HETATM   29  C   UNL     1     -12.748  12.621  64.704  1.00  0.00    -0.377 C  
HETATM   30  C   UNL     1     -12.735  11.855  63.393  1.00  0.00    -0.496 C  
ENDBRANCH  28  29
ENDBRANCH  19  28
ENDBRANCH  15  18
ENDBRANCH  12  14
TORSDOF 4
ENDMDL
MODEL      106
REMARK 921   NORMALIZED FREE ENERGY PREDICTED BY IDOCK:   -4.63 KCAL/MOL
REMARK 922        TOTAL FREE ENERGY PREDICTED BY IDOCK:   -6.85 KCAL/MOL
REMARK 923 INTER-LIGAND FREE ENERGY PREDICTED BY IDOCK:   -5.91 KCAL/MOL
REMARK 924 INTRA-LIGAND FREE ENERGY PREDICTED BY IDOCK:   -0.94 KCAL/MOL
REMARK 927      BINDING AFFINITY PREDICTED BY RF-SCORE:    0.00 PKD
ROOT
HETATM    1  C   UNL     1      -8.592   5.593  69.112  1.00  0.00    -0.105 C  
HETATM    2  S   UNL     1      -8.738   6.490  67.515  1.00  0.00    -0.113 SA 
HETATM    3  C   UNL     1      -6.940   6.933  67.435  1.00  0.00    -0.079 C  
HETATM    4  C   UNL     1      -6.480   6.995  65.977  1.00  0.00    -0.051 C  
HETATM    5  CA  UNL     1      -6.224   5.882  68.317  1.00  0.00    -0.029 C  
HETATM    6  C   UNL     1      -6.791   8.357  68.007  1.00  0.00    -0.070 C  
HETATM    7  N   UNL     1      -7.150   5.519  69.404  1.00  0.00    -0.062 N  
HETATM    8  C   UNL     1      -5.800   4.579  67.615  1.00  0.00    -0.023 C  
HETATM    9  OXT UNL     1      -5.135   4.517  66.594  1.00  0.00    -0.007 OA 
HETATM   10  O   UNL     1      -6.170   3.460  68.289  1.00  0.00    -0.030 OA 
HETATM   11  C   UNL     1      -7.224   6.338  70.504  1.00  0.00    -0.080 C  
HETATM   12  CA  UNL     1      -8.785   6.413  70.419  1.00  0.00    -0.147 C  
HETATM   13  O   UNL     1      -6.300   6.796  71.132  1.00  0.00    -0.040 OA 
ENDROOT
BRANCH  12  14
HETATM   14  N   UNL     1      -9.474   7.722  70.246  1.00  0.00    -0.160 N  
HETATM   15  C   UNL     1     -10.821   7.862  69.981  1.00  0.00    -0.238 C  
HETATM   16  H   UNL     1      -8.913   8.570  70.329  1.00  0.00     0.000 HD 
HETATM   17  O   UNL     1     -11.574   6.903  69.882  1.00  0.00    -0.272 OA 
BRANCH  15  18
HETATM   18  C   UNL     1     -11.330   9.265  69.817  1.00  0.00    -0.029 A  
HETATM   19  C   UNL     1     -11.994   9.892  70.899  1.00  0.00    -0.345 A  
HETATM   20  C   UNL     1     -12.410  11.216  70.769  1.00  0.00    -0.504 A  
HETATM   21  C   UNL     1     -10.170  10.231  66.317  1.00  0.00    -0.287 A  
HETATM   22  C   UNL     1     -12.144  11.930  69.604  1.00  0.00    -0.304 A  
HETATM   23  C   UNL     1     -11.073   9.981  68.600  1.00  0.00    -0.223 A  
HETATM   24  C   UNL     1     -10.447   9.448  67.443  1.00  0.00    -0.343 A  
HETATM   25  C   UNL     1     -11.472  11.340  68.530  1.00  0.00    -0.372 A  
HETATM   26  C   UNL     1     -11.190  12.115  67.393  1.00  0.00    -0.362 A  
HETATM   27  C   UNL     1     -10.528  11.570  66.298  1.00  0.00    -0.294 A  
BRANCH  19  28
HETATM   28  O   UNL     1     -12.186   9.153  72.042  1.00  0.00    -0.367 OA 
BRANCH  28  29
HETATM   29  C   UNL     1     -13.518   9.040  72.545  1.00  0.00    -0.429 C  
HETATM   30  C   UNL     1     -14.235   7.967  71.744  1.00  0.00    -0.550 C  
ENDBRANCH  28  29
ENDBRANCH  19  28
ENDBRANCH  15  18
ENDBRANCH  12  14
TORSDOF 4
ENDMDL
MODEL      107
REMARK 921   NORMALIZED FREE ENERGY PREDICTED BY IDOCK:   -4.61 KCAL/MOL
REMARK 922        TOTAL FREE ENERGY PREDICTED BY IDOCK:   -6.83 KCAL/MOL
REMARK 923 INTER-LIGAND FREE ENERGY PREDICTED BY IDOCK:   -5.42 KCAL/MOL
REMARK 924 INTRA-LIGAND FREE ENERGY PREDICTED BY IDOCK:   -1.41 KCAL/MOL
REMARK 927      BINDING AFFINITY PREDICTED BY RF-SCORE:    0.00 PKD
ROOT
HETATM    1  C   UNL     1      -9.567   8.996  70.971  1.00  0.00    -0.279 C  
HETATM    2  S   UNL     1     -10.456   7.696  70.026  1.00  0.00    -0.233 SA 
HETATM    3  C   UNL     1      -8.944   6.664  69.742  1.00  0.00    -0.143 C  
HETATM    4  C   UNL     1      -9.323   5.182  69.685  1.00  0.00    -0.182 C  
HETATM    5  CA  UNL     1      -7.965   7.059  70.875  1.00  0.00    -0.097 C  
HETATM    6  C   UNL     1      -8.389   7.032  68.352  1.00  0.00    -0.124 C  
HETATM    7  N   UNL     1      -8.202   8.481  71.182  1.00  0.00    -0.129 N  
HETATM    8  C   UNL     1      -8.096   6.273  72.193  1.00  0.00    -0.109 C  
HETATM    9  OXT UNL     1      -8.082   5.057  72.288  1.00  0.00    -0.108 OA 
HETATM   10  O   UNL     1      -8.150   7.070  73.291  1.00  0.00    -0.097 OA 
HETATM   11  C   UNL     1      -7.609   9.431  70.387  1.00  0.00    -0.145 C  
HETATM   12  CA  UNL     1      -8.964  10.185  70.171  1.00  0.00     0.143 C  
HETATM   13  O   UNL     1      -6.456   9.461  70.029  1.00  0.00    -0.048 OA 
ENDROOT
BRANCH  12  14
HETATM   14  N   UNL     1      -9.520  10.369  68.802  1.00  0.00    -0.166 N  
HETATM   15  C   UNL     1      -8.928  11.136  67.820  1.00  0.00    -0.139 C  
HETATM   16  H   UNL     1     -10.396   9.898  68.576  1.00  0.00     0.000 HD 
HETATM   17  O   UNL     1      -7.868  11.723  67.993  1.00  0.00    -0.118 OA 
BRANCH  15  18
HETATM   18  C   UNL     1      -9.650  11.219  66.506  1.00  0.00    -0.215 A  
HETATM   19  C   UNL     1     -10.772  12.075  66.386  1.00  0.00    -0.259 A  
HETATM   20  C   UNL     1     -11.404  12.201  65.150  1.00  0.00    -0.379 A  
HETATM   21  C   UNL     1      -7.598   8.969  64.215  1.00  0.00    -0.117 A  
HETATM   22  C   UNL     1     -10.919  11.524  64.035  1.00  0.00    -0.454 A  
HETATM   23  C   UNL     1      -9.155  10.495  65.371  1.00  0.00    -0.215 A  
HETATM   24  C   UNL     1      -8.064   9.587  65.380  1.00  0.00    -0.125 A  
HETATM   25  C   UNL     1      -9.801  10.690  64.123  1.00  0.00    -0.396 A  
HETATM   26  C   UNL     1      -9.324  10.062  62.960  1.00  0.00    -0.297 A  
HETATM   27  C   UNL     1      -8.218   9.219  63.001  1.00  0.00    -0.177 A  
BRANCH  19  28
HETATM   28  O   UNL     1     -11.177  12.756  67.510  1.00  0.00    -0.261 OA 
BRANCH  28  29
HETATM   29  C   UNL     1     -11.328  14.172  67.411  1.00  0.00    -0.327 C  
HETATM   30  C   UNL     1      -9.985  14.812  67.717  1.00  0.00    -0.223 C  
ENDBRANCH  28  29
ENDBRANCH  19  28
ENDBRANCH  15  18
ENDBRANCH  12  14
TORSDOF 4
ENDMDL
MODEL      108
REMARK 921   NORMALIZED FREE ENERGY PREDICTED BY IDOCK:   -4.59 KCAL/MOL
REMARK 922        TOTAL FREE ENERGY PREDICTED BY IDOCK:   -6.81 KCAL/MOL
REMARK 923 INTER-LIGAND FREE ENERGY PREDICTED BY IDOCK:   -5.78 KCAL/MOL
REMARK 924 INTRA-LIGAND FREE ENERGY PREDICTED BY IDOCK:   -1.02 KCAL/MOL
REMARK 927      BINDING AFFINITY PREDICTED BY RF-SCORE:    0.00 PKD
ROOT
HETATM    1  C   UNL     1      -8.933   7.303  65.976  1.00  0.00    -0.116 C  
HETATM    2  S   UNL     1      -9.961   8.770  66.380  1.00  0.00    -0.226 SA 
HETATM    3  C   UNL     1      -8.575   9.981  66.164  1.00  0.00    -0.133 C  
HETATM    4  C   UNL     1      -9.120  11.318  65.655  1.00  0.00    -0.203 C  
HETATM    5  CA  UNL     1      -7.562   9.275  65.230  1.00  0.00    -0.099 C  
HETATM    6  C   UNL     1      -7.977  10.250  67.559  1.00  0.00    -0.106 C  
HETATM    7  N   UNL     1      -7.637   7.831  65.516  1.00  0.00    -0.079 N  
HETATM    8  C   UNL     1      -7.786   9.460  63.718  1.00  0.00    -0.132 C  
HETATM    9  OXT UNL     1      -7.911  10.535  63.154  1.00  0.00    -0.139 OA 
HETATM   10  O   UNL     1      -7.753   8.294  63.023  1.00  0.00    -0.119 OA 
HETATM   11  C   UNL     1      -6.936   7.338  66.589  1.00  0.00    -0.073 C  
HETATM   12  CA  UNL     1      -8.196   6.595  67.148  1.00  0.00    -0.113 C  
HETATM   13  O   UNL     1      -5.786   7.570  66.875  1.00  0.00    -0.036 OA 
ENDROOT
BRANCH  12  14
HETATM   14  N   UNL     1      -8.722   6.908  68.505  1.00  0.00    -0.125 N  
HETATM   15  C   UNL     1      -9.928   6.452  68.995  1.00  0.00    -0.149 C  
HETATM   16  H   UNL     1      -8.154   7.500  69.112  1.00  0.00     0.000 HD 
HETATM   17  O   UNL     1     -10.668   5.725  68.346  1.00  0.00    -0.234 OA 
BRANCH  15  18
HETATM   18  C   UNL     1     -10.300   6.893  70.381  1.00  0.00    -0.221 A  
HETATM   19  C   UNL     1     -10.784   8.209  70.583  1.00  0.00    -0.224 A  
HETATM   20  C   UNL     1     -11.189   8.598  71.859  1.00  0.00    -0.413 A  
HETATM   21  C   UNL     1      -9.773   3.759  72.485  1.00  0.00    -0.205 A  
HETATM   22  C   UNL     1     -11.156   7.695  72.917  1.00  0.00    -0.448 A  
HETATM   23  C   UNL     1     -10.236   5.960  71.469  1.00  0.00    -0.254 A  
HETATM   24  C   UNL     1      -9.740   4.632  71.392  1.00  0.00    -0.246 A  
HETATM   25  C   UNL     1     -10.702   6.385  72.740  1.00  0.00    -0.267 A  
HETATM   26  C   UNL     1     -10.728   5.499  73.830  1.00  0.00    -0.300 A  
HETATM   27  C   UNL     1     -10.282   4.188  73.700  1.00  0.00    -0.213 A  
BRANCH  19  28
HETATM   28  O   UNL     1     -10.839   9.041  69.490  1.00  0.00    -0.229 OA 
BRANCH  28  29
HETATM   29  C   UNL     1     -10.854  10.449  69.728  1.00  0.00    -0.292 C  
HETATM   30  C   UNL     1     -11.736  11.097  68.675  1.00  0.00    -0.389 C  
ENDBRANCH  28  29
ENDBRANCH  19  28
ENDBRANCH  15  18
ENDBRANCH  12  14
TORSDOF 4
ENDMDL
MODEL      109
REMARK 921   NORMALIZED FREE ENERGY PREDICTED BY IDOCK:   -4.58 KCAL/MOL
REMARK 922        TOTAL FREE ENERGY PREDICTED BY IDOCK:   -6.79 KCAL/MOL
REMARK 923 INTER-LIGAND FREE ENERGY PREDICTED BY IDOCK:   -5.75 KCAL/MOL
REMARK 924 INTRA-LIGAND FREE ENERGY PREDICTED BY IDOCK:   -1.05 KCAL/MOL
REMARK 927      BINDING AFFINITY PREDICTED BY RF-SCORE:    0.00 PKD
ROOT
HETATM    1  C   UNL     1      -8.482  13.286  66.831  1.00  0.00    -0.060 C  
HETATM    2  S   UNL     1     -10.056  12.581  66.199  1.00  0.00    -0.253 SA 
HETATM    3  C   UNL     1     -11.105  13.960  66.857  1.00  0.00    -0.301 C  
HETATM    4  C   UNL     1     -12.309  14.186  65.940  1.00  0.00    -0.486 C  
HETATM    5  CA  UNL     1     -10.144  15.165  67.004  1.00  0.00    -0.244 C  
HETATM    6  C   UNL     1     -11.665  13.504  68.218  1.00  0.00    -0.394 C  
HETATM    7  N   UNL     1      -8.816  14.625  67.345  1.00  0.00    -0.185 N  
HETATM    8  C   UNL     1      -9.976  16.058  65.762  1.00  0.00    -0.351 C  
HETATM    9  OXT UNL     1     -10.892  16.568  65.136  1.00  0.00    -0.543 OA 
HETATM   10  O   UNL     1      -8.679  16.311  65.453  1.00  0.00     0.011 OA 
HETATM   11  C   UNL     1      -8.554  14.303  68.654  1.00  0.00    -0.149 C  
HETATM   12  CA  UNL     1      -8.034  12.879  68.264  1.00  0.00    -0.151 C  
HETATM   13  O   UNL     1      -8.786  14.977  69.628  1.00  0.00    -0.122 OA 
ENDROOT
BRANCH  12  14
HETATM   14  N   UNL     1      -8.688  11.657  68.806  1.00  0.00    -0.352 N  
HETATM   15  C   UNL     1      -8.018  10.495  69.129  1.00  0.00    -0.145 C  
HETATM   16  H   UNL     1      -9.698  11.679  68.946  1.00  0.00     0.000 HD 
HETATM   17  O   UNL     1      -6.806  10.381  69.011  1.00  0.00    -0.057 OA 
BRANCH  15  18
HETATM   18  C   UNL     1      -8.854   9.358  69.643  1.00  0.00    -0.178 A  
HETATM   19  C   UNL     1      -9.920   8.869  68.849  1.00  0.00    -0.190 A  
HETATM   20  C   UNL     1     -10.655   7.772  69.297  1.00  0.00    -0.199 A  
HETATM   21  C   UNL     1      -7.189   8.449  72.949  1.00  0.00    -0.105 A  
HETATM   22  C   UNL     1     -10.326   7.140  70.492  1.00  0.00    -0.215 A  
HETATM   23  C   UNL     1      -8.520   8.732  70.890  1.00  0.00    -0.209 A  
HETATM   24  C   UNL     1      -7.499   9.155  71.780  1.00  0.00     0.182 A  
HETATM   25  C   UNL     1      -9.266   7.591  71.283  1.00  0.00    -0.155 A  
HETATM   26  C   UNL     1      -8.945   6.893  72.459  1.00  0.00    -0.141 A  
HETATM   27  C   UNL     1      -7.902   7.308  73.280  1.00  0.00    -0.115 A  
BRANCH  19  28
HETATM   28  O   UNL     1     -10.168   9.503  67.655  1.00  0.00    -0.191 OA 
BRANCH  28  29
HETATM   29  C   UNL     1     -10.016   8.745  66.455  1.00  0.00    -0.275 C  
HETATM   30  C   UNL     1      -8.626   9.011  65.902  1.00  0.00    -0.172 C  
ENDBRANCH  28  29
ENDBRANCH  19  28
ENDBRANCH  15  18
ENDBRANCH  12  14
TORSDOF 4
ENDMDL
MODEL      110
REMARK 921   NORMALIZED FREE ENERGY PREDICTED BY IDOCK:   -4.58 KCAL/MOL
REMARK 922        TOTAL FREE ENERGY PREDICTED BY IDOCK:   -6.79 KCAL/MOL
REMARK 923 INTER-LIGAND FREE ENERGY PREDICTED BY IDOCK:   -5.79 KCAL/MOL
REMARK 924 INTRA-LIGAND FREE ENERGY PREDICTED BY IDOCK:   -1.00 KCAL/MOL
REMARK 927      BINDING AFFINITY PREDICTED BY RF-SCORE:    0.00 PKD
ROOT
HETATM    1  C   UNL     1     -11.665  14.591  66.250  1.00  0.00    -0.358 C  
HETATM    2  S   UNL     1     -10.356  14.593  64.962  1.00  0.00    -0.348 SA 
HETATM    3  C   UNL     1     -10.250  12.745  64.862  1.00  0.00    -0.272 C  
HETATM    4  C   UNL     1      -9.879  12.317  63.440  1.00  0.00    -0.066 C  
HETATM    5  CA  UNL     1     -11.616  12.233  65.378  1.00  0.00    -0.363 C  
HETATM    6  C   UNL     1      -9.090  12.301  65.774  1.00  0.00     0.113 C  
HETATM    7  N   UNL     1     -12.084  13.186  66.399  1.00  0.00    -0.401 N  
HETATM    8  C   UNL     1     -12.733  12.096  64.327  1.00  0.00    -0.264 C  
HETATM    9  OXT UNL     1     -12.637  11.481  63.277  1.00  0.00    -0.365 OA 
HETATM   10  O   UNL     1     -13.905  12.666  64.710  1.00  0.00     0.341 OA 
HETATM   11  C   UNL     1     -11.597  13.068  67.679  1.00  0.00    -0.355 C  
HETATM   12  CA  UNL     1     -11.212  14.584  67.738  1.00  0.00    -0.298 C  
HETATM   13  O   UNL     1     -11.508  12.056  68.331  1.00  0.00    -0.253 OA 
ENDROOT
BRANCH  12  14
HETATM   14  N   UNL     1      -9.802  15.001  67.969  1.00  0.00    -0.216 N  
HETATM   15  C   UNL     1      -9.412  15.940  68.902  1.00  0.00    -0.234 C  
HETATM   16  H   UNL     1      -9.076  14.564  67.401  1.00  0.00     0.000 HD 
HETATM   17  O   UNL     1     -10.209  16.503  69.640  1.00  0.00    -0.238 OA 
BRANCH  15  18
HETATM   18  C   UNL     1      -7.943  16.244  68.974  1.00  0.00    -0.238 A  
HETATM   19  C   UNL     1      -7.031  15.196  69.246  1.00  0.00    -0.161 A  
HETATM   20  C   UNL     1      -5.663  15.467  69.249  1.00  0.00    -0.099 A  
HETATM   21  C   UNL     1      -7.759  19.951  68.105  1.00  0.00    -0.314 A  
HETATM   22  C   UNL     1      -5.194  16.743  68.953  1.00  0.00    -0.124 A  
HETATM   23  C   UNL     1      -7.474  17.571  68.693  1.00  0.00    -0.265 A  
HETATM   24  C   UNL     1      -8.294  18.702  68.439  1.00  0.00    -0.362 A  
HETATM   25  C   UNL     1      -6.073  17.790  68.661  1.00  0.00    -0.192 A  
HETATM   26  C   UNL     1      -5.549  19.049  68.326  1.00  0.00    -0.198 A  
HETATM   27  C   UNL     1      -6.386  20.121  68.033  1.00  0.00    -0.294 A  
BRANCH  19  28
HETATM   28  O   UNL     1      -7.550  13.946  69.484  1.00  0.00     0.149 OA 
BRANCH  28  29
HETATM   29  C   UNL     1      -6.654  12.835  69.442  1.00  0.00    -0.064 C  
HETATM   30  C   UNL     1      -7.429  11.621  68.961  1.00  0.00    -0.051 C  
ENDBRANCH  28  29
ENDBRANCH  19  28
ENDBRANCH  15  18
ENDBRANCH  12  14
TORSDOF 4
ENDMDL
MODEL      111
REMARK 921   NORMALIZED FREE ENERGY PREDICTED BY IDOCK:   -4.54 KCAL/MOL
REMARK 922        TOTAL FREE ENERGY PREDICTED BY IDOCK:   -6.73 KCAL/MOL
REMARK 923 INTER-LIGAND FREE ENERGY PREDICTED BY IDOCK:   -5.69 KCAL/MOL
REMARK 924 INTRA-LIGAND FREE ENERGY PREDICTED BY IDOCK:   -1.04 KCAL/MOL
REMARK 927      BINDING AFFINITY PREDICTED BY RF-SCORE:    0.00 PKD
ROOT
HETATM    1  C   UNL     1      -9.323  10.196  69.214  1.00  0.00    -0.215 C  
HETATM    2  S   UNL     1      -7.795   9.797  70.152  1.00  0.00    -0.170 SA 
HETATM    3  C   UNL     1      -6.857   9.224  68.660  1.00  0.00    -0.061 C  
HETATM    4  C   UNL     1      -5.366   9.527  68.831  1.00  0.00    -0.037 C  
HETATM    5  CA  UNL     1      -7.545   9.917  67.459  1.00  0.00    -0.091 C  
HETATM    6  C   UNL     1      -6.992   7.691  68.592  1.00  0.00    -0.075 C  
HETATM    7  N   UNL     1      -8.974  10.050  67.790  1.00  0.00    -0.131 N  
HETATM    8  C   UNL     1      -7.023  11.317  67.089  1.00  0.00    -0.114 C  
HETATM    9  OXT UNL     1      -5.853  11.597  66.879  1.00  0.00    -0.119 OA 
HETATM   10  O   UNL     1      -8.011  12.235  66.930  1.00  0.00    -0.152 OA 
HETATM   11  C   UNL     1      -9.797   8.968  67.592  1.00  0.00    -0.173 C  
HETATM   12  CA  UNL     1     -10.380   9.068  69.042  1.00  0.00    -0.219 C  
HETATM   13  O   UNL     1      -9.853   8.269  66.610  1.00  0.00    -0.227 OA 
ENDROOT
BRANCH  12  14
HETATM   14  N   UNL     1     -10.247   7.930  69.993  1.00  0.00    -0.203 N  
HETATM   15  C   UNL     1     -10.844   6.699  69.819  1.00  0.00    -0.286 C  
HETATM   16  H   UNL     1      -9.678   8.071  70.828  1.00  0.00     0.000 HD 
HETATM   17  O   UNL     1     -11.529   6.433  68.841  1.00  0.00    -0.314 OA 
BRANCH  15  18
HETATM   18  C   UNL     1     -10.611   5.682  70.899  1.00  0.00    -0.328 A  
HETATM   19  C   UNL     1     -11.147   5.908  72.190  1.00  0.00    -0.281 A  
HETATM   20  C   UNL     1     -10.986   4.934  73.175  1.00  0.00    -0.376 A  
HETATM   21  C   UNL     1      -8.717   2.899  69.110  1.00  0.00    -0.134 A  
HETATM   22  C   UNL     1     -10.340   3.736  72.886  1.00  0.00    -0.241 A  
HETATM   23  C   UNL     1      -9.920   4.462  70.595  1.00  0.00    -0.254 A  
HETATM   24  C   UNL     1      -9.316   4.141  69.351  1.00  0.00    -0.238 A  
HETATM   25  C   UNL     1      -9.821   3.480  71.614  1.00  0.00    -0.227 A  
HETATM   26  C   UNL     1      -9.215   2.238  71.361  1.00  0.00    -0.178 A  
HETATM   27  C   UNL     1      -8.681   1.941  70.111  1.00  0.00    -0.108 A  
BRANCH  19  28
HETATM   28  O   UNL     1     -11.817   7.089  72.404  1.00  0.00    -0.255 OA 
BRANCH  28  29
HETATM   29  C   UNL     1     -13.196   7.147  72.036  1.00  0.00    -0.112 C  
HETATM   30  C   UNL     1     -13.509   8.568  71.601  1.00  0.00    -0.375 C  
ENDBRANCH  28  29
ENDBRANCH  19  28
ENDBRANCH  15  18
ENDBRANCH  12  14
TORSDOF 4
ENDMDL
MODEL      112
REMARK 921   NORMALIZED FREE ENERGY PREDICTED BY IDOCK:   -4.53 KCAL/MOL
REMARK 922        TOTAL FREE ENERGY PREDICTED BY IDOCK:   -6.73 KCAL/MOL
REMARK 923 INTER-LIGAND FREE ENERGY PREDICTED BY IDOCK:   -5.60 KCAL/MOL
REMARK 924 INTRA-LIGAND FREE ENERGY PREDICTED BY IDOCK:   -1.13 KCAL/MOL
REMARK 927      BINDING AFFINITY PREDICTED BY RF-SCORE:    0.00 PKD
ROOT
HETATM    1  C   UNL     1     -11.283  11.139  67.090  1.00  0.00    -0.249 C  
HETATM    2  S   UNL     1     -10.517  11.997  68.522  1.00  0.00    -0.221 SA 
HETATM    3  C   UNL     1      -9.046  12.591  67.563  1.00  0.00    -0.187 C  
HETATM    4  C   UNL     1      -8.565  13.934  68.119  1.00  0.00    -0.180 C  
HETATM    5  CA  UNL     1      -9.506  12.607  66.085  1.00  0.00    -0.175 C  
HETATM    6  C   UNL     1      -7.905  11.581  67.797  1.00  0.00    -0.126 C  
HETATM    7  N   UNL     1     -10.473  11.509  65.916  1.00  0.00    -0.248 N  
HETATM    8  C   UNL     1     -10.183  13.900  65.597  1.00  0.00    -0.328 C  
HETATM    9  OXT UNL     1      -9.715  15.022  65.705  1.00  0.00    -0.327 OA 
HETATM   10  O   UNL     1     -11.350  13.680  64.938  1.00  0.00    -0.322 OA 
HETATM   11  C   UNL     1      -9.994  10.237  65.716  1.00  0.00    -0.271 C  
HETATM   12  CA  UNL     1     -10.898   9.651  66.851  1.00  0.00    -0.036 C  
HETATM   13  O   UNL     1      -9.126   9.901  64.946  1.00  0.00    -0.189 OA 
ENDROOT
BRANCH  12  14
HETATM   14  N   UNL     1     -10.292   8.961  68.024  1.00  0.00    -0.214 N  
HETATM   15  C   UNL     1     -10.386   7.605  68.260  1.00  0.00    -0.198 C  
HETATM   16  H   UNL     1      -9.775   9.528  68.696  1.00  0.00     0.000 HD 
HETATM   17  O   UNL     1     -10.971   6.844  67.501  1.00  0.00    -0.281 OA 
BRANCH  15  18
HETATM   18  C   UNL     1      -9.727   7.095  69.509  1.00  0.00    -0.157 A  
HETATM   19  C   UNL     1     -10.284   7.423  70.769  1.00  0.00    -0.197 A  
HETATM   20  C   UNL     1      -9.710   6.896  71.926  1.00  0.00    -0.166 A  
HETATM   21  C   UNL     1      -6.871   4.940  68.194  1.00  0.00    -0.056 A  
HETATM   22  C   UNL     1      -8.626   6.028  71.845  1.00  0.00    -0.137 A  
HETATM   23  C   UNL     1      -8.592   6.222  69.413  1.00  0.00    -0.125 A  
HETATM   24  C   UNL     1      -7.933   5.851  68.212  1.00  0.00    -0.109 A  
HETATM   25  C   UNL     1      -8.071   5.673  70.613  1.00  0.00    -0.116 A  
HETATM   26  C   UNL     1      -7.004   4.760  70.582  1.00  0.00    -0.037 A  
HETATM   27  C   UNL     1      -6.417   4.381  69.379  1.00  0.00    -0.033 A  
BRANCH  19  28
HETATM   28  O   UNL     1     -11.385   8.246  70.784  1.00  0.00    -0.268 OA 
BRANCH  28  29
HETATM   29  C   UNL     1     -11.343   9.397  71.629  1.00  0.00    -0.382 C  
HETATM   30  C   UNL     1     -12.537   9.338  72.565  1.00  0.00    -0.266 C  
ENDBRANCH  28  29
ENDBRANCH  19  28
ENDBRANCH  15  18
ENDBRANCH  12  14
TORSDOF 4
ENDMDL
MODEL      113
REMARK 921   NORMALIZED FREE ENERGY PREDICTED BY IDOCK:   -4.49 KCAL/MOL
REMARK 922        TOTAL FREE ENERGY PREDICTED BY IDOCK:   -6.68 KCAL/MOL
REMARK 923 INTER-LIGAND FREE ENERGY PREDICTED BY IDOCK:   -5.48 KCAL/MOL
REMARK 924 INTRA-LIGAND FREE ENERGY PREDICTED BY IDOCK:   -1.20 KCAL/MOL
REMARK 927      BINDING AFFINITY PREDICTED BY RF-SCORE:    0.00 PKD
ROOT
HETATM    1  C   UNL     1      -7.956   6.255  69.588  1.00  0.00    -0.112 C  
HETATM    2  S   UNL     1      -9.274   7.347  70.255  1.00  0.00    -0.154 SA 
HETATM    3  C   UNL     1     -10.573   6.026  70.245  1.00  0.00    -0.273 C  
HETATM    4  C   UNL     1     -11.562   6.254  71.391  1.00  0.00    -0.338 C  
HETATM    5  CA  UNL     1      -9.793   4.690  70.295  1.00  0.00    -0.243 C  
HETATM    6  C   UNL     1     -11.372   6.174  68.936  1.00  0.00    -0.202 C  
HETATM    7  N   UNL     1      -8.526   4.896  69.572  1.00  0.00    -0.083 N  
HETATM    8  C   UNL     1      -9.444   4.156  71.696  1.00  0.00    -0.150 C  
HETATM    9  OXT UNL     1     -10.244   3.990  72.603  1.00  0.00    -0.158 OA 
HETATM   10  O   UNL     1      -8.142   3.794  71.825  1.00  0.00    -0.065 OA 
HETATM   11  C   UNL     1      -8.529   4.802  68.201  1.00  0.00    -0.101 C  
HETATM   12  CA  UNL     1      -7.797   6.176  68.043  1.00  0.00    -0.106 C  
HETATM   13  O   UNL     1      -9.036   3.932  67.535  1.00  0.00    -0.127 OA 
ENDROOT
BRANCH  12  14
HETATM   14  N   UNL     1      -8.431   7.291  67.287  1.00  0.00    -0.118 N  
HETATM   15  C   UNL     1      -7.921   8.571  67.217  1.00  0.00    -0.102 C  
HETATM   16  H   UNL     1      -9.299   7.097  66.789  1.00  0.00     0.000 HD 
HETATM   17  O   UNL     1      -6.876   8.893  67.768  1.00  0.00    -0.068 OA 
BRANCH  15  18
HETATM   18  C   UNL     1      -8.714   9.568  66.423  1.00  0.00    -0.149 A  
HETATM   19  C   UNL     1      -8.543   9.628  65.018  1.00  0.00    -0.162 A  
HETATM   20  C   UNL     1      -9.327  10.509  64.273  1.00  0.00    -0.310 A  
HETATM   21  C   UNL     1     -10.940  11.222  69.038  1.00  0.00    -0.288 A  
HETATM   22  C   UNL     1     -10.293  11.295  64.894  1.00  0.00    -0.362 A  
HETATM   23  C   UNL     1      -9.688  10.392  67.079  1.00  0.00    -0.216 A  
HETATM   24  C   UNL     1      -9.924  10.440  68.479  1.00  0.00    -0.179 A  
HETATM   25  C   UNL     1     -10.495  11.239  66.276  1.00  0.00    -0.308 A  
HETATM   26  C   UNL     1     -11.511  12.020  66.850  1.00  0.00    -0.402 A  
HETATM   27  C   UNL     1     -11.745  12.000  68.221  1.00  0.00    -0.396 A  
BRANCH  19  28
HETATM   28  O   UNL     1      -7.608   8.793  64.454  1.00  0.00    -0.106 OA 
BRANCH  28  29
HETATM   29  C   UNL     1      -8.032   7.945  63.387  1.00  0.00    -0.125 C  
HETATM   30  C   UNL     1      -8.000   6.510  63.884  1.00  0.00    -0.080 C  
ENDBRANCH  28  29
ENDBRANCH  19  28
ENDBRANCH  15  18
ENDBRANCH  12  14
TORSDOF 4
ENDMDL
MODEL      114
REMARK 921   NORMALIZED FREE ENERGY PREDICTED BY IDOCK:   -4.49 KCAL/MOL
REMARK 922        TOTAL FREE ENERGY PREDICTED BY IDOCK:   -6.67 KCAL/MOL
REMARK 923 INTER-LIGAND FREE ENERGY PREDICTED BY IDOCK:   -5.41 KCAL/MOL
REMARK 924 INTRA-LIGAND FREE ENERGY PREDICTED BY IDOCK:   -1.26 KCAL/MOL
REMARK 927      BINDING AFFINITY PREDICTED BY RF-SCORE:    0.00 PKD
ROOT
HETATM    1  C   UNL     1      -8.377   8.614  71.594  1.00  0.00    -0.157 C  
HETATM    2  S   UNL     1     -10.162   9.041  71.526  1.00  0.00    -0.335 SA 
HETATM    3  C   UNL     1     -10.611   7.607  70.441  1.00  0.00    -0.230 C  
HETATM    4  C   UNL     1     -12.033   7.137  70.755  1.00  0.00    -0.352 C  
HETATM    5  CA  UNL     1      -9.495   6.559  70.673  1.00  0.00    -0.166 C  
HETATM    6  C   UNL     1     -10.625   8.116  68.986  1.00  0.00    -0.167 C  
HETATM    7  N   UNL     1      -8.250   7.298  70.943  1.00  0.00    -0.114 N  
HETATM    8  C   UNL     1      -9.714   5.578  71.839  1.00  0.00    -0.162 C  
HETATM    9  OXT UNL     1     -10.712   4.894  72.003  1.00  0.00    -0.182 OA 
HETATM   10  O   UNL     1      -8.637   5.468  72.659  1.00  0.00    -0.123 OA 
HETATM   11  C   UNL     1      -7.528   7.778  69.878  1.00  0.00    -0.081 C  
HETATM   12  CA  UNL     1      -7.449   9.213  70.499  1.00  0.00    -0.116 C  
HETATM   13  O   UNL     1      -7.226   7.178  68.875  1.00  0.00    -0.085 OA 
ENDROOT
BRANCH  12  14
HETATM   14  N   UNL     1      -8.009  10.386  69.773  1.00  0.00    -0.328 N  
HETATM   15  C   UNL     1      -7.492  10.891  68.597  1.00  0.00    -0.105 C  
HETATM   16  H   UNL     1      -8.827  10.847  70.171  1.00  0.00     0.000 HD 
HETATM   17  O   UNL     1      -6.524  10.394  68.038  1.00  0.00    -0.059 OA 
BRANCH  15  18
HETATM   18  C   UNL     1      -8.181  12.096  68.024  1.00  0.00    -0.158 A  
HETATM   19  C   UNL     1      -7.834  13.384  68.500  1.00  0.00    -0.115 A  
HETATM   20  C   UNL     1      -8.426  14.506  67.922  1.00  0.00    -0.161 A  
HETATM   21  C   UNL     1     -10.440  10.631  65.326  1.00  0.00    -0.264 A  
HETATM   22  C   UNL     1      -9.322  14.369  66.866  1.00  0.00    -0.269 A  
HETATM   23  C   UNL     1      -9.123  11.938  66.953  1.00  0.00    -0.196 A  
HETATM   24  C   UNL     1      -9.569  10.701  66.419  1.00  0.00    -0.230 A  
HETATM   25  C   UNL     1      -9.665  13.110  66.365  1.00  0.00    -0.269 A  
HETATM   26  C   UNL     1     -10.540  13.026  65.270  1.00  0.00    -0.320 A  
HETATM   27  C   UNL     1     -10.914  11.795  64.741  1.00  0.00    -0.360 A  
BRANCH  19  28
HETATM   28  O   UNL     1      -6.907  13.460  69.512  1.00  0.00    -0.053 OA 
BRANCH  28  29
HETATM   29  C   UNL     1      -5.949  14.517  69.458  1.00  0.00    -0.107 C  
HETATM   30  C   UNL     1      -5.432  14.758  70.866  1.00  0.00    -0.145 C  
ENDBRANCH  28  29
ENDBRANCH  19  28
ENDBRANCH  15  18
ENDBRANCH  12  14
TORSDOF 4
ENDMDL
MODEL      115
REMARK 921   NORMALIZED FREE ENERGY PREDICTED BY IDOCK:   -4.48 KCAL/MOL
REMARK 922        TOTAL FREE ENERGY PREDICTED BY IDOCK:   -6.67 KCAL/MOL
REMARK 923 INTER-LIGAND FREE ENERGY PREDICTED BY IDOCK:   -5.71 KCAL/MOL
REMARK 924 INTRA-LIGAND FREE ENERGY PREDICTED BY IDOCK:   -0.96 KCAL/MOL
REMARK 927      BINDING AFFINITY PREDICTED BY RF-SCORE:    0.00 PKD
ROOT
HETATM    1  C   UNL     1     -11.010  13.372  68.566  1.00  0.00    -0.268 C  
HETATM    2  S   UNL     1      -9.227  13.678  68.245  1.00  0.00    -0.179 SA 
HETATM    3  C   UNL     1      -9.534  14.867  66.857  1.00  0.00    -0.237 C  
HETATM    4  C   UNL     1      -8.422  15.919  66.813  1.00  0.00    -0.297 C  
HETATM    5  CA  UNL     1     -10.961  15.415  67.100  1.00  0.00    -0.317 C  
HETATM    6  C   UNL     1      -9.442  14.072  65.540  1.00  0.00     0.116 C  
HETATM    7  N   UNL     1     -11.743  14.334  67.725  1.00  0.00    -0.356 N  
HETATM    8  C   UNL     1     -11.070  16.651  68.011  1.00  0.00    -0.255 C  
HETATM    9  OXT UNL     1     -10.446  17.689  67.863  1.00  0.00    -0.362 OA 
HETATM   10  O   UNL     1     -12.009  16.522  68.984  1.00  0.00    -0.008 OA 
HETATM   11  C   UNL     1     -12.291  13.368  66.915  1.00  0.00    -0.207 C  
HETATM   12  CA  UNL     1     -11.694  12.213  67.787  1.00  0.00    -0.320 C  
HETATM   13  O   UNL     1     -12.912  13.543  65.895  1.00  0.00    -0.302 OA 
ENDROOT
BRANCH  12  14
HETATM   14  N   UNL     1     -10.761  11.217  67.191  1.00  0.00    -0.239 N  
HETATM   15  C   UNL     1     -10.071  10.268  67.916  1.00  0.00    -0.170 C  
HETATM   16  H   UNL     1     -10.623  11.238  66.180  1.00  0.00     0.000 HD 
HETATM   17  O   UNL     1     -10.186  10.156  69.129  1.00  0.00    -0.189 OA 
BRANCH  15  18
HETATM   18  C   UNL     1      -9.158   9.363  67.140  1.00  0.00    -0.148 A  
HETATM   19  C   UNL     1      -7.866   9.822  66.786  1.00  0.00    -0.102 A  
HETATM   20  C   UNL     1      -6.995   8.959  66.122  1.00  0.00    -0.081 A  
HETATM   21  C   UNL     1     -11.153   6.129  66.839  1.00  0.00    -0.301 A  
HETATM   22  C   UNL     1      -7.373   7.650  65.841  1.00  0.00    -0.074 A  
HETATM   23  C   UNL     1      -9.571   8.024  66.833  1.00  0.00    -0.265 A  
HETATM   24  C   UNL     1     -10.848   7.468  67.109  1.00  0.00    -0.298 A  
HETATM   25  C   UNL     1      -8.635   7.167  66.198  1.00  0.00    -0.151 A  
HETATM   26  C   UNL     1      -8.954   5.826  65.931  1.00  0.00    -0.158 A  
HETATM   27  C   UNL     1     -10.200   5.303  66.265  1.00  0.00    -0.263 A  
BRANCH  19  28
HETATM   28  O   UNL     1      -7.530  11.109  67.132  1.00  0.00    -0.108 OA 
BRANCH  28  29
HETATM   29  C   UNL     1      -6.431  11.292  68.026  1.00  0.00    -0.057 C  
HETATM   30  C   UNL     1      -5.395  12.156  67.329  1.00  0.00    -0.113 C  
ENDBRANCH  28  29
ENDBRANCH  19  28
ENDBRANCH  15  18
ENDBRANCH  12  14
TORSDOF 4
ENDMDL
MODEL      116
REMARK 921   NORMALIZED FREE ENERGY PREDICTED BY IDOCK:   -4.48 KCAL/MOL
REMARK 922        TOTAL FREE ENERGY PREDICTED BY IDOCK:   -6.66 KCAL/MOL
REMARK 923 INTER-LIGAND FREE ENERGY PREDICTED BY IDOCK:   -5.74 KCAL/MOL
REMARK 924 INTRA-LIGAND FREE ENERGY PREDICTED BY IDOCK:   -0.92 KCAL/MOL
REMARK 927      BINDING AFFINITY PREDICTED BY RF-SCORE:    0.00 PKD
ROOT
HETATM    1  C   UNL     1     -10.685  16.759  67.808  1.00  0.00    -0.321 C  
HETATM    2  S   UNL     1      -9.048  16.998  68.607  1.00  0.00    -0.258 SA 
HETATM    3  C   UNL     1      -8.318  17.910  67.169  1.00  0.00    -0.228 C  
HETATM    4  C   UNL     1      -7.293  18.934  67.663  1.00  0.00    -0.239 C  
HETATM    5  CA  UNL     1      -9.530  18.495  66.403  1.00  0.00    -0.301 C  
HETATM    6  C   UNL     1      -7.544  16.884  66.318  1.00  0.00    -0.312 C  
HETATM    7  N   UNL     1     -10.648  17.549  66.565  1.00  0.00    -0.249 N  
HETATM    8  C   UNL     1     -10.023  19.879  66.863  1.00  0.00    -0.435 C  
HETATM    9  OXT UNL     1      -9.321  20.871  66.979  1.00  0.00    -0.284 OA 
HETATM   10  O   UNL     1     -11.365  19.933  67.061  1.00  0.00    -0.053 OA 
HETATM   11  C   UNL     1     -10.703  16.451  65.742  1.00  0.00    -0.238 C  
HETATM   12  CA  UNL     1     -10.889  15.476  66.952  1.00  0.00    -0.301 C  
HETATM   13  O   UNL     1     -10.560  16.434  64.543  1.00  0.00    -0.544 OA 
ENDROOT
BRANCH  12  14
HETATM   14  N   UNL     1      -9.907  14.386  67.207  1.00  0.00    -0.243 N  
HETATM   15  C   UNL     1     -10.125  13.329  68.065  1.00  0.00    -0.235 C  
HETATM   16  H   UNL     1      -9.015  14.424  66.714  1.00  0.00     0.000 HD 
HETATM   17  O   UNL     1     -11.171  13.191  68.686  1.00  0.00    -0.245 OA 
BRANCH  15  18
HETATM   18  C   UNL     1      -9.007  12.338  68.208  1.00  0.00    -0.182 A  
HETATM   19  C   UNL     1      -9.123  11.068  67.593  1.00  0.00    -0.145 A  
HETATM   20  C   UNL     1      -8.058  10.172  67.671  1.00  0.00    -0.109 A  
HETATM   21  C   UNL     1      -6.360  14.258  70.167  1.00  0.00    -0.144 A  
HETATM   22  C   UNL     1      -6.877  10.531  68.314  1.00  0.00    -0.068 A  
HETATM   23  C   UNL     1      -7.804  12.712  68.897  1.00  0.00     0.137 A  
HETATM   24  C   UNL     1      -7.587  13.940  69.575  1.00  0.00     0.356 A  
HETATM   25  C   UNL     1      -6.729  11.786  68.911  1.00  0.00    -0.094 A  
HETATM   26  C   UNL     1      -5.503  12.118  69.510  1.00  0.00    -0.074 A  
HETATM   27  C   UNL     1      -5.312  13.353  70.121  1.00  0.00    -0.105 A  
BRANCH  19  28
HETATM   28  O   UNL     1     -10.295  10.786  66.931  1.00  0.00    -0.221 OA 
BRANCH  28  29
HETATM   29  C   UNL     1     -10.223   9.937  65.785  1.00  0.00    -0.181 C  
HETATM   30  C   UNL     1     -10.164  10.816  64.548  1.00  0.00    -0.428 C  
ENDBRANCH  28  29
ENDBRANCH  19  28
ENDBRANCH  15  18
ENDBRANCH  12  14
TORSDOF 4
ENDMDL
MODEL      117
REMARK 921   NORMALIZED FREE ENERGY PREDICTED BY IDOCK:   -4.47 KCAL/MOL
REMARK 922        TOTAL FREE ENERGY PREDICTED BY IDOCK:   -6.65 KCAL/MOL
REMARK 923 INTER-LIGAND FREE ENERGY PREDICTED BY IDOCK:   -5.36 KCAL/MOL
REMARK 924 INTRA-LIGAND FREE ENERGY PREDICTED BY IDOCK:   -1.29 KCAL/MOL
REMARK 927      BINDING AFFINITY PREDICTED BY RF-SCORE:    0.00 PKD
ROOT
HETATM    1  C   UNL     1      -9.095   7.643  66.492  1.00  0.00    -0.167 C  
HETATM    2  S   UNL     1      -7.484   7.572  67.373  1.00  0.00    -0.106 SA 
HETATM    3  C   UNL     1      -7.136   5.816  66.893  1.00  0.00    -0.070 C  
HETATM    4  C   UNL     1      -5.628   5.601  66.747  1.00  0.00    -0.017 C  
HETATM    5  CA  UNL     1      -7.972   5.573  65.613  1.00  0.00    -0.109 C  
HETATM    6  C   UNL     1      -7.600   4.920  68.058  1.00  0.00    -0.082 C  
HETATM    7  N   UNL     1      -9.192   6.389  65.725  1.00  0.00    -0.014 N  
HETATM    8  C   UNL     1      -7.294   5.935  64.279  1.00  0.00    -0.067 C  
HETATM    9  OXT UNL     1      -6.197   5.538  63.919  1.00  0.00    -0.021 OA 
HETATM   10  O   UNL     1      -8.074   6.694  63.467  1.00  0.00    -0.092 OA 
HETATM   11  C   UNL     1     -10.244   5.899  66.461  1.00  0.00    -0.162 C  
HETATM   12  CA  UNL     1     -10.367   7.226  67.283  1.00  0.00    -0.279 C  
HETATM   13  O   UNL     1     -10.714   4.789  66.405  1.00  0.00    -0.253 OA 
ENDROOT
BRANCH  12  14
HETATM   14  N   UNL     1     -10.215   7.218  68.764  1.00  0.00    -0.177 N  
HETATM   15  C   UNL     1     -10.421   8.317  69.572  1.00  0.00    -0.227 C  
HETATM   16  H   UNL     1      -9.940   6.343  69.210  1.00  0.00     0.000 HD 
HETATM   17  O   UNL     1     -10.770   9.403  69.128  1.00  0.00    -0.223 OA 
BRANCH  15  18
HETATM   18  C   UNL     1     -10.197   8.120  71.043  1.00  0.00    -0.221 A  
HETATM   19  C   UNL     1     -11.258   7.636  71.847  1.00  0.00    -0.257 A  
HETATM   20  C   UNL     1     -11.031   7.392  73.201  1.00  0.00    -0.408 A  
HETATM   21  C   UNL     1      -6.516   8.993  71.508  1.00  0.00    -0.071 A  
HETATM   22  C   UNL     1      -9.768   7.586  73.752  1.00  0.00    -0.303 A  
HETATM   23  C   UNL     1      -8.896   8.349  71.605  1.00  0.00    -0.246 A  
HETATM   24  C   UNL     1      -7.772   8.861  70.906  1.00  0.00    -0.139 A  
HETATM   25  C   UNL     1      -8.699   8.043  72.976  1.00  0.00    -0.281 A  
HETATM   26  C   UNL     1      -7.434   8.182  73.569  1.00  0.00    -0.197 A  
HETATM   27  C   UNL     1      -6.343   8.638  72.836  1.00  0.00    -0.067 A  
BRANCH  19  28
HETATM   28  O   UNL     1     -12.470   7.418  71.237  1.00  0.00    -0.337 OA 
BRANCH  28  29
HETATM   29  C   UNL     1     -13.606   8.116  71.748  1.00  0.00    -0.359 C  
HETATM   30  C   UNL     1     -13.427   9.594  71.448  1.00  0.00    -0.403 C  
ENDBRANCH  28  29
ENDBRANCH  19  28
ENDBRANCH  15  18
ENDBRANCH  12  14
TORSDOF 4
ENDMDL
MODEL      118
REMARK 921   NORMALIZED FREE ENERGY PREDICTED BY IDOCK:   -4.47 KCAL/MOL
REMARK 922        TOTAL FREE ENERGY PREDICTED BY IDOCK:   -6.65 KCAL/MOL
REMARK 923 INTER-LIGAND FREE ENERGY PREDICTED BY IDOCK:   -5.33 KCAL/MOL
REMARK 924 INTRA-LIGAND FREE ENERGY PREDICTED BY IDOCK:   -1.31 KCAL/MOL
REMARK 927      BINDING AFFINITY PREDICTED BY RF-SCORE:    0.00 PKD
ROOT
HETATM    1  C   UNL     1      -9.051   9.221  70.813  1.00  0.00    -0.244 C  
HETATM    2  S   UNL     1      -8.685   8.118  69.391  1.00  0.00    -0.143 SA 
HETATM    3  C   UNL     1     -10.454   7.984  68.856  1.00  0.00    -0.191 C  
HETATM    4  C   UNL     1     -10.531   7.818  67.336  1.00  0.00    -0.362 C  
HETATM    5  CA  UNL     1     -11.147   9.246  69.424  1.00  0.00    -0.043 C  
HETATM    6  C   UNL     1     -11.025   6.691  69.471  1.00  0.00    -0.367 C  
HETATM    7  N   UNL     1     -10.475   9.579  70.692  1.00  0.00    -0.286 N  
HETATM    8  C   UNL     1     -11.109  10.503  68.536  1.00  0.00    -0.275 C  
HETATM    9  OXT UNL     1     -11.466  10.548  67.370  1.00  0.00    -0.405 OA 
HETATM   10  O   UNL     1     -10.707  11.618  69.198  1.00  0.00    -0.208 OA 
HETATM   11  C   UNL     1     -10.849   8.906  71.830  1.00  0.00    -0.365 C  
HETATM   12  CA  UNL     1      -9.365   8.553  72.182  1.00  0.00    -0.283 C  
HETATM   13  O   UNL     1     -11.974   8.697  72.213  1.00  0.00    -0.364 OA 
ENDROOT
BRANCH  12  14
HETATM   14  N   UNL     1      -8.930   7.134  72.305  1.00  0.00    -0.131 N  
HETATM   15  C   UNL     1      -8.901   6.430  73.491  1.00  0.00    -0.124 C  
HETATM   16  H   UNL     1      -8.635   6.651  71.456  1.00  0.00     0.000 HD 
HETATM   17  O   UNL     1      -9.253   6.921  74.555  1.00  0.00    -0.204 OA 
BRANCH  15  18
HETATM   18  C   UNL     1      -8.411   5.013  73.419  1.00  0.00    -0.110 A  
HETATM   19  C   UNL     1      -7.018   4.761  73.422  1.00  0.00    -0.071 A  
HETATM   20  C   UNL     1      -6.564   3.442  73.420  1.00  0.00    -0.030 A  
HETATM   21  C   UNL     1     -11.621   2.958  73.464  1.00  0.00    -0.113 A  
HETATM   22  C   UNL     1      -7.466   2.383  73.451  1.00  0.00    -0.041 A  
HETATM   23  C   UNL     1      -9.353   3.930  73.424  1.00  0.00    -0.121 A  
HETATM   24  C   UNL     1     -10.766   4.063  73.388  1.00  0.00    -0.299 A  
HETATM   25  C   UNL     1      -8.846   2.606  73.468  1.00  0.00    -0.075 A  
HETATM   26  C   UNL     1      -9.715   1.505  73.543  1.00  0.00    -0.099 A  
HETATM   27  C   UNL     1     -11.095   1.679  73.558  1.00  0.00    -0.263 A  
BRANCH  19  28
HETATM   28  O   UNL     1      -6.174   5.846  73.441  1.00  0.00    -0.059 OA 
BRANCH  28  29
HETATM   29  C   UNL     1      -5.380   6.090  72.279  1.00  0.00    -0.023 C  
HETATM   30  C   UNL     1      -5.346   7.589  72.037  1.00  0.00    -0.036 C  
ENDBRANCH  28  29
ENDBRANCH  19  28
ENDBRANCH  15  18
ENDBRANCH  12  14
TORSDOF 4
ENDMDL
MODEL      119
REMARK 921   NORMALIZED FREE ENERGY PREDICTED BY IDOCK:   -4.46 KCAL/MOL
REMARK 922        TOTAL FREE ENERGY PREDICTED BY IDOCK:   -6.63 KCAL/MOL
REMARK 923 INTER-LIGAND FREE ENERGY PREDICTED BY IDOCK:   -5.55 KCAL/MOL
REMARK 924 INTRA-LIGAND FREE ENERGY PREDICTED BY IDOCK:   -1.09 KCAL/MOL
REMARK 927      BINDING AFFINITY PREDICTED BY RF-SCORE:    0.00 PKD
ROOT
HETATM    1  C   UNL     1      -7.017  15.655  68.939  1.00  0.00    -0.130 C  
HETATM    2  S   UNL     1      -6.376  15.751  67.220  1.00  0.00     0.031 SA 
HETATM    3  C   UNL     1      -7.370  17.253  66.781  1.00  0.00    -0.213 C  
HETATM    4  C   UNL     1      -6.608  18.108  65.766  1.00  0.00    -0.313 C  
HETATM    5  CA  UNL     1      -7.682  17.941  68.132  1.00  0.00    -0.256 C  
HETATM    6  C   UNL     1      -8.652  16.767  66.077  1.00  0.00    -0.213 C  
HETATM    7  N   UNL     1      -7.809  16.879  69.145  1.00  0.00    -0.177 N  
HETATM    8  C   UNL     1      -6.632  18.945  68.644  1.00  0.00    -0.264 C  
HETATM    9  OXT UNL     1      -6.189  19.884  68.002  1.00  0.00    -0.221 OA 
HETATM   10  O   UNL     1      -6.284  18.746  69.941  1.00  0.00    -0.246 OA 
HETATM   11  C   UNL     1      -9.006  16.213  69.250  1.00  0.00    -0.200 C  
HETATM   12  CA  UNL     1      -8.303  14.815  69.183  1.00  0.00    -0.104 C  
HETATM   13  O   UNL     1     -10.108  16.702  69.289  1.00  0.00    -0.272 OA 
ENDROOT
BRANCH  12  14
HETATM   14  N   UNL     1      -8.639  13.848  68.102  1.00  0.00    -0.173 N  
HETATM   15  C   UNL     1      -8.253  12.524  68.096  1.00  0.00    -0.170 C  
HETATM   16  H   UNL     1      -9.190  14.188  67.313  1.00  0.00     0.000 HD 
HETATM   17  O   UNL     1      -7.605  12.024  69.006  1.00  0.00    -0.062 OA 
BRANCH  15  18
HETATM   18  C   UNL     1      -8.669  11.708  66.906  1.00  0.00    -0.185 A  
HETATM   19  C   UNL     1     -10.046  11.561  66.614  1.00  0.00    -0.210 A  
HETATM   20  C   UNL     1     -10.431  10.858  65.473  1.00  0.00    -0.286 A  
HETATM   21  C   UNL     1      -5.355  10.701  65.314  1.00  0.00    -0.145 A  
HETATM   22  C   UNL     1      -9.473  10.337  64.608  1.00  0.00    -0.351 A  
HETATM   23  C   UNL     1      -7.671  11.153  66.036  1.00  0.00    -0.001 A  
HETATM   24  C   UNL     1      -6.268  11.210  66.245  1.00  0.00    -0.102 A  
HETATM   25  C   UNL     1      -8.107  10.486  64.863  1.00  0.00    -0.086 A  
HETATM   26  C   UNL     1      -7.180   9.979  63.938  1.00  0.00    -0.125 A  
HETATM   27  C   UNL     1      -5.811  10.100  64.152  1.00  0.00    -0.140 A  
BRANCH  19  28
HETATM   28  O   UNL     1     -10.945  12.139  67.479  1.00  0.00    -0.235 OA 
BRANCH  28  29
HETATM   29  C   UNL     1     -11.657  11.280  68.371  1.00  0.00    -0.308 C  
HETATM   30  C   UNL     1     -11.744  11.969  69.721  1.00  0.00    -0.390 C  
ENDBRANCH  28  29
ENDBRANCH  19  28
ENDBRANCH  15  18
ENDBRANCH  12  14
TORSDOF 4
ENDMDL
MODEL      120
REMARK 921   NORMALIZED FREE ENERGY PREDICTED BY IDOCK:   -4.44 KCAL/MOL
REMARK 922        TOTAL FREE ENERGY PREDICTED BY IDOCK:   -6.61 KCAL/MOL
REMARK 923 INTER-LIGAND FREE ENERGY PREDICTED BY IDOCK:   -5.48 KCAL/MOL
REMARK 924 INTRA-LIGAND FREE ENERGY PREDICTED BY IDOCK:   -1.14 KCAL/MOL
REMARK 927      BINDING AFFINITY PREDICTED BY RF-SCORE:    0.00 PKD
ROOT
HETATM    1  C   UNL     1      -9.725   9.774  67.558  1.00  0.00    -0.157 C  
HETATM    2  S   UNL     1      -7.892   9.766  67.681  1.00  0.00    -0.094 SA 
HETATM    3  C   UNL     1      -7.665   8.491  66.356  1.00  0.00    -0.098 C  
HETATM    4  C   UNL     1      -6.350   8.737  65.611  1.00  0.00    -0.056 C  
HETATM    5  CA  UNL     1      -8.946   8.573  65.491  1.00  0.00    -0.132 C  
HETATM    6  C   UNL     1      -7.530   7.123  67.051  1.00  0.00    -0.097 C  
HETATM    7  N   UNL     1     -10.055   8.944  66.386  1.00  0.00    -0.291 N  
HETATM    8  C   UNL     1      -8.924   9.590  64.335  1.00  0.00    -0.212 C  
HETATM    9  OXT UNL     1      -8.060   9.657  63.476  1.00  0.00    -0.131 OA 
HETATM   10  O   UNL     1     -10.023  10.386  64.298  1.00  0.00    -0.335 OA 
HETATM   11  C   UNL     1     -10.661   7.957  67.125  1.00  0.00    -0.313 C  
HETATM   12  CA  UNL     1     -10.511   8.773  68.452  1.00  0.00    -0.176 C  
HETATM   13  O   UNL     1     -11.035   6.880  66.729  1.00  0.00    -0.329 OA 
ENDROOT
BRANCH  12  14
HETATM   14  N   UNL     1      -9.745   8.219  69.602  1.00  0.00    -0.172 N  
HETATM   15  C   UNL     1      -9.895   8.636  70.909  1.00  0.00    -0.205 C  
HETATM   16  H   UNL     1      -9.065   7.483  69.411  1.00  0.00     0.000 HD 
HETATM   17  O   UNL     1     -10.697   9.500  71.235  1.00  0.00    -0.332 OA 
BRANCH  15  18
HETATM   18  C   UNL     1      -9.016   7.973  71.930  1.00  0.00    -0.200 A  
HETATM   19  C   UNL     1      -7.724   8.497  72.177  1.00  0.00    -0.078 A  
HETATM   20  C   UNL     1      -6.933   7.921  73.170  1.00  0.00    -0.108 A  
HETATM   21  C   UNL     1     -11.227   5.210  73.348  1.00  0.00    -0.358 A  
HETATM   22  C   UNL     1      -7.418   6.866  73.937  1.00  0.00    -0.097 A  
HETATM   23  C   UNL     1      -9.518   6.868  72.696  1.00  0.00    -0.159 A  
HETATM   24  C   UNL     1     -10.779   6.242  72.514  1.00  0.00    -0.256 A  
HETATM   25  C   UNL     1      -8.697   6.344  73.726  1.00  0.00    -0.132 A  
HETATM   26  C   UNL     1      -9.157   5.307  74.555  1.00  0.00    -0.114 A  
HETATM   27  C   UNL     1     -10.421   4.754  74.379  1.00  0.00    -0.331 A  
BRANCH  19  28
HETATM   28  O   UNL     1      -7.317   9.571  71.421  1.00  0.00    -0.330 OA 
BRANCH  28  29
HETATM   29  C   UNL     1      -6.044   9.487  70.779  1.00  0.00    -0.073 C  
HETATM   30  C   UNL     1      -5.469  10.890  70.688  1.00  0.00    -0.111 C  
ENDBRANCH  28  29
ENDBRANCH  19  28
ENDBRANCH  15  18
ENDBRANCH  12  14
TORSDOF 4
ENDMDL
MODEL      121
REMARK 921   NORMALIZED FREE ENERGY PREDICTED BY IDOCK:   -4.43 KCAL/MOL
REMARK 922        TOTAL FREE ENERGY PREDICTED BY IDOCK:   -6.60 KCAL/MOL
REMARK 923 INTER-LIGAND FREE ENERGY PREDICTED BY IDOCK:   -6.33 KCAL/MOL
REMARK 924 INTRA-LIGAND FREE ENERGY PREDICTED BY IDOCK:   -0.27 KCAL/MOL
REMARK 927      BINDING AFFINITY PREDICTED BY RF-SCORE:    0.00 PKD
ROOT
HETATM    1  C   UNL     1     -10.194  13.084  67.448  1.00  0.00    -0.231 C  
HETATM    2  S   UNL     1      -9.097  12.402  66.141  1.00  0.00     0.046 SA 
HETATM    3  C   UNL     1     -10.419  11.349  65.381  1.00  0.00    -0.280 C  
HETATM    4  C   UNL     1     -10.183  11.218  63.874  1.00  0.00    -0.420 C  
HETATM    5  CA  UNL     1     -11.754  12.016  65.791  1.00  0.00    -0.245 C  
HETATM    6  C   UNL     1     -10.279   9.934  65.975  1.00  0.00    -0.269 C  
HETATM    7  N   UNL     1     -11.552  12.618  67.120  1.00  0.00    -0.348 N  
HETATM    8  C   UNL     1     -12.279  13.121  64.857  1.00  0.00    -0.428 C  
HETATM    9  OXT UNL     1     -12.439  13.005  63.652  1.00  0.00    -0.666 OA 
HETATM   10  O   UNL     1     -12.639  14.254  65.513  1.00  0.00    -0.458 OA 
HETATM   11  C   UNL     1     -11.656  11.813  68.228  1.00  0.00    -0.308 C  
HETATM   12  CA  UNL     1     -10.282  12.308  68.792  1.00  0.00    -0.102 C  
HETATM   13  O   UNL     1     -12.530  11.015  68.467  1.00  0.00    -0.440 OA 
ENDROOT
BRANCH  12  14
HETATM   14  N   UNL     1      -9.172  11.347  69.039  1.00  0.00    -0.400 N  
HETATM   15  C   UNL     1      -9.346  10.068  69.527  1.00  0.00    -0.229 C  
HETATM   16  H   UNL     1      -8.221  11.654  68.835  1.00  0.00     0.000 HD 
HETATM   17  O   UNL     1     -10.450   9.607  69.785  1.00  0.00    -0.207 OA 
BRANCH  15  18
HETATM   18  C   UNL     1      -8.101   9.253  69.732  1.00  0.00    -0.120 A  
HETATM   19  C   UNL     1      -7.156   9.157  68.682  1.00  0.00    -0.071 A  
HETATM   20  C   UNL     1      -5.971   8.453  68.894  1.00  0.00    -0.043 A  
HETATM   21  C   UNL     1      -8.381   8.092  73.352  1.00  0.00    -0.278 A  
HETATM   22  C   UNL     1      -5.700   7.882  70.133  1.00  0.00    -0.023 A  
HETATM   23  C   UNL     1      -7.846   8.646  71.007  1.00  0.00    -0.128 A  
HETATM   24  C   UNL     1      -8.731   8.649  72.117  1.00  0.00    -0.217 A  
HETATM   25  C   UNL     1      -6.607   7.980  71.191  1.00  0.00    -0.038 A  
HETATM   26  C   UNL     1      -6.269   7.423  72.436  1.00  0.00    -0.043 A  
HETATM   27  C   UNL     1      -7.143   7.493  73.516  1.00  0.00    -0.096 A  
BRANCH  19  28
HETATM   28  O   UNL     1      -7.457   9.782  67.495  1.00  0.00    -0.090 OA 
BRANCH  28  29
HETATM   29  C   UNL     1      -6.842   9.284  66.307  1.00  0.00    -0.082 C  
HETATM   30  C   UNL     1      -5.999  10.397  65.709  1.00  0.00    -0.117 C  
ENDBRANCH  28  29
ENDBRANCH  19  28
ENDBRANCH  15  18
ENDBRANCH  12  14
TORSDOF 4
ENDMDL
MODEL      122
REMARK 921   NORMALIZED FREE ENERGY PREDICTED BY IDOCK:   -4.43 KCAL/MOL
REMARK 922        TOTAL FREE ENERGY PREDICTED BY IDOCK:   -6.60 KCAL/MOL
REMARK 923 INTER-LIGAND FREE ENERGY PREDICTED BY IDOCK:   -6.66 KCAL/MOL
REMARK 924 INTRA-LIGAND FREE ENERGY PREDICTED BY IDOCK:    0.06 KCAL/MOL
REMARK 927      BINDING AFFINITY PREDICTED BY RF-SCORE:    0.00 PKD
ROOT
HETATM    1  C   UNL     1      -6.950   9.710  66.053  1.00  0.00    -0.093 C  
HETATM    2  S   UNL     1      -7.286   8.594  67.473  1.00  0.00    -0.089 SA 
HETATM    3  C   UNL     1      -8.362   7.442  66.498  1.00  0.00    -0.124 C  
HETATM    4  C   UNL     1      -8.230   6.016  67.041  1.00  0.00    -0.105 C  
HETATM    5  CA  UNL     1      -7.931   7.636  65.024  1.00  0.00    -0.131 C  
HETATM    6  C   UNL     1      -9.824   7.870  66.728  1.00  0.00    -0.318 C  
HETATM    7  N   UNL     1      -7.520   9.042  64.870  1.00  0.00    -0.102 N  
HETATM    8  C   UNL     1      -6.767   6.757  64.532  1.00  0.00    -0.042 C  
HETATM    9  OXT UNL     1      -6.715   5.541  64.630  1.00  0.00    -0.041 OA 
HETATM   10  O   UNL     1      -5.800   7.457  63.885  1.00  0.00    -0.043 OA 
HETATM   11  C   UNL     1      -8.493   9.993  64.673  1.00  0.00    -0.176 C  
HETATM   12  CA  UNL     1      -7.928  10.896  65.820  1.00  0.00    -0.075 C  
HETATM   13  O   UNL     1      -9.417   9.936  63.898  1.00  0.00    -0.273 OA 
ENDROOT
BRANCH  12  14
HETATM   14  N   UNL     1      -8.775  11.253  66.992  1.00  0.00    -0.147 N  
HETATM   15  C   UNL     1     -10.154  11.285  66.973  1.00  0.00    -0.206 C  
HETATM   16  H   UNL     1      -8.305  11.490  67.866  1.00  0.00     0.000 HD 
HETATM   17  O   UNL     1     -10.804  11.000  65.976  1.00  0.00    -0.217 OA 
BRANCH  15  18
HETATM   18  C   UNL     1     -10.834  11.691  68.248  1.00  0.00    -0.260 A  
HETATM   19  C   UNL     1     -11.328  13.011  68.380  1.00  0.00    -0.291 A  
HETATM   20  C   UNL     1     -12.016  13.369  69.539  1.00  0.00    -0.377 A  
HETATM   21  C   UNL     1     -10.872   8.477  70.298  1.00  0.00    -0.249 A  
HETATM   22  C   UNL     1     -12.249  12.432  70.541  1.00  0.00    -0.382 A  
HETATM   23  C   UNL     1     -11.044  10.721  69.286  1.00  0.00    -0.312 A  
HETATM   24  C   UNL     1     -10.568   9.384  69.277  1.00  0.00    -0.239 A  
HETATM   25  C   UNL     1     -11.789  11.117  70.426  1.00  0.00    -0.462 A  
HETATM   26  C   UNL     1     -12.087  10.197  71.445  1.00  0.00    -0.475 A  
HETATM   27  C   UNL     1     -11.646   8.880  71.375  1.00  0.00    -0.382 A  
BRANCH  19  28
HETATM   28  O   UNL     1     -11.110  13.879  67.337  1.00  0.00    -0.286 OA 
BRANCH  28  29
HETATM   29  C   UNL     1     -12.248  14.338  66.606  1.00  0.00    -0.381 C  
HETATM   30  C   UNL     1     -11.885  14.354  65.131  1.00  0.00    -0.386 C  
ENDBRANCH  28  29
ENDBRANCH  19  28
ENDBRANCH  15  18
ENDBRANCH  12  14
TORSDOF 4
ENDMDL
MODEL      123
REMARK 921   NORMALIZED FREE ENERGY PREDICTED BY IDOCK:   -4.42 KCAL/MOL
REMARK 922        TOTAL FREE ENERGY PREDICTED BY IDOCK:   -6.59 KCAL/MOL
REMARK 923 INTER-LIGAND FREE ENERGY PREDICTED BY IDOCK:   -7.41 KCAL/MOL
REMARK 924 INTRA-LIGAND FREE ENERGY PREDICTED BY IDOCK:    0.82 KCAL/MOL
REMARK 927      BINDING AFFINITY PREDICTED BY RF-SCORE:    0.00 PKD
ROOT
HETATM    1  C   UNL     1     -11.065  15.692  66.529  1.00  0.00    -0.135 C  
HETATM    2  S   UNL     1      -9.516  14.829  66.048  1.00  0.00    -0.212 SA 
HETATM    3  C   UNL     1      -9.994  13.223  66.839  1.00  0.00    -0.250 C  
HETATM    4  C   UNL     1      -9.393  12.053  66.056  1.00  0.00    -0.196 C  
HETATM    5  CA  UNL     1     -11.540  13.253  66.913  1.00  0.00    -0.364 C  
HETATM    6  C   UNL     1      -9.354  13.193  68.241  1.00  0.00    -0.201 C  
HETATM    7  N   UNL     1     -11.942  14.657  67.103  1.00  0.00    -0.356 N  
HETATM    8  C   UNL     1     -12.291  12.719  65.680  1.00  0.00    -0.382 C  
HETATM    9  OXT UNL     1     -12.104  11.629  65.162  1.00  0.00    -0.151 OA 
HETATM   10  O   UNL     1     -13.270  13.552  65.244  1.00  0.00    -0.688 OA 
HETATM   11  C   UNL     1     -11.908  15.183  68.372  1.00  0.00    -0.267 C  
HETATM   12  CA  UNL     1     -11.084  16.428  67.899  1.00  0.00    -0.249 C  
HETATM   13  O   UNL     1     -12.344  14.680  69.379  1.00  0.00    -0.263 OA 
ENDROOT
BRANCH  12  14
HETATM   14  N   UNL     1      -9.743  16.715  68.479  1.00  0.00    -0.235 N  
HETATM   15  C   UNL     1      -8.835  17.601  67.936  1.00  0.00    -0.246 C  
HETATM   16  H   UNL     1      -9.478  16.225  69.333  1.00  0.00     0.000 HD 
HETATM   17  O   UNL     1      -9.072  18.247  66.924  1.00  0.00    -0.267 OA 
BRANCH  15  18
HETATM   18  C   UNL     1      -7.523  17.741  68.652  1.00  0.00    -0.274 A  
HETATM   19  C   UNL     1      -6.939  19.025  68.782  1.00  0.00    -0.310 A  
HETATM   20  C   UNL     1      -5.753  19.164  69.502  1.00  0.00    -0.246 A  
HETATM   21  C   UNL     1      -6.781  14.201  69.854  1.00  0.00    -0.036 A  
HETATM   22  C   UNL     1      -5.167  18.063  70.121  1.00  0.00    -0.234 A  
HETATM   23  C   UNL     1      -6.916  16.593  69.263  1.00  0.00    -0.225 A  
HETATM   24  C   UNL     1      -7.393  15.259  69.173  1.00  0.00    -0.172 A  
HETATM   25  C   UNL     1      -5.736  16.790  70.025  1.00  0.00    -0.221 A  
HETATM   26  C   UNL     1      -5.130  15.719  70.703  1.00  0.00    -0.169 A  
HETATM   27  C   UNL     1      -5.658  14.434  70.633  1.00  0.00    -0.156 A  
BRANCH  19  28
HETATM   28  O   UNL     1      -7.587  20.082  68.190  1.00  0.00    -0.298 OA 
BRANCH  28  29
HETATM   29  C   UNL     1      -6.801  21.008  67.438  1.00  0.00    -0.371 C  
HETATM   30  C   UNL     1      -6.390  20.332  66.141  1.00  0.00    -0.237 C  
ENDBRANCH  28  29
ENDBRANCH  19  28
ENDBRANCH  15  18
ENDBRANCH  12  14
TORSDOF 4
ENDMDL
MODEL      124
REMARK 921   NORMALIZED FREE ENERGY PREDICTED BY IDOCK:   -4.38 KCAL/MOL
REMARK 922        TOTAL FREE ENERGY PREDICTED BY IDOCK:   -6.54 KCAL/MOL
REMARK 923 INTER-LIGAND FREE ENERGY PREDICTED BY IDOCK:   -5.75 KCAL/MOL
REMARK 924 INTRA-LIGAND FREE ENERGY PREDICTED BY IDOCK:   -0.79 KCAL/MOL
REMARK 927      BINDING AFFINITY PREDICTED BY RF-SCORE:    0.00 PKD
ROOT
HETATM    1  C   UNL     1     -10.405  13.629  66.839  1.00  0.00    -0.262 C  
HETATM    2  S   UNL     1     -11.290  14.209  68.341  1.00  0.00    -0.306 SA 
HETATM    3  C   UNL     1     -10.016  15.483  68.775  1.00  0.00    -0.214 C  
HETATM    4  C   UNL     1     -10.681  16.677  69.464  1.00  0.00    -0.306 C  
HETATM    5  CA  UNL     1      -9.291  15.800  67.444  1.00  0.00    -0.210 C  
HETATM    6  C   UNL     1      -9.064  14.849  69.808  1.00  0.00     0.201 C  
HETATM    7  N   UNL     1      -9.283  14.562  66.645  1.00  0.00    -0.265 N  
HETATM    8  C   UNL     1      -9.914  16.908  66.576  1.00  0.00    -0.301 C  
HETATM    9  OXT UNL     1     -10.188  18.032  66.964  1.00  0.00    -0.331 OA 
HETATM   10  O   UNL     1     -10.067  16.550  65.275  1.00  0.00    -0.564 OA 
HETATM   11  C   UNL     1      -8.318  13.620  66.904  1.00  0.00     0.004 C  
HETATM   12  CA  UNL     1      -9.378  12.473  67.009  1.00  0.00    -0.210 C  
HETATM   13  O   UNL     1      -7.134  13.812  67.043  1.00  0.00     0.006 OA 
ENDROOT
BRANCH  12  14
HETATM   14  N   UNL     1      -9.521  11.683  68.263  1.00  0.00    -0.187 N  
HETATM   15  C   UNL     1      -9.630  10.309  68.307  1.00  0.00    -0.142 C  
HETATM   16  H   UNL     1      -9.538  12.191  69.147  1.00  0.00     0.000 HD 
HETATM   17  O   UNL     1      -9.601   9.614  67.299  1.00  0.00    -0.155 OA 
BRANCH  15  18
HETATM   18  C   UNL     1      -9.788   9.691  69.666  1.00  0.00    -0.233 A  
HETATM   19  C   UNL     1      -8.679   9.047  70.267  1.00  0.00    -0.184 A  
HETATM   20  C   UNL     1      -8.808   8.530  71.556  1.00  0.00    -0.260 A  
HETATM   21  C   UNL     1     -13.368  10.572  70.635  1.00  0.00     0.000 A  
HETATM   22  C   UNL     1      -9.999   8.676  72.261  1.00  0.00    -0.361 A  
HETATM   23  C   UNL     1     -11.030   9.825  70.372  1.00  0.00    -0.371 A  
HETATM   24  C   UNL     1     -12.213  10.419  69.859  1.00  0.00    -0.215 A  
HETATM   25  C   UNL     1     -11.101   9.325  71.697  1.00  0.00    -0.438 A  
HETATM   26  C   UNL     1     -12.266   9.484  72.465  1.00  0.00     0.193 A  
HETATM   27  C   UNL     1     -13.389  10.119  71.944  1.00  0.00    -0.505 A  
BRANCH  19  28
HETATM   28  O   UNL     1      -7.514   8.976  69.542  1.00  0.00    -0.072 OA 
BRANCH  28  29
HETATM   29  C   UNL     1      -6.546   8.002  69.933  1.00  0.00    -0.036 C  
HETATM   30  C   UNL     1      -5.402   8.725  70.624  1.00  0.00    -0.027 C  
ENDBRANCH  28  29
ENDBRANCH  19  28
ENDBRANCH  15  18
ENDBRANCH  12  14
TORSDOF 4
ENDMDL
MODEL      125
REMARK 921   NORMALIZED FREE ENERGY PREDICTED BY IDOCK:   -4.36 KCAL/MOL
REMARK 922        TOTAL FREE ENERGY PREDICTED BY IDOCK:   -6.52 KCAL/MOL
REMARK 923 INTER-LIGAND FREE ENERGY PREDICTED BY IDOCK:   -5.71 KCAL/MOL
REMARK 924 INTRA-LIGAND FREE ENERGY PREDICTED BY IDOCK:   -0.81 KCAL/MOL
REMARK 927      BINDING AFFINITY PREDICTED BY RF-SCORE:    0.00 PKD
ROOT
HETATM    1  C   UNL     1     -11.592  15.916  69.205  1.00  0.00    -0.379 C  
HETATM    2  S   UNL     1     -12.910  14.636  69.215  1.00  0.00     0.842 SA 
HETATM    3  C   UNL     1     -12.197  13.709  70.653  1.00  0.00    -0.360 C  
HETATM    4  C   UNL     1     -13.319  13.061  71.468  1.00  0.00    -0.284 C  
HETATM    5  CA  UNL     1     -11.332  14.744  71.414  1.00  0.00    -0.074 C  
HETATM    6  C   UNL     1     -11.344  12.559  70.083  1.00  0.00     0.170 C  
HETATM    7  N   UNL     1     -10.785  15.676  70.413  1.00  0.00    -0.330 N  
HETATM    8  C   UNL     1     -12.057  15.583  72.481  1.00  0.00    -0.437 C  
HETATM    9  OXT UNL     1     -12.730  15.130  73.393  1.00  0.00    -0.452 OA 
HETATM   10  O   UNL     1     -11.814  16.915  72.374  1.00  0.00    -0.243 OA 
HETATM   11  C   UNL     1      -9.662  15.304  69.715  1.00  0.00    -0.156 C  
HETATM   12  CA  UNL     1     -10.329  15.643  68.340  1.00  0.00    -0.231 C  
HETATM   13  O   UNL     1      -8.648  14.832  70.170  1.00  0.00     0.424 OA 
ENDROOT
BRANCH  12  14
HETATM   14  N   UNL     1     -10.494  14.593  67.297  1.00  0.00    -0.264 N  
HETATM   15  C   UNL     1      -9.448  13.931  66.689  1.00  0.00    -0.285 C  
HETATM   16  H   UNL     1     -11.443  14.347  67.014  1.00  0.00     0.000 HD 
HETATM   17  O   UNL     1      -8.278  14.146  66.977  1.00  0.00    -0.170 OA 
BRANCH  15  18
HETATM   18  C   UNL     1      -9.812  12.917  65.643  1.00  0.00    -0.185 A  
HETATM   19  C   UNL     1     -10.587  13.321  64.529  1.00  0.00    -0.419 A  
HETATM   20  C   UNL     1     -10.871  12.395  63.525  1.00  0.00    -0.487 A  
HETATM   21  C   UNL     1      -8.041   9.751  66.814  1.00  0.00    -0.120 A  
HETATM   22  C   UNL     1     -10.369  11.099  63.595  1.00  0.00    -0.449 A  
HETATM   23  C   UNL     1      -9.310  11.576  65.741  1.00  0.00    -0.238 A  
HETATM   24  C   UNL     1      -8.554  11.053  66.823  1.00  0.00    -0.152 A  
HETATM   25  C   UNL     1      -9.585  10.683  64.674  1.00  0.00    -0.334 A  
HETATM   26  C   UNL     1      -9.066   9.377  64.678  1.00  0.00    -0.228 A  
HETATM   27  C   UNL     1      -8.284   8.918  65.733  1.00  0.00    -0.116 A  
BRANCH  19  28
HETATM   28  O   UNL     1     -11.015  14.626  64.490  1.00  0.00    -0.339 OA 
BRANCH  28  29
HETATM   29  C   UNL     1     -12.415  14.863  64.341  1.00  0.00    -0.207 C  
HETATM   30  C   UNL     1     -13.152  13.965  65.320  1.00  0.00    -0.205 C  
ENDBRANCH  28  29
ENDBRANCH  19  28
ENDBRANCH  15  18
ENDBRANCH  12  14
TORSDOF 4
ENDMDL
MODEL      126
REMARK 921   NORMALIZED FREE ENERGY PREDICTED BY IDOCK:   -4.35 KCAL/MOL
REMARK 922        TOTAL FREE ENERGY PREDICTED BY IDOCK:   -6.51 KCAL/MOL
REMARK 923 INTER-LIGAND FREE ENERGY PREDICTED BY IDOCK:   -5.21 KCAL/MOL
REMARK 924 INTRA-LIGAND FREE ENERGY PREDICTED BY IDOCK:   -1.30 KCAL/MOL
REMARK 927      BINDING AFFINITY PREDICTED BY RF-SCORE:    0.00 PKD
ROOT
HETATM    1  C   UNL     1      -7.244   5.731  65.880  1.00  0.00    -0.075 C  
HETATM    2  S   UNL     1      -6.399   5.757  67.511  1.00  0.00    -0.043 SA 
HETATM    3  C   UNL     1      -7.033   4.093  68.027  1.00  0.00    -0.058 C  
HETATM    4  C   UNL     1      -6.009   3.398  68.928  1.00  0.00    -0.024 C  
HETATM    5  CA  UNL     1      -7.366   3.359  66.705  1.00  0.00    -0.075 C  
HETATM    6  C   UNL     1      -8.291   4.326  68.885  1.00  0.00    -0.092 C  
HETATM    7  N   UNL     1      -7.810   4.378  65.739  1.00  0.00    -0.094 N  
HETATM    8  C   UNL     1      -6.213   2.574  66.054  1.00  0.00    -0.024 C  
HETATM    9  OXT UNL     1      -5.528   1.736  66.618  1.00  0.00    -0.012 OA 
HETATM   10  O   UNL     1      -6.064   2.837  64.730  1.00  0.00    -0.018 OA 
HETATM   11  C   UNL     1      -9.114   4.805  65.788  1.00  0.00    -0.142 C  
HETATM   12  CA  UNL     1      -8.686   6.311  65.806  1.00  0.00    -0.139 C  
HETATM   13  O   UNL     1     -10.102   4.115  65.865  1.00  0.00    -0.208 OA 
ENDROOT
BRANCH  12  14
HETATM   14  N   UNL     1      -9.068   7.195  66.941  1.00  0.00    -0.135 N  
HETATM   15  C   UNL     1     -10.365   7.397  67.366  1.00  0.00    -0.270 C  
HETATM   16  H   UNL     1      -8.322   7.684  67.437  1.00  0.00     0.000 HD 
HETATM   17  O   UNL     1     -11.322   6.841  66.844  1.00  0.00    -0.318 OA 
BRANCH  15  18
HETATM   18  C   UNL     1     -10.555   8.344  68.515  1.00  0.00    -0.149 A  
HETATM   19  C   UNL     1     -10.489   9.739  68.282  1.00  0.00    -0.216 A  
HETATM   20  C   UNL     1     -10.729  10.619  69.336  1.00  0.00    -0.281 A  
HETATM   21  C   UNL     1     -11.325   6.038  71.451  1.00  0.00    -0.301 A  
HETATM   22  C   UNL     1     -11.067  10.137  70.597  1.00  0.00    -0.397 A  
HETATM   23  C   UNL     1     -10.876   7.833  69.817  1.00  0.00    -0.211 A  
HETATM   24  C   UNL     1     -10.938   6.460  70.174  1.00  0.00    -0.395 A  
HETATM   25  C   UNL     1     -11.158   8.765  70.848  1.00  0.00    -0.320 A  
HETATM   26  C   UNL     1     -11.544   8.328  72.126  1.00  0.00    -0.428 A  
HETATM   27  C   UNL     1     -11.644   6.973  72.423  1.00  0.00    -0.284 A  
BRANCH  19  28
HETATM   28  O   UNL     1     -10.199  10.158  67.005  1.00  0.00    -0.211 OA 
BRANCH  28  29
HETATM   29  C   UNL     1      -9.281  11.242  66.853  1.00  0.00    -0.175 C  
HETATM   30  C   UNL     1      -7.873  10.689  66.987  1.00  0.00    -0.117 C  
ENDBRANCH  28  29
ENDBRANCH  19  28
ENDBRANCH  15  18
ENDBRANCH  12  14
TORSDOF 4
ENDMDL
MODEL      127
REMARK 921   NORMALIZED FREE ENERGY PREDICTED BY IDOCK:   -4.33 KCAL/MOL
REMARK 922        TOTAL FREE ENERGY PREDICTED BY IDOCK:   -6.49 KCAL/MOL
REMARK 923 INTER-LIGAND FREE ENERGY PREDICTED BY IDOCK:   -5.23 KCAL/MOL
REMARK 924 INTRA-LIGAND FREE ENERGY PREDICTED BY IDOCK:   -1.26 KCAL/MOL
REMARK 927      BINDING AFFINITY PREDICTED BY RF-SCORE:    0.00 PKD
ROOT
HETATM    1  C   UNL     1      -9.349  10.121  69.516  1.00  0.00    -0.210 C  
HETATM    2  S   UNL     1      -7.592   9.706  69.854  1.00  0.00    -0.156 SA 
HETATM    3  C   UNL     1      -7.068   9.846  68.082  1.00  0.00    -0.077 C  
HETATM    4  C   UNL     1      -5.619  10.332  68.000  1.00  0.00    -0.037 C  
HETATM    5  CA  UNL     1      -8.120  10.769  67.420  1.00  0.00    -0.112 C  
HETATM    6  C   UNL     1      -7.093   8.427  67.481  1.00  0.00    -0.083 C  
HETATM    7  N   UNL     1      -9.404  10.527  68.101  1.00  0.00    -0.145 N  
HETATM    8  C   UNL     1      -7.838  12.281  67.488  1.00  0.00    -0.166 C  
HETATM    9  OXT UNL     1      -6.801  12.818  67.131  1.00  0.00    -0.122 OA 
HETATM   10  O   UNL     1      -8.901  13.008  67.917  1.00  0.00    -0.174 OA 
HETATM   11  C   UNL     1     -10.160   9.448  67.712  1.00  0.00    -0.198 C  
HETATM   12  CA  UNL     1     -10.317   8.949  69.187  1.00  0.00    -0.220 C  
HETATM   13  O   UNL     1     -10.433   9.122  66.582  1.00  0.00    -0.243 OA 
ENDROOT
BRANCH  12  14
HETATM   14  N   UNL     1      -9.831   7.600  69.588  1.00  0.00    -0.179 N  
HETATM   15  C   UNL     1     -10.544   6.432  69.410  1.00  0.00    -0.257 C  
HETATM   16  H   UNL     1      -8.910   7.534  70.021  1.00  0.00     0.000 HD 
HETATM   17  O   UNL     1     -11.649   6.411  68.884  1.00  0.00    -0.230 OA 
BRANCH  15  18
HETATM   18  C   UNL     1      -9.897   5.169  69.899  1.00  0.00    -0.289 A  
HETATM   19  C   UNL     1      -8.981   4.490  69.058  1.00  0.00    -0.109 A  
HETATM   20  C   UNL     1      -8.331   3.353  69.536  1.00  0.00    -0.086 A  
HETATM   21  C   UNL     1     -11.211   4.812  73.459  1.00  0.00    -0.392 A  
HETATM   22  C   UNL     1      -8.549   2.907  70.836  1.00  0.00    -0.111 A  
HETATM   23  C   UNL     1     -10.151   4.705  71.233  1.00  0.00    -0.245 A  
HETATM   24  C   UNL     1     -11.068   5.283  72.149  1.00  0.00    -0.187 A  
HETATM   25  C   UNL     1      -9.432   3.571  71.692  1.00  0.00    -0.217 A  
HETATM   26  C   UNL     1      -9.586   3.107  73.009  1.00  0.00    -0.147 A  
HETATM   27  C   UNL     1     -10.457   3.733  73.894  1.00  0.00    -0.262 A  
BRANCH  19  28
HETATM   28  O   UNL     1      -8.769   5.004  67.801  1.00  0.00    -0.104 OA 
BRANCH  28  29
HETATM   29  C   UNL     1      -9.124   4.191  66.682  1.00  0.00    -0.135 C  
HETATM   30  C   UNL     1     -10.404   4.748  66.081  1.00  0.00    -0.337 C  
ENDBRANCH  28  29
ENDBRANCH  19  28
ENDBRANCH  15  18
ENDBRANCH  12  14
TORSDOF 4
ENDMDL
MODEL      128
REMARK 921   NORMALIZED FREE ENERGY PREDICTED BY IDOCK:   -4.33 KCAL/MOL
REMARK 922        TOTAL FREE ENERGY PREDICTED BY IDOCK:   -6.48 KCAL/MOL
REMARK 923 INTER-LIGAND FREE ENERGY PREDICTED BY IDOCK:   -5.21 KCAL/MOL
REMARK 924 INTRA-LIGAND FREE ENERGY PREDICTED BY IDOCK:   -1.27 KCAL/MOL
REMARK 927      BINDING AFFINITY PREDICTED BY RF-SCORE:    0.00 PKD
ROOT
HETATM    1  C   UNL     1      -9.311   4.477  65.014  1.00  0.00    -0.156 C  
HETATM    2  S   UNL     1      -7.867   5.609  64.917  1.00  0.00    -0.117 SA 
HETATM    3  C   UNL     1      -6.621   4.280  65.256  1.00  0.00    -0.047 C  
HETATM    4  C   UNL     1      -5.310   4.592  64.530  1.00  0.00    -0.013 C  
HETATM    5  CA  UNL     1      -7.314   2.959  64.842  1.00  0.00    -0.067 C  
HETATM    6  C   UNL     1      -6.310   4.314  66.765  1.00  0.00    -0.037 C  
HETATM    7  N   UNL     1      -8.753   3.117  65.113  1.00  0.00    -0.111 N  
HETATM    8  C   UNL     1      -7.163   2.544  63.367  1.00  0.00    -0.045 C  
HETATM    9  OXT UNL     1      -6.102   2.445  62.771  1.00  0.00    -0.009 OA 
HETATM   10  O   UNL     1      -8.339   2.205  62.781  1.00  0.00    -0.071 OA 
HETATM   11  C   UNL     1      -9.207   2.911  66.393  1.00  0.00    -0.099 C  
HETATM   12  CA  UNL     1      -9.976   4.275  66.405  1.00  0.00    -0.203 C  
HETATM   13  O   UNL     1      -8.936   1.986  67.119  1.00  0.00    -0.127 OA 
ENDROOT
BRANCH  12  14
HETATM   14  N   UNL     1      -9.654   5.319  67.416  1.00  0.00    -0.127 N  
HETATM   15  C   UNL     1     -10.390   6.471  67.605  1.00  0.00    -0.194 C  
HETATM   16  H   UNL     1      -8.835   5.174  68.006  1.00  0.00     0.000 HD 
HETATM   17  O   UNL     1     -11.396   6.722  66.955  1.00  0.00    -0.337 OA 
BRANCH  15  18
HETATM   18  C   UNL     1      -9.895   7.418  68.659  1.00  0.00    -0.165 A  
HETATM   19  C   UNL     1      -8.868   8.339  68.337  1.00  0.00    -0.137 A  
HETATM   20  C   UNL     1      -8.454   9.261  69.297  1.00  0.00    -0.137 A  
HETATM   21  C   UNL     1     -12.130   6.665  71.654  1.00  0.00    -0.404 A  
HETATM   22  C   UNL     1      -9.064   9.304  70.547  1.00  0.00    -0.307 A  
HETATM   23  C   UNL     1     -10.515   7.434  69.953  1.00  0.00    -0.238 A  
HETATM   24  C   UNL     1     -11.526   6.542  70.397  1.00  0.00    -0.465 A  
HETATM   25  C   UNL     1     -10.093   8.420  70.882  1.00  0.00    -0.234 A  
HETATM   26  C   UNL     1     -10.707   8.532  72.141  1.00  0.00    -0.426 A  
HETATM   27  C   UNL     1     -11.731   7.670  72.520  1.00  0.00    -0.352 A  
BRANCH  19  28
HETATM   28  O   UNL     1      -8.336   8.281  67.071  1.00  0.00    -0.119 OA 
BRANCH  28  29
HETATM   29  C   UNL     1      -8.346   9.477  66.290  1.00  0.00    -0.115 C  
HETATM   30  C   UNL     1      -9.762   9.698  65.785  1.00  0.00    -0.350 C  
ENDBRANCH  28  29
ENDBRANCH  19  28
ENDBRANCH  15  18
ENDBRANCH  12  14
TORSDOF 4
ENDMDL
MODEL      129
REMARK 921   NORMALIZED FREE ENERGY PREDICTED BY IDOCK:   -4.33 KCAL/MOL
REMARK 922        TOTAL FREE ENERGY PREDICTED BY IDOCK:   -6.48 KCAL/MOL
REMARK 923 INTER-LIGAND FREE ENERGY PREDICTED BY IDOCK:   -5.06 KCAL/MOL
REMARK 924 INTRA-LIGAND FREE ENERGY PREDICTED BY IDOCK:   -1.42 KCAL/MOL
REMARK 927      BINDING AFFINITY PREDICTED BY RF-SCORE:    0.00 PKD
ROOT
HETATM    1  C   UNL     1     -10.248   9.256  71.635  1.00  0.00    -0.201 C  
HETATM    2  S   UNL     1      -9.115   9.337  70.191  1.00  0.00    -0.240 SA 
HETATM    3  C   UNL     1     -10.465   9.128  68.938  1.00  0.00    -0.218 C  
HETATM    4  C   UNL     1     -10.109   9.882  67.654  1.00  0.00    -0.241 C  
HETATM    5  CA  UNL     1     -11.756   9.598  69.652  1.00  0.00     0.173 C  
HETATM    6  C   UNL     1     -10.525   7.633  68.571  1.00  0.00    -0.206 C  
HETATM    7  N   UNL     1     -11.612   9.264  71.079  1.00  0.00    -0.293 N  
HETATM    8  C   UNL     1     -12.078  11.100  69.558  1.00  0.00    -0.326 C  
HETATM    9  OXT UNL     1     -12.141  11.741  68.521  1.00  0.00    -0.454 OA 
HETATM   10  O   UNL     1     -12.378  11.662  70.757  1.00  0.00    -0.376 OA 
HETATM   11  C   UNL     1     -11.897   7.983  71.485  1.00  0.00    -0.292 C  
HETATM   12  CA  UNL     1     -10.536   7.856  72.248  1.00  0.00    -0.262 C  
HETATM   13  O   UNL     1     -12.867   7.326  71.191  1.00  0.00    -0.351 OA 
ENDROOT
BRANCH  12  14
HETATM   14  N   UNL     1      -9.557   6.795  71.884  1.00  0.00    -0.150 N  
HETATM   15  C   UNL     1      -9.782   5.443  72.042  1.00  0.00    -0.161 C  
HETATM   16  H   UNL     1      -8.662   7.087  71.491  1.00  0.00     0.000 HD 
HETATM   17  O   UNL     1     -10.831   4.999  72.488  1.00  0.00    -0.214 OA 
BRANCH  15  18
HETATM   18  C   UNL     1      -8.665   4.525  71.637  1.00  0.00    -0.133 A  
HETATM   19  C   UNL     1      -7.642   4.226  72.569  1.00  0.00    -0.079 A  
HETATM   20  C   UNL     1      -6.640   3.323  72.214  1.00  0.00    -0.015 A  
HETATM   21  C   UNL     1      -9.630   3.451  68.109  1.00  0.00    -0.158 A  
HETATM   22  C   UNL     1      -6.662   2.693  70.974  1.00  0.00    -0.031 A  
HETATM   23  C   UNL     1      -8.685   3.903  70.344  1.00  0.00    -0.126 A  
HETATM   24  C   UNL     1      -9.639   4.150  69.322  1.00  0.00    -0.256 A  
HETATM   25  C   UNL     1      -7.672   2.956  70.045  1.00  0.00    -0.045 A  
HETATM   26  C   UNL     1      -7.674   2.263  68.823  1.00  0.00    -0.051 A  
HETATM   27  C   UNL     1      -8.657   2.495  67.866  1.00  0.00    -0.117 A  
BRANCH  19  28
HETATM   28  O   UNL     1      -7.698   4.842  73.796  1.00  0.00    -0.092 OA 
BRANCH  28  29
HETATM   29  C   UNL     1      -6.520   5.498  74.266  1.00  0.00    -0.071 C  
HETATM   30  C   UNL     1      -6.651   6.980  73.959  1.00  0.00    -0.077 C  
ENDBRANCH  28  29
ENDBRANCH  19  28
ENDBRANCH  15  18
ENDBRANCH  12  14
TORSDOF 4
ENDMDL
MODEL      130
REMARK 921   NORMALIZED FREE ENERGY PREDICTED BY IDOCK:   -4.33 KCAL/MOL
REMARK 922        TOTAL FREE ENERGY PREDICTED BY IDOCK:   -6.48 KCAL/MOL
REMARK 923 INTER-LIGAND FREE ENERGY PREDICTED BY IDOCK:   -5.54 KCAL/MOL
REMARK 924 INTRA-LIGAND FREE ENERGY PREDICTED BY IDOCK:   -0.94 KCAL/MOL
REMARK 927      BINDING AFFINITY PREDICTED BY RF-SCORE:    0.00 PKD
ROOT
HETATM    1  C   UNL     1      -7.675  14.963  67.065  1.00  0.00    -0.043 C  
HETATM    2  S   UNL     1      -9.467  15.049  66.669  1.00  0.00    -0.283 SA 
HETATM    3  C   UNL     1      -9.954  15.671  68.345  1.00  0.00    -0.210 C  
HETATM    4  C   UNL     1     -11.178  16.584  68.230  1.00  0.00    -0.265 C  
HETATM    5  CA  UNL     1      -8.678  16.336  68.917  1.00  0.00    -0.253 C  
HETATM    6  C   UNL     1     -10.389  14.452  69.180  1.00  0.00    -0.164 C  
HETATM    7  N   UNL     1      -7.523  15.590  68.389  1.00  0.00    -0.113 N  
HETATM    8  C   UNL     1      -8.469  17.821  68.570  1.00  0.00    -0.296 C  
HETATM    9  OXT UNL     1      -9.291  18.706  68.748  1.00  0.00    -0.333 OA 
HETATM   10  O   UNL     1      -7.223  18.095  68.106  1.00  0.00    -0.231 OA 
HETATM   11  C   UNL     1      -7.152  14.425  69.014  1.00  0.00    -0.120 C  
HETATM   12  CA  UNL     1      -7.132  13.634  67.663  1.00  0.00    -0.170 C  
HETATM   13  O   UNL     1      -7.018  14.249  70.201  1.00  0.00    -0.018 OA 
ENDROOT
BRANCH  12  14
HETATM   14  N   UNL     1      -8.010  12.449  67.464  1.00  0.00    -0.161 N  
HETATM   15  C   UNL     1      -7.829  11.233  68.092  1.00  0.00    -0.127 C  
HETATM   16  H   UNL     1      -8.797  12.541  66.822  1.00  0.00     0.000 HD 
HETATM   17  O   UNL     1      -6.923  11.035  68.891  1.00  0.00    -0.073 OA 
BRANCH  15  18
HETATM   18  C   UNL     1      -8.806  10.147  67.747  1.00  0.00    -0.125 A  
HETATM   19  C   UNL     1      -8.993   9.790  66.390  1.00  0.00    -0.151 A  
HETATM   20  C   UNL     1      -9.853   8.738  66.074  1.00  0.00    -0.234 A  
HETATM   21  C   UNL     1     -10.029   8.936  71.148  1.00  0.00    -0.342 A  
HETATM   22  C   UNL     1     -10.492   8.021  67.081  1.00  0.00    -0.408 A  
HETATM   23  C   UNL     1      -9.480   9.433  68.794  1.00  0.00    -0.150 A  
HETATM   24  C   UNL     1      -9.394   9.723  70.181  1.00  0.00    -0.261 A  
HETATM   25  C   UNL     1     -10.308   8.341  68.429  1.00  0.00    -0.237 A  
HETATM   26  C   UNL     1     -10.942   7.560  69.409  1.00  0.00    -0.099 A  
HETATM   27  C   UNL     1     -10.791   7.844  70.763  1.00  0.00    -0.238 A  
BRANCH  19  28
HETATM   28  O   UNL     1      -8.298  10.502  65.442  1.00  0.00    -0.162 OA 
BRANCH  28  29
HETATM   29  C   UNL     1      -8.522  10.176  64.069  1.00  0.00    -0.184 C  
HETATM   30  C   UNL     1      -7.202  10.317  63.330  1.00  0.00    -0.088 C  
ENDBRANCH  28  29
ENDBRANCH  19  28
ENDBRANCH  15  18
ENDBRANCH  12  14
TORSDOF 4
ENDMDL
MODEL      131
REMARK 921   NORMALIZED FREE ENERGY PREDICTED BY IDOCK:   -4.23 KCAL/MOL
REMARK 922        TOTAL FREE ENERGY PREDICTED BY IDOCK:   -6.36 KCAL/MOL
REMARK 923 INTER-LIGAND FREE ENERGY PREDICTED BY IDOCK:   -4.97 KCAL/MOL
REMARK 924 INTRA-LIGAND FREE ENERGY PREDICTED BY IDOCK:   -1.39 KCAL/MOL
REMARK 927      BINDING AFFINITY PREDICTED BY RF-SCORE:    0.00 PKD
ROOT
HETATM    1  C   UNL     1      -9.962  10.545  68.678  1.00  0.00    -0.181 C  
HETATM    2  S   UNL     1      -8.294  10.297  69.406  1.00  0.00    -0.140 SA 
HETATM    3  C   UNL     1      -7.392  10.688  67.835  1.00  0.00    -0.089 C  
HETATM    4  C   UNL     1      -6.045  11.342  68.153  1.00  0.00    -0.045 C  
HETATM    5  CA  UNL     1      -8.375  11.554  67.009  1.00  0.00    -0.165 C  
HETATM    6  C   UNL     1      -7.082   9.350  67.137  1.00  0.00    -0.086 C  
HETATM    7  N   UNL     1      -9.738  11.095  67.330  1.00  0.00    -0.172 N  
HETATM    8  C   UNL     1      -8.326  13.071  67.264  1.00  0.00    -0.185 C  
HETATM    9  OXT UNL     1      -7.317  13.758  67.217  1.00  0.00    -0.145 OA 
HETATM   10  O   UNL     1      -9.549  13.622  67.473  1.00  0.00    -0.210 OA 
HETATM   11  C   UNL     1     -10.227   9.986  66.683  1.00  0.00    -0.223 C  
HETATM   12  CA  UNL     1     -10.656   9.313  68.029  1.00  0.00    -0.208 C  
HETATM   13  O   UNL     1     -10.179   9.758  65.498  1.00  0.00    -0.256 OA 
ENDROOT
BRANCH  12  14
HETATM   14  N   UNL     1     -10.098   7.992  68.430  1.00  0.00    -0.190 N  
HETATM   15  C   UNL     1     -10.527   6.782  67.924  1.00  0.00    -0.218 C  
HETATM   16  H   UNL     1      -9.350   7.981  69.123  1.00  0.00     0.000 HD 
HETATM   17  O   UNL     1     -11.406   6.698  67.076  1.00  0.00    -0.348 OA 
BRANCH  15  18
HETATM   18  C   UNL     1      -9.857   5.553  68.466  1.00  0.00    -0.193 A  
HETATM   19  C   UNL     1     -10.200   5.091  69.760  1.00  0.00    -0.266 A  
HETATM   20  C   UNL     1      -9.626   3.914  70.238  1.00  0.00    -0.271 A  
HETATM   21  C   UNL     1      -7.651   4.393  65.582  1.00  0.00    -0.085 A  
HETATM   22  C   UNL     1      -8.754   3.178  69.442  1.00  0.00    -0.130 A  
HETATM   23  C   UNL     1      -8.939   4.818  67.644  1.00  0.00    -0.120 A  
HETATM   24  C   UNL     1      -8.498   5.200  66.350  1.00  0.00    -0.112 A  
HETATM   25  C   UNL     1      -8.415   3.602  68.154  1.00  0.00    -0.108 A  
HETATM   26  C   UNL     1      -7.565   2.802  67.373  1.00  0.00    -0.065 A  
HETATM   27  C   UNL     1      -7.197   3.186  66.087  1.00  0.00    -0.070 A  
BRANCH  19  28
HETATM   28  O   UNL     1     -11.104   5.834  70.483  1.00  0.00    -0.289 OA 
BRANCH  28  29
HETATM   29  C   UNL     1     -10.776   6.146  71.837  1.00  0.00    -0.232 C  
HETATM   30  C   UNL     1      -9.687   7.205  71.827  1.00  0.00    -0.168 C  
ENDBRANCH  28  29
ENDBRANCH  19  28
ENDBRANCH  15  18
ENDBRANCH  12  14
TORSDOF 4
ENDMDL
MODEL      132
REMARK 921   NORMALIZED FREE ENERGY PREDICTED BY IDOCK:   -4.21 KCAL/MOL
REMARK 922        TOTAL FREE ENERGY PREDICTED BY IDOCK:   -6.33 KCAL/MOL
REMARK 923 INTER-LIGAND FREE ENERGY PREDICTED BY IDOCK:   -5.15 KCAL/MOL
REMARK 924 INTRA-LIGAND FREE ENERGY PREDICTED BY IDOCK:   -1.18 KCAL/MOL
REMARK 927      BINDING AFFINITY PREDICTED BY RF-SCORE:    0.00 PKD
ROOT
HETATM    1  C   UNL     1      -8.803   6.582  69.848  1.00  0.00    -0.143 C  
HETATM    2  S   UNL     1      -8.122   7.724  71.115  1.00  0.00    -0.097 SA 
HETATM    3  C   UNL     1      -9.611   7.625  72.213  1.00  0.00    -0.165 C  
HETATM    4  C   UNL     1      -9.194   7.780  73.678  1.00  0.00    -0.344 C  
HETATM    5  CA  UNL     1     -10.292   6.283  71.852  1.00  0.00    -0.204 C  
HETATM    6  C   UNL     1     -10.511   8.831  71.879  1.00  0.00    -0.423 C  
HETATM    7  N   UNL     1     -10.048   6.040  70.419  1.00  0.00    -0.186 N  
HETATM    8  C   UNL     1      -9.803   5.042  72.621  1.00  0.00    -0.159 C  
HETATM    9  OXT UNL     1      -9.741   4.950  73.837  1.00  0.00    -0.131 OA 
HETATM   10  O   UNL     1      -9.511   3.989  71.815  1.00  0.00    -0.128 OA 
HETATM   11  C   UNL     1     -10.862   6.658  69.501  1.00  0.00    -0.289 C  
HETATM   12  CA  UNL     1      -9.637   7.203  68.691  1.00  0.00    -0.140 C  
HETATM   13  O   UNL     1     -12.067   6.717  69.523  1.00  0.00     0.010 OA 
ENDROOT
BRANCH  12  14
HETATM   14  N   UNL     1      -9.449   8.666  68.494  1.00  0.00    -0.141 N  
HETATM   15  C   UNL     1      -8.530   9.221  67.627  1.00  0.00    -0.116 C  
HETATM   16  H   UNL     1     -10.038   9.300  69.034  1.00  0.00     0.000 HD 
HETATM   17  O   UNL     1      -7.793   8.541  66.926  1.00  0.00    -0.091 OA 
BRANCH  15  18
HETATM   18  C   UNL     1      -8.471  10.721  67.581  1.00  0.00    -0.119 A  
HETATM   19  C   UNL     1      -9.365  11.423  66.737  1.00  0.00    -0.180 A  
HETATM   20  C   UNL     1      -9.354  12.817  66.742  1.00  0.00    -0.241 A  
HETATM   21  C   UNL     1      -5.810  11.589  70.168  1.00  0.00    -0.150 A  
HETATM   22  C   UNL     1      -8.502  13.515  67.592  1.00  0.00    -0.184 A  
HETATM   23  C   UNL     1      -7.568  11.428  68.444  1.00  0.00    -0.123 A  
HETATM   24  C   UNL     1      -6.610  10.832  69.305  1.00  0.00    -0.074 A  
HETATM   25  C   UNL     1      -7.625  12.845  68.450  1.00  0.00    -0.133 A  
HETATM   26  C   UNL     1      -6.815  13.594  69.320  1.00  0.00    -0.063 A  
HETATM   27  C   UNL     1      -5.924  12.970  70.187  1.00  0.00    -0.135 A  
BRANCH  19  28
HETATM   28  O   UNL     1     -10.217  10.681  65.954  1.00  0.00    -0.248 OA 
BRANCH  28  29
HETATM   29  C   UNL     1      -9.966  10.644  64.549  1.00  0.00    -0.345 C  
HETATM   30  C   UNL     1     -11.110  11.355  63.846  1.00  0.00    -0.410 C  
ENDBRANCH  28  29
ENDBRANCH  19  28
ENDBRANCH  15  18
ENDBRANCH  12  14
TORSDOF 4
ENDMDL
MODEL      133
REMARK 921   NORMALIZED FREE ENERGY PREDICTED BY IDOCK:   -4.20 KCAL/MOL
REMARK 922        TOTAL FREE ENERGY PREDICTED BY IDOCK:   -6.31 KCAL/MOL
REMARK 923 INTER-LIGAND FREE ENERGY PREDICTED BY IDOCK:   -5.14 KCAL/MOL
REMARK 924 INTRA-LIGAND FREE ENERGY PREDICTED BY IDOCK:   -1.18 KCAL/MOL
REMARK 927      BINDING AFFINITY PREDICTED BY RF-SCORE:    0.00 PKD
ROOT
HETATM    1  C   UNL     1      -9.944   7.027  70.456  1.00  0.00    -0.183 C  
HETATM    2  S   UNL     1      -8.130   7.131  70.184  1.00  0.00    -0.132 SA 
HETATM    3  C   UNL     1      -7.887   8.532  71.373  1.00  0.00    -0.126 C  
HETATM    4  C   UNL     1      -6.506   8.432  72.026  1.00  0.00    -0.069 C  
HETATM    5  CA  UNL     1      -9.091   8.453  72.343  1.00  0.00    -0.256 C  
HETATM    6  C   UNL     1      -7.896   9.837  70.554  1.00  0.00    -0.075 C  
HETATM    7  N   UNL     1     -10.238   7.938  71.575  1.00  0.00    -0.188 N  
HETATM    8  C   UNL     1      -8.914   7.548  73.575  1.00  0.00    -0.221 C  
HETATM    9  OXT UNL     1      -7.985   7.610  74.364  1.00  0.00    -0.166 OA 
HETATM   10  O   UNL     1      -9.953   6.695  73.770  1.00  0.00    -0.212 OA 
HETATM   11  C   UNL     1     -10.961   8.817  70.807  1.00  0.00    -0.247 C  
HETATM   12  CA  UNL     1     -10.860   7.894  69.546  1.00  0.00    -0.136 C  
HETATM   13  O   UNL     1     -11.374   9.902  71.139  1.00  0.00    -0.357 OA 
ENDROOT
BRANCH  12  14
HETATM   14  N   UNL     1     -10.221   8.386  68.295  1.00  0.00    -0.200 N  
HETATM   15  C   UNL     1     -10.357   7.780  67.063  1.00  0.00    -0.334 C  
HETATM   16  H   UNL     1      -9.646   9.226  68.352  1.00  0.00     0.000 HD 
HETATM   17  O   UNL     1     -11.040   6.779  66.895  1.00  0.00    -0.397 OA 
BRANCH  15  18
HETATM   18  C   UNL     1      -9.618   8.411  65.919  1.00  0.00    -0.119 A  
HETATM   19  C   UNL     1      -9.881   9.762  65.586  1.00  0.00    -0.301 A  
HETATM   20  C   UNL     1      -9.149  10.368  64.565  1.00  0.00    -0.263 A  
HETATM   21  C   UNL     1      -7.224   5.671  64.783  1.00  0.00    -0.065 A  
HETATM   22  C   UNL     1      -8.144   9.667  63.904  1.00  0.00    -0.152 A  
HETATM   23  C   UNL     1      -8.602   7.669  65.227  1.00  0.00    -0.044 A  
HETATM   24  C   UNL     1      -8.275   6.307  65.453  1.00  0.00    -0.142 A  
HETATM   25  C   UNL     1      -7.851   8.340  64.228  1.00  0.00    -0.144 A  
HETATM   26  C   UNL     1      -6.799   7.690  63.562  1.00  0.00    -0.059 A  
HETATM   27  C   UNL     1      -6.475   6.368  63.848  1.00  0.00    -0.030 A  
BRANCH  19  28
HETATM   28  O   UNL     1     -10.852  10.418  66.305  1.00  0.00    -0.095 OA 
BRANCH  28  29
HETATM   29  C   UNL     1     -10.602  11.774  66.675  1.00  0.00    -0.240 C  
HETATM   30  C   UNL     1      -9.657  11.773  67.864  1.00  0.00    -0.187 C  
ENDBRANCH  28  29
ENDBRANCH  19  28
ENDBRANCH  15  18
ENDBRANCH  12  14
TORSDOF 4
ENDMDL
MODEL      134
REMARK 921   NORMALIZED FREE ENERGY PREDICTED BY IDOCK:   -4.18 KCAL/MOL
REMARK 922        TOTAL FREE ENERGY PREDICTED BY IDOCK:   -6.29 KCAL/MOL
REMARK 923 INTER-LIGAND FREE ENERGY PREDICTED BY IDOCK:   -5.14 KCAL/MOL
REMARK 924 INTRA-LIGAND FREE ENERGY PREDICTED BY IDOCK:   -1.15 KCAL/MOL
REMARK 927      BINDING AFFINITY PREDICTED BY RF-SCORE:    0.00 PKD
ROOT
HETATM    1  C   UNL     1     -11.210  11.179  67.065  1.00  0.00    -0.219 C  
HETATM    2  S   UNL     1     -10.102  11.605  68.467  1.00  0.00    -0.192 SA 
HETATM    3  C   UNL     1      -9.133  12.859  67.507  1.00  0.00    -0.191 C  
HETATM    4  C   UNL     1      -8.649  13.973  68.439  1.00  0.00    -0.174 C  
HETATM    5  CA  UNL     1     -10.073  13.309  66.363  1.00  0.00    -0.290 C  
HETATM    6  C   UNL     1      -7.872  12.155  66.969  1.00  0.00    -0.123 C  
HETATM    7  N   UNL     1     -10.905  12.148  65.999  1.00  0.00    -0.271 N  
HETATM    8  C   UNL     1     -11.024  14.477  66.681  1.00  0.00    -0.321 C  
HETATM    9  OXT UNL     1     -10.680  15.557  67.136  1.00  0.00    -0.306 OA 
HETATM   10  O   UNL     1     -12.312  14.234  66.329  1.00  0.00    -0.443 OA 
HETATM   11  C   UNL     1     -10.380  11.205  65.149  1.00  0.00    -0.293 C  
HETATM   12  CA  UNL     1     -10.761  10.033  66.114  1.00  0.00     0.093 C  
HETATM   13  O   UNL     1      -9.799  11.408  64.110  1.00  0.00    -0.241 OA 
ENDROOT
BRANCH  12  14
HETATM   14  N   UNL     1      -9.712   9.132  66.665  1.00  0.00    -0.202 N  
HETATM   15  C   UNL     1      -9.926   7.815  67.016  1.00  0.00    -0.244 C  
HETATM   16  H   UNL     1      -8.774   9.512  66.790  1.00  0.00     0.000 HD 
HETATM   17  O   UNL     1     -11.013   7.268  66.885  1.00  0.00    -0.343 OA 
BRANCH  15  18
HETATM   18  C   UNL     1      -8.749   7.070  67.576  1.00  0.00    -0.120 A  
HETATM   19  C   UNL     1      -8.258   7.413  68.859  1.00  0.00    -0.129 A  
HETATM   20  C   UNL     1      -7.205   6.679  69.405  1.00  0.00    -0.090 A  
HETATM   21  C   UNL     1      -8.018   4.435  64.920  1.00  0.00    -0.094 A  
HETATM   22  C   UNL     1      -6.666   5.597  68.717  1.00  0.00    -0.053 A  
HETATM   23  C   UNL     1      -8.184   5.972  66.844  1.00  0.00    -0.105 A  
HETATM   24  C   UNL     1      -8.572   5.559  65.542  1.00  0.00    -0.150 A  
HETATM   25  C   UNL     1      -7.146   5.225  67.458  1.00  0.00    -0.067 A  
HETATM   26  C   UNL     1      -6.598   4.099  66.823  1.00  0.00    -0.046 A  
HETATM   27  C   UNL     1      -7.042   3.695  65.568  1.00  0.00    -0.066 A  
BRANCH  19  28
HETATM   28  O   UNL     1      -8.861   8.461  69.512  1.00  0.00    -0.142 OA 
BRANCH  28  29
HETATM   29  C   UNL     1      -8.207   8.991  70.666  1.00  0.00    -0.181 C  
HETATM   30  C   UNL     1      -7.269  10.096  70.210  1.00  0.00    -0.131 C  
ENDBRANCH  28  29
ENDBRANCH  19  28
ENDBRANCH  15  18
ENDBRANCH  12  14
TORSDOF 4
ENDMDL
MODEL      135
REMARK 921   NORMALIZED FREE ENERGY PREDICTED BY IDOCK:   -4.16 KCAL/MOL
REMARK 922        TOTAL FREE ENERGY PREDICTED BY IDOCK:   -6.27 KCAL/MOL
REMARK 923 INTER-LIGAND FREE ENERGY PREDICTED BY IDOCK:   -5.18 KCAL/MOL
REMARK 924 INTRA-LIGAND FREE ENERGY PREDICTED BY IDOCK:   -1.09 KCAL/MOL
REMARK 927      BINDING AFFINITY PREDICTED BY RF-SCORE:    0.00 PKD
ROOT
HETATM    1  C   UNL     1     -10.608  14.050  66.760  1.00  0.00    -0.277 C  
HETATM    2  S   UNL     1     -11.446  14.095  68.394  1.00  0.00    -0.322 SA 
HETATM    3  C   UNL     1     -10.301  15.366  69.107  1.00  0.00    -0.240 C  
HETATM    4  C   UNL     1     -11.050  16.239  70.117  1.00  0.00    -0.346 C  
HETATM    5  CA  UNL     1      -9.713  16.113  67.885  1.00  0.00    -0.225 C  
HETATM    6  C   UNL     1      -9.212  14.613  69.896  1.00  0.00     0.569 C  
HETATM    7  N   UNL     1      -9.618  15.141  66.783  1.00  0.00    -0.234 N  
HETATM    8  C   UNL     1     -10.521  17.318  67.371  1.00  0.00    -0.338 C  
HETATM    9  OXT UNL     1     -10.896  18.256  68.057  1.00  0.00    -0.321 OA 
HETATM   10  O   UNL     1     -10.723  17.297  66.029  1.00  0.00    -0.249 OA 
HETATM   11  C   UNL     1      -8.534  14.298  66.743  1.00  0.00    -0.020 C  
HETATM   12  CA  UNL     1      -9.444  13.035  66.575  1.00  0.00    -0.245 C  
HETATM   13  O   UNL     1      -7.374  14.600  66.885  1.00  0.00     0.001 OA 
ENDROOT
BRANCH  12  14
HETATM   14  N   UNL     1      -9.404  11.932  67.574  1.00  0.00    -0.173 N  
HETATM   15  C   UNL     1      -8.665  10.777  67.427  1.00  0.00    -0.126 C  
HETATM   16  H   UNL     1      -9.961  12.038  68.422  1.00  0.00     0.000 HD 
HETATM   17  O   UNL     1      -7.955  10.571  66.452  1.00  0.00    -0.125 OA 
BRANCH  15  18
HETATM   18  C   UNL     1      -8.770   9.768  68.534  1.00  0.00    -0.120 A  
HETATM   19  C   UNL     1      -8.162  10.043  69.782  1.00  0.00    -0.178 A  
HETATM   20  C   UNL     1      -8.313   9.135  70.830  1.00  0.00    -0.248 A  
HETATM   21  C   UNL     1     -10.968   7.035  67.041  1.00  0.00    -0.357 A  
HETATM   22  C   UNL     1      -9.084   7.988  70.665  1.00  0.00    -0.154 A  
HETATM   23  C   UNL     1      -9.545   8.575  68.342  1.00  0.00    -0.157 A  
HETATM   24  C   UNL     1     -10.170   8.181  67.130  1.00  0.00    -0.366 A  
HETATM   25  C   UNL     1      -9.711   7.704  69.449  1.00  0.00    -0.165 A  
HETATM   26  C   UNL     1     -10.513   6.555  69.346  1.00  0.00    -0.262 A  
HETATM   27  C   UNL     1     -11.152   6.230  68.154  1.00  0.00    -0.364 A  
BRANCH  19  28
HETATM   28  O   UNL     1      -7.453  11.215  69.901  1.00  0.00     0.076 OA 
BRANCH  28  29
HETATM   29  C   UNL     1      -6.037  11.156  69.727  1.00  0.00    -0.107 C  
HETATM   30  C   UNL     1      -5.384  11.725  70.975  1.00  0.00    -0.101 C  
ENDBRANCH  28  29
ENDBRANCH  19  28
ENDBRANCH  15  18
ENDBRANCH  12  14
TORSDOF 4
ENDMDL
MODEL      136
REMARK 921   NORMALIZED FREE ENERGY PREDICTED BY IDOCK:   -4.15 KCAL/MOL
REMARK 922        TOTAL FREE ENERGY PREDICTED BY IDOCK:   -6.26 KCAL/MOL
REMARK 923 INTER-LIGAND FREE ENERGY PREDICTED BY IDOCK:   -5.83 KCAL/MOL
REMARK 924 INTRA-LIGAND FREE ENERGY PREDICTED BY IDOCK:   -0.43 KCAL/MOL
REMARK 927      BINDING AFFINITY PREDICTED BY RF-SCORE:    0.00 PKD
ROOT
HETATM    1  C   UNL     1     -11.454   6.979  71.399  1.00  0.00    -0.276 C  
HETATM    2  S   UNL     1     -10.870   5.871  70.055  1.00  0.00    -0.347 SA 
HETATM    3  C   UNL     1      -9.408   5.248  71.009  1.00  0.00    -0.150 C  
HETATM    4  C   UNL     1      -9.099   3.803  70.611  1.00  0.00    -0.181 C  
HETATM    5  CA  UNL     1      -9.772   5.467  72.498  1.00  0.00    -0.152 C  
HETATM    6  C   UNL     1      -8.189   6.093  70.588  1.00  0.00    -0.121 C  
HETATM    7  N   UNL     1     -10.613   6.675  72.569  1.00  0.00    -0.209 N  
HETATM    8  C   UNL     1     -10.543   4.325  73.185  1.00  0.00    -0.195 C  
HETATM    9  OXT UNL     1     -10.197   3.155  73.201  1.00  0.00    -0.131 OA 
HETATM   10  O   UNL     1     -11.638   4.749  73.866  1.00  0.00    -0.078 OA 
HETATM   11  C   UNL     1      -9.997   7.903  72.577  1.00  0.00    -0.249 C  
HETATM   12  CA  UNL     1     -10.908   8.435  71.421  1.00  0.00    -0.244 C  
HETATM   13  O   UNL     1      -9.054   8.238  73.252  1.00  0.00    -0.255 OA 
ENDROOT
BRANCH  12  14
HETATM   14  N   UNL     1     -10.313   8.905  70.140  1.00  0.00    -0.199 N  
HETATM   15  C   UNL     1     -10.924   9.790  69.277  1.00  0.00    -0.193 C  
HETATM   16  H   UNL     1      -9.392   8.547  69.883  1.00  0.00     0.000 HD 
HETATM   17  O   UNL     1     -12.019  10.284  69.509  1.00  0.00    -0.148 OA 
BRANCH  15  18
HETATM   18  C   UNL     1     -10.175  10.129  68.020  1.00  0.00    -0.205 A  
HETATM   19  C   UNL     1      -9.836  11.478  67.758  1.00  0.00    -0.177 A  
HETATM   20  C   UNL     1      -9.085  11.785  66.624  1.00  0.00    -0.194 A  
HETATM   21  C   UNL     1      -9.539   6.728  66.420  1.00  0.00    -0.149 A  
HETATM   22  C   UNL     1      -8.641  10.775  65.776  1.00  0.00    -0.187 A  
HETATM   23  C   UNL     1      -9.746   9.080  67.140  1.00  0.00    -0.237 A  
HETATM   24  C   UNL     1     -10.053   7.701  67.284  1.00  0.00    -0.306 A  
HETATM   25  C   UNL     1      -8.945   9.433  66.024  1.00  0.00    -0.205 A  
HETATM   26  C   UNL     1      -8.437   8.447  65.162  1.00  0.00    -0.179 A  
HETATM   27  C   UNL     1      -8.717   7.100  65.367  1.00  0.00     0.015 A  
BRANCH  19  28
HETATM   28  O   UNL     1     -10.262  12.428  68.657  1.00  0.00    -0.218 OA 
BRANCH  28  29
HETATM   29  C   UNL     1     -10.368  13.776  68.198  1.00  0.00    -0.252 C  
HETATM   30  C   UNL     1     -11.705  13.932  67.495  1.00  0.00    -0.416 C  
ENDBRANCH  28  29
ENDBRANCH  19  28
ENDBRANCH  15  18
ENDBRANCH  12  14
TORSDOF 4
ENDMDL
MODEL      137
REMARK 921   NORMALIZED FREE ENERGY PREDICTED BY IDOCK:   -4.15 KCAL/MOL
REMARK 922        TOTAL FREE ENERGY PREDICTED BY IDOCK:   -6.25 KCAL/MOL
REMARK 923 INTER-LIGAND FREE ENERGY PREDICTED BY IDOCK:   -5.27 KCAL/MOL
REMARK 924 INTRA-LIGAND FREE ENERGY PREDICTED BY IDOCK:   -0.99 KCAL/MOL
REMARK 927      BINDING AFFINITY PREDICTED BY RF-SCORE:    0.00 PKD
ROOT
HETATM    1  C   UNL     1      -9.097   5.258  71.636  1.00  0.00    -0.138 C  
HETATM    2  S   UNL     1      -7.550   6.073  71.074  1.00  0.00    -0.098 SA 
HETATM    3  C   UNL     1      -6.877   6.298  72.786  1.00  0.00    -0.074 C  
HETATM    4  C   UNL     1      -5.348   6.223  72.763  1.00  0.00    -0.036 C  
HETATM    5  CA  UNL     1      -7.585   5.222  73.644  1.00  0.00    -0.095 C  
HETATM    6  C   UNL     1      -7.242   7.725  73.240  1.00  0.00    -0.120 C  
HETATM    7  N   UNL     1      -8.933   5.032  73.082  1.00  0.00    -0.118 N  
HETATM    8  C   UNL     1      -6.907   3.841  73.700  1.00  0.00    -0.045 C  
HETATM    9  OXT UNL     1      -5.740   3.644  73.998  1.00  0.00    -0.003 OA 
HETATM   10  O   UNL     1      -7.761   2.813  73.461  1.00  0.00    -0.050 OA 
HETATM   11  C   UNL     1      -9.923   5.915  73.438  1.00  0.00    -0.176 C  
HETATM   12  CA  UNL     1     -10.320   6.167  71.945  1.00  0.00    -0.208 C  
HETATM   13  O   UNL     1     -10.189   6.297  74.552  1.00  0.00    -0.330 OA 
ENDROOT
BRANCH  12  14
HETATM   14  N   UNL     1     -10.251   7.535  71.362  1.00  0.00    -0.187 N  
HETATM   15  C   UNL     1     -10.891   7.919  70.201  1.00  0.00    -0.243 C  
HETATM   16  H   UNL     1      -9.694   8.235  71.852  1.00  0.00     0.000 HD 
HETATM   17  O   UNL     1     -11.594   7.153  69.555  1.00  0.00    -0.020 OA 
BRANCH  15  18
HETATM   18  C   UNL     1     -10.684   9.338  69.758  1.00  0.00    -0.245 A  
HETATM   19  C   UNL     1      -9.756   9.613  68.724  1.00  0.00    -0.163 A  
HETATM   20  C   UNL     1      -9.611  10.923  68.269  1.00  0.00    -0.169 A  
HETATM   21  C   UNL     1     -13.203  11.298  71.843  1.00  0.00    -0.491 A  
HETATM   22  C   UNL     1     -10.395  11.945  68.795  1.00  0.00    -0.184 A  
HETATM   23  C   UNL     1     -11.480  10.388  70.328  1.00  0.00    -0.406 A  
HETATM   24  C   UNL     1     -12.414  10.236  71.386  1.00  0.00    -0.528 A  
HETATM   25  C   UNL     1     -11.332  11.697  69.801  1.00  0.00    -0.276 A  
HETATM   26  C   UNL     1     -12.129  12.754  70.270  1.00  0.00    -0.373 A  
HETATM   27  C   UNL     1     -13.072  12.554  71.273  1.00  0.00    -0.223 A  
BRANCH  19  28
HETATM   28  O   UNL     1      -9.045   8.555  68.210  1.00  0.00    -0.138 OA 
BRANCH  28  29
HETATM   29  C   UNL     1      -8.674   8.612  66.832  1.00  0.00    -0.124 C  
HETATM   30  C   UNL     1      -9.648   7.752  66.045  1.00  0.00    -0.006 C  
ENDBRANCH  28  29
ENDBRANCH  19  28
ENDBRANCH  15  18
ENDBRANCH  12  14
TORSDOF 4
ENDMDL
MODEL      138
REMARK 921   NORMALIZED FREE ENERGY PREDICTED BY IDOCK:   -4.12 KCAL/MOL
REMARK 922        TOTAL FREE ENERGY PREDICTED BY IDOCK:   -6.22 KCAL/MOL
REMARK 923 INTER-LIGAND FREE ENERGY PREDICTED BY IDOCK:   -5.83 KCAL/MOL
REMARK 924 INTRA-LIGAND FREE ENERGY PREDICTED BY IDOCK:   -0.39 KCAL/MOL
REMARK 927      BINDING AFFINITY PREDICTED BY RF-SCORE:    0.00 PKD
ROOT
HETATM    1  C   UNL     1      -8.560  18.454  66.778  1.00  0.00    -0.276 C  
HETATM    2  S   UNL     1      -8.770  18.391  68.602  1.00  0.00    -0.238 SA 
HETATM    3  C   UNL     1      -6.953  18.469  68.958  1.00  0.00    -0.267 C  
HETATM    4  C   UNL     1      -6.709  19.199  70.281  1.00  0.00     0.257 C  
HETATM    5  CA  UNL     1      -6.323  19.128  67.707  1.00  0.00    -0.212 C  
HETATM    6  C   UNL     1      -6.459  17.022  69.153  1.00  0.00    -0.221 C  
HETATM    7  N   UNL     1      -7.130  18.720  66.544  1.00  0.00    -0.210 N  
HETATM    8  C   UNL     1      -6.257  20.666  67.708  1.00  0.00    -0.286 C  
HETATM    9  OXT UNL     1      -5.772  21.347  68.597  1.00  0.00    -0.263 OA 
HETATM   10  O   UNL     1      -6.726  21.225  66.562  1.00  0.00    -0.278 OA 
HETATM   11  C   UNL     1      -6.888  17.493  65.976  1.00  0.00    -0.246 C  
HETATM   12  CA  UNL     1      -8.404  17.103  66.024  1.00  0.00    -0.134 C  
HETATM   13  O   UNL     1      -5.813  17.027  65.685  1.00  0.00     0.159 OA 
ENDROOT
BRANCH  12  14
HETATM   14  N   UNL     1      -8.854  15.902  66.781  1.00  0.00    -0.236 N  
HETATM   15  C   UNL     1      -9.444  14.797  66.204  1.00  0.00    -0.292 C  
HETATM   16  H   UNL     1      -8.718  15.898  67.792  1.00  0.00     0.000 HD 
HETATM   17  O   UNL     1      -9.632  14.705  64.999  1.00  0.00    -0.015 OA 
BRANCH  15  18
HETATM   18  C   UNL     1      -9.852  13.691  67.135  1.00  0.00    -0.242 A  
HETATM   19  C   UNL     1     -11.228  13.413  67.318  1.00  0.00    -0.295 A  
HETATM   20  C   UNL     1     -11.605  12.345  68.133  1.00  0.00    -0.395 A  
HETATM   21  C   UNL     1      -6.528  12.212  68.273  1.00  0.00    -0.055 A  
HETATM   22  C   UNL     1     -10.642  11.537  68.730  1.00  0.00    -0.241 A  
HETATM   23  C   UNL     1      -8.849  12.882  67.767  1.00  0.00    -0.188 A  
HETATM   24  C   UNL     1      -7.447  13.087  67.681  1.00  0.00    -0.156 A  
HETATM   25  C   UNL     1      -9.278  11.779  68.548  1.00  0.00    -0.152 A  
HETATM   26  C   UNL     1      -8.346  10.909  69.138  1.00  0.00    -0.077 A  
HETATM   27  C   UNL     1      -6.978  11.114  68.988  1.00  0.00    -0.101 A  
BRANCH  19  28
HETATM   28  O   UNL     1     -12.133  14.215  66.664  1.00  0.00    -0.429 OA 
BRANCH  28  29
HETATM   29  C   UNL     1     -12.939  13.616  65.649  1.00  0.00    -0.238 C  
HETATM   30  C   UNL     1     -12.145  12.483  65.022  1.00  0.00    -0.504 C  
ENDBRANCH  28  29
ENDBRANCH  19  28
ENDBRANCH  15  18
ENDBRANCH  12  14
TORSDOF 4
ENDMDL
MODEL      139
REMARK 921   NORMALIZED FREE ENERGY PREDICTED BY IDOCK:   -4.09 KCAL/MOL
REMARK 922        TOTAL FREE ENERGY PREDICTED BY IDOCK:   -6.18 KCAL/MOL
REMARK 923 INTER-LIGAND FREE ENERGY PREDICTED BY IDOCK:   -4.92 KCAL/MOL
REMARK 924 INTRA-LIGAND FREE ENERGY PREDICTED BY IDOCK:   -1.26 KCAL/MOL
REMARK 927      BINDING AFFINITY PREDICTED BY RF-SCORE:    0.00 PKD
ROOT
HETATM    1  C   UNL     1      -7.633   5.983  66.609  1.00  0.00    -0.095 C  
HETATM    2  S   UNL     1      -6.338   5.532  67.832  1.00  0.00    -0.044 SA 
HETATM    3  C   UNL     1      -6.660   3.711  67.717  1.00  0.00    -0.042 C  
HETATM    4  C   UNL     1      -5.363   2.933  67.951  1.00  0.00    -0.013 C  
HETATM    5  CA  UNL     1      -7.322   3.503  66.333  1.00  0.00    -0.076 C  
HETATM    6  C   UNL     1      -7.614   3.338  68.869  1.00  0.00    -0.048 C  
HETATM    7  N   UNL     1      -8.113   4.712  66.040  1.00  0.00    -0.103 N  
HETATM    8  C   UNL     1      -6.366   3.277  65.148  1.00  0.00    -0.031 C  
HETATM    9  OXT UNL     1      -5.482   2.437  65.110  1.00  0.00    -0.008 OA 
HETATM   10  O   UNL     1      -6.644   4.061  64.075  1.00  0.00    -0.040 OA 
HETATM   11  C   UNL     1      -9.369   4.822  66.584  1.00  0.00    -0.143 C  
HETATM   12  CA  UNL     1      -9.068   6.252  67.145  1.00  0.00    -0.119 C  
HETATM   13  O   UNL     1     -10.232   3.978  66.594  1.00  0.00    -0.065 OA 
ENDROOT
BRANCH  12  14
HETATM   14  N   UNL     1      -9.154   6.528  68.605  1.00  0.00    -0.129 N  
HETATM   15  C   UNL     1     -10.317   6.452  69.344  1.00  0.00    -0.209 C  
HETATM   16  H   UNL     1      -8.297   6.791  69.092  1.00  0.00     0.000 HD 
HETATM   17  O   UNL     1     -11.389   6.128  68.850  1.00  0.00    -0.367 OA 
BRANCH  15  18
HETATM   18  C   UNL     1     -10.209   6.788  70.803  1.00  0.00    -0.215 A  
HETATM   19  C   UNL     1     -10.229   8.146  71.204  1.00  0.00    -0.195 A  
HETATM   20  C   UNL     1     -10.194   8.456  72.563  1.00  0.00    -0.369 A  
HETATM   21  C   UNL     1     -10.135   3.376  72.501  1.00  0.00    -0.232 A  
HETATM   22  C   UNL     1     -10.176   7.445  73.519  1.00  0.00    -0.400 A  
HETATM   23  C   UNL     1     -10.165   5.736  71.778  1.00  0.00    -0.245 A  
HETATM   24  C   UNL     1     -10.108   4.346  71.493  1.00  0.00    -0.221 A  
HETATM   25  C   UNL     1     -10.177   6.097  73.149  1.00  0.00    -0.213 A  
HETATM   26  C   UNL     1     -10.202   5.114  74.152  1.00  0.00    -0.280 A  
HETATM   27  C   UNL     1     -10.199   3.760  73.831  1.00  0.00    -0.214 A  
BRANCH  19  28
HETATM   28  O   UNL     1     -10.296   9.101  70.217  1.00  0.00    -0.190 OA 
BRANCH  28  29
HETATM   29  C   UNL     1     -11.426   9.974  70.211  1.00  0.00    -0.300 C  
HETATM   30  C   UNL     1     -11.063  11.210  69.407  1.00  0.00    -0.314 C  
ENDBRANCH  28  29
ENDBRANCH  19  28
ENDBRANCH  15  18
ENDBRANCH  12  14
TORSDOF 4
ENDMDL
MODEL      140
REMARK 921   NORMALIZED FREE ENERGY PREDICTED BY IDOCK:   -4.05 KCAL/MOL
REMARK 922        TOTAL FREE ENERGY PREDICTED BY IDOCK:   -6.14 KCAL/MOL
REMARK 923 INTER-LIGAND FREE ENERGY PREDICTED BY IDOCK:   -5.73 KCAL/MOL
REMARK 924 INTRA-LIGAND FREE ENERGY PREDICTED BY IDOCK:   -0.41 KCAL/MOL
REMARK 927      BINDING AFFINITY PREDICTED BY RF-SCORE:    0.00 PKD
ROOT
HETATM    1  C   UNL     1      -8.623  18.370  66.875  1.00  0.00    -0.271 C  
HETATM    2  S   UNL     1      -9.003  18.403  68.672  1.00  0.00    -0.244 SA 
HETATM    3  C   UNL     1      -7.227  18.481  69.192  1.00  0.00    -0.179 C  
HETATM    4  C   UNL     1      -7.096  19.275  70.495  1.00  0.00     0.826 C  
HETATM    5  CA  UNL     1      -6.473  19.068  67.975  1.00  0.00    -0.224 C  
HETATM    6  C   UNL     1      -6.775  17.041  69.505  1.00  0.00    -0.156 C  
HETATM    7  N   UNL     1      -7.174  18.609  66.763  1.00  0.00    -0.209 N  
HETATM    8  C   UNL     1      -6.385  20.604  67.904  1.00  0.00    -0.307 C  
HETATM    9  OXT UNL     1      -5.975  21.325  68.800  1.00  0.00    -0.229 OA 
HETATM   10  O   UNL     1      -6.736  21.108  66.694  1.00  0.00    -0.284 OA 
HETATM   11  C   UNL     1      -6.898  17.352  66.282  1.00  0.00    -0.272 C  
HETATM   12  CA  UNL     1      -8.417  16.980  66.207  1.00  0.00    -0.269 C  
HETATM   13  O   UNL     1      -5.807  16.861  66.117  1.00  0.00    -0.251 OA 
ENDROOT
BRANCH  12  14
HETATM   14  N   UNL     1      -8.954  15.825  66.977  1.00  0.00    -0.211 N  
HETATM   15  C   UNL     1      -9.690  14.797  66.425  1.00  0.00    -0.291 C  
HETATM   16  H   UNL     1      -8.765  15.791  67.979  1.00  0.00     0.000 HD 
HETATM   17  O   UNL     1      -9.950  14.744  65.230  1.00  0.00    -0.361 OA 
BRANCH  15  18
HETATM   18  C   UNL     1     -10.165  13.729  67.367  1.00  0.00    -0.252 A  
HETATM   19  C   UNL     1      -9.638  12.420  67.252  1.00  0.00    -0.199 A  
HETATM   20  C   UNL     1     -10.031  11.444  68.168  1.00  0.00    -0.196 A  
HETATM   21  C   UNL     1     -12.536  15.590  69.700  1.00  0.00    -0.032 A  
HETATM   22  C   UNL     1     -10.902  11.759  69.206  1.00  0.00    -0.185 A  
HETATM   23  C   UNL     1     -11.085  14.061  68.417  1.00  0.00    -0.275 A  
HETATM   24  C   UNL     1     -11.700  15.325  68.610  1.00  0.00    -0.367 A  
HETATM   25  C   UNL     1     -11.420  13.048  69.353  1.00  0.00    -0.323 A  
HETATM   26  C   UNL     1     -12.262  13.326  70.442  1.00  0.00    -0.404 A  
HETATM   27  C   UNL     1     -12.804  14.594  70.626  1.00  0.00    -0.399 A  
BRANCH  19  28
HETATM   28  O   UNL     1      -8.744  12.180  66.236  1.00  0.00    -0.117 OA 
BRANCH  28  29
HETATM   29  C   UNL     1      -7.380  11.947  66.591  1.00  0.00     0.070 C  
HETATM   30  C   UNL     1      -7.069  12.766  67.832  1.00  0.00    -0.118 C  
ENDBRANCH  28  29
ENDBRANCH  19  28
ENDBRANCH  15  18
ENDBRANCH  12  14
TORSDOF 4
ENDMDL
MODEL      141
REMARK 921   NORMALIZED FREE ENERGY PREDICTED BY IDOCK:   -4.05 KCAL/MOL
REMARK 922        TOTAL FREE ENERGY PREDICTED BY IDOCK:   -6.13 KCAL/MOL
REMARK 923 INTER-LIGAND FREE ENERGY PREDICTED BY IDOCK:   -5.35 KCAL/MOL
REMARK 924 INTRA-LIGAND FREE ENERGY PREDICTED BY IDOCK:   -0.78 KCAL/MOL
REMARK 927      BINDING AFFINITY PREDICTED BY RF-SCORE:    0.00 PKD
ROOT
HETATM    1  C   UNL     1     -10.897   8.325  70.169  1.00  0.00    -0.237 C  
HETATM    2  S   UNL     1     -11.118   6.843  69.106  1.00  0.00    -0.112 SA 
HETATM    3  C   UNL     1      -9.577   6.006  69.706  1.00  0.00    -0.150 C  
HETATM    4  C   UNL     1      -9.763   4.487  69.683  1.00  0.00    -0.288 C  
HETATM    5  CA  UNL     1      -9.297   6.623  71.098  1.00  0.00    -0.163 C  
HETATM    6  C   UNL     1      -8.456   6.329  68.699  1.00  0.00    -0.122 C  
HETATM    7  N   UNL     1      -9.764   8.019  71.059  1.00  0.00    -0.159 N  
HETATM    8  C   UNL     1      -9.979   5.938  72.296  1.00  0.00    -0.169 C  
HETATM    9  OXT UNL     1      -9.915   4.747  72.553  1.00  0.00    -0.154 OA 
HETATM   10  O   UNL     1     -10.616   6.808  73.121  1.00  0.00    -0.243 OA 
HETATM   11  C   UNL     1      -8.941   8.972  70.511  1.00  0.00    -0.213 C  
HETATM   12  CA  UNL     1     -10.082   9.515  69.587  1.00  0.00    -0.212 C  
HETATM   13  O   UNL     1      -7.764   9.129  70.732  1.00  0.00    -0.117 OA 
ENDROOT
BRANCH  12  14
HETATM   14  N   UNL     1      -9.927   9.508  68.106  1.00  0.00    -0.159 N  
HETATM   15  C   UNL     1      -9.031  10.297  67.415  1.00  0.00    -0.135 C  
HETATM   16  H   UNL     1     -10.522   8.878  67.567  1.00  0.00     0.000 HD 
HETATM   17  O   UNL     1      -8.265  11.069  67.977  1.00  0.00    -0.115 OA 
BRANCH  15  18
HETATM   18  C   UNL     1      -9.036  10.166  65.919  1.00  0.00    -0.182 A  
HETATM   19  C   UNL     1      -9.622  11.190  65.136  1.00  0.00    -0.234 A  
HETATM   20  C   UNL     1      -9.569  11.099  63.745  1.00  0.00    -0.301 A  
HETATM   21  C   UNL     1      -7.112   6.933  65.302  1.00  0.00    -0.067 A  
HETATM   22  C   UNL     1      -8.916  10.035  63.130  1.00  0.00    -0.273 A  
HETATM   23  C   UNL     1      -8.382   9.049  65.298  1.00  0.00    -0.157 A  
HETATM   24  C   UNL     1      -7.791   7.953  65.979  1.00  0.00    -0.095 A  
HETATM   25  C   UNL     1      -8.313   9.022  63.881  1.00  0.00    -0.178 A  
HETATM   26  C   UNL     1      -7.629   7.992  63.214  1.00  0.00    -0.130 A  
HETATM   27  C   UNL     1      -7.017   6.962  63.920  1.00  0.00    -0.056 A  
BRANCH  19  28
HETATM   28  O   UNL     1     -10.210  12.240  65.799  1.00  0.00    -0.244 OA 
BRANCH  28  29
HETATM   29  C   UNL     1     -11.439  12.750  65.279  1.00  0.00    -0.325 C  
HETATM   30  C   UNL     1     -11.247  14.226  64.976  1.00  0.00    -0.364 C  
ENDBRANCH  28  29
ENDBRANCH  19  28
ENDBRANCH  15  18
ENDBRANCH  12  14
TORSDOF 4
ENDMDL
MODEL      142
REMARK 921   NORMALIZED FREE ENERGY PREDICTED BY IDOCK:   -4.01 KCAL/MOL
REMARK 922        TOTAL FREE ENERGY PREDICTED BY IDOCK:   -6.09 KCAL/MOL
REMARK 923 INTER-LIGAND FREE ENERGY PREDICTED BY IDOCK:   -4.97 KCAL/MOL
REMARK 924 INTRA-LIGAND FREE ENERGY PREDICTED BY IDOCK:   -1.12 KCAL/MOL
REMARK 927      BINDING AFFINITY PREDICTED BY RF-SCORE:    0.00 PKD
ROOT
HETATM    1  C   UNL     1      -8.545   7.143  66.041  1.00  0.00    -0.152 C  
HETATM    2  S   UNL     1      -9.051   8.894  66.268  1.00  0.00    -0.206 SA 
HETATM    3  C   UNL     1      -7.315   9.529  66.398  1.00  0.00    -0.093 C  
HETATM    4  C   UNL     1      -7.233  10.949  65.833  1.00  0.00    -0.037 C  
HETATM    5  CA  UNL     1      -6.442   8.473  65.678  1.00  0.00    -0.056 C  
HETATM    6  C   UNL     1      -6.972   9.629  67.897  1.00  0.00    -0.079 C  
HETATM    7  N   UNL     1      -7.080   7.162  65.888  1.00  0.00    -0.068 N  
HETATM    8  C   UNL     1      -6.260   8.661  64.160  1.00  0.00    -0.071 C  
HETATM    9  OXT UNL     1      -5.874   9.686  63.622  1.00  0.00    -0.088 OA 
HETATM   10  O   UNL     1      -6.492   7.530  63.446  1.00  0.00    -0.053 OA 
HETATM   11  C   UNL     1      -6.843   6.499  67.068  1.00  0.00    -0.066 C  
HETATM   12  CA  UNL     1      -8.372   6.270  67.317  1.00  0.00    -0.109 C  
HETATM   13  O   UNL     1      -5.775   6.324  67.601  1.00  0.00    -0.011 OA 
ENDROOT
BRANCH  12  14
HETATM   14  N   UNL     1      -9.030   6.806  68.540  1.00  0.00    -0.122 N  
HETATM   15  C   UNL     1     -10.367   6.641  68.839  1.00  0.00    -0.193 C  
HETATM   16  H   UNL     1      -8.455   7.330  69.200  1.00  0.00     0.000 HD 
HETATM   17  O   UNL     1     -11.129   6.013  68.116  1.00  0.00    -0.306 OA 
BRANCH  15  18
HETATM   18  C   UNL     1     -10.854   7.274  70.110  1.00  0.00    -0.274 A  
HETATM   19  C   UNL     1     -10.806   6.532  71.316  1.00  0.00    -0.249 A  
HETATM   20  C   UNL     1     -11.198   7.141  72.507  1.00  0.00    -0.327 A  
HETATM   21  C   UNL     1     -11.773  10.817  69.047  1.00  0.00    -0.357 A  
HETATM   22  C   UNL     1     -11.597   8.475  72.522  1.00  0.00    -0.376 A  
HETATM   23  C   UNL     1     -11.288   8.642  70.107  1.00  0.00    -0.083 A  
HETATM   24  C   UNL     1     -11.406   9.469  68.960  1.00  0.00     0.116 A  
HETATM   25  C   UNL     1     -11.632   9.234  71.349  1.00  0.00    -0.437 A  
HETATM   26  C   UNL     1     -12.001  10.588  71.423  1.00  0.00    -0.325 A  
HETATM   27  C   UNL     1     -12.055  11.381  70.281  1.00  0.00    -0.459 A  
BRANCH  19  28
HETATM   28  O   UNL     1     -10.358   5.234  71.247  1.00  0.00    -0.216 OA 
BRANCH  28  29
HETATM   29  C   UNL     1      -9.080   4.941  71.813  1.00  0.00    -0.139 C  
HETATM   30  C   UNL     1      -9.288   3.996  72.984  1.00  0.00    -0.131 C  
ENDBRANCH  28  29
ENDBRANCH  19  28
ENDBRANCH  15  18
ENDBRANCH  12  14
TORSDOF 4
ENDMDL
MODEL      143
REMARK 921   NORMALIZED FREE ENERGY PREDICTED BY IDOCK:   -4.01 KCAL/MOL
REMARK 922        TOTAL FREE ENERGY PREDICTED BY IDOCK:   -6.08 KCAL/MOL
REMARK 923 INTER-LIGAND FREE ENERGY PREDICTED BY IDOCK:   -4.77 KCAL/MOL
REMARK 924 INTRA-LIGAND FREE ENERGY PREDICTED BY IDOCK:   -1.32 KCAL/MOL
REMARK 927      BINDING AFFINITY PREDICTED BY RF-SCORE:    0.00 PKD
ROOT
HETATM    1  C   UNL     1     -10.405   5.486  66.553  1.00  0.00    -0.256 C  
HETATM    2  S   UNL     1      -9.526   7.097  66.476  1.00  0.00    -0.124 SA 
HETATM    3  C   UNL     1      -7.871   6.340  66.124  1.00  0.00    -0.105 C  
HETATM    4  C   UNL     1      -7.039   7.283  65.250  1.00  0.00    -0.060 C  
HETATM    5  CA  UNL     1      -8.182   4.956  65.503  1.00  0.00    -0.116 C  
HETATM    6  C   UNL     1      -7.128   6.211  67.468  1.00  0.00    -0.074 C  
HETATM    7  N   UNL     1      -9.429   4.471  66.120  1.00  0.00    -0.157 N  
HETATM    8  C   UNL     1      -8.378   4.923  63.977  1.00  0.00    -0.131 C  
HETATM    9  OXT UNL     1      -7.591   5.372  63.159  1.00  0.00    -0.060 OA 
HETATM   10  O   UNL     1      -9.498   4.259  63.592  1.00  0.00    -0.148 OA 
HETATM   11  C   UNL     1      -9.359   3.863  67.350  1.00  0.00    -0.191 C  
HETATM   12  CA  UNL     1     -10.489   4.776  67.934  1.00  0.00     0.171 C  
HETATM   13  O   UNL     1      -8.582   3.005  67.693  1.00  0.00    -0.086 OA 
ENDROOT
BRANCH  12  14
HETATM   14  N   UNL     1     -10.228   5.651  69.109  1.00  0.00    -0.213 N  
HETATM   15  C   UNL     1     -10.003   5.187  70.389  1.00  0.00    -0.246 C  
HETATM   16  H   UNL     1     -10.213   6.660  68.959  1.00  0.00     0.000 HD 
HETATM   17  O   UNL     1      -9.984   3.994  70.661  1.00  0.00    -0.187 OA 
BRANCH  15  18
HETATM   18  C   UNL     1      -9.779   6.225  71.450  1.00  0.00    -0.191 A  
HETATM   19  C   UNL     1     -10.895   6.791  72.112  1.00  0.00    -0.227 A  
HETATM   20  C   UNL     1     -10.685   7.707  73.142  1.00  0.00    -0.445 A  
HETATM   21  C   UNL     1      -5.981   6.435  71.702  1.00  0.00    -0.037 A  
HETATM   22  C   UNL     1      -9.394   8.037  73.542  1.00  0.00    -0.285 A  
HETATM   23  C   UNL     1      -8.442   6.576  71.836  1.00  0.00    -0.119 A  
HETATM   24  C   UNL     1      -7.253   6.098  71.225  1.00  0.00    -0.079 A  
HETATM   25  C   UNL     1      -8.275   7.476  72.919  1.00  0.00    -0.149 A  
HETATM   26  C   UNL     1      -6.994   7.808  73.388  1.00  0.00    -0.106 A  
HETATM   27  C   UNL     1      -5.852   7.278  72.795  1.00  0.00    -0.041 A  
BRANCH  19  28
HETATM   28  O   UNL     1     -12.146   6.391  71.706  1.00  0.00    -0.340 OA 
BRANCH  28  29
HETATM   29  C   UNL     1     -12.998   7.373  71.114  1.00  0.00    -0.240 C  
HETATM   30  C   UNL     1     -14.408   7.150  71.634  1.00  0.00    -0.528 C  
ENDBRANCH  28  29
ENDBRANCH  19  28
ENDBRANCH  15  18
ENDBRANCH  12  14
TORSDOF 4
ENDMDL
MODEL      144
REMARK 921   NORMALIZED FREE ENERGY PREDICTED BY IDOCK:   -3.93 KCAL/MOL
REMARK 922        TOTAL FREE ENERGY PREDICTED BY IDOCK:   -5.98 KCAL/MOL
REMARK 923 INTER-LIGAND FREE ENERGY PREDICTED BY IDOCK:   -5.69 KCAL/MOL
REMARK 924 INTRA-LIGAND FREE ENERGY PREDICTED BY IDOCK:   -0.29 KCAL/MOL
REMARK 927      BINDING AFFINITY PREDICTED BY RF-SCORE:    0.00 PKD
ROOT
HETATM    1  C   UNL     1      -8.612   7.389  65.697  1.00  0.00    -0.112 C  
HETATM    2  S   UNL     1      -8.875   9.005  64.864  1.00  0.00    -0.098 SA 
HETATM    3  C   UNL     1      -7.121   9.563  65.076  1.00  0.00    -0.109 C  
HETATM    4  C   UNL     1      -6.710  10.460  63.905  1.00  0.00     0.004 C  
HETATM    5  CA  UNL     1      -6.298   8.262  65.239  1.00  0.00    -0.048 C  
HETATM    6  C   UNL     1      -7.065  10.438  66.343  1.00  0.00    -0.118 C  
HETATM    7  N   UNL     1      -7.160   7.283  65.925  1.00  0.00    -0.064 N  
HETATM    8  C   UNL     1      -5.796   7.606  63.940  1.00  0.00    -0.049 C  
HETATM    9  OXT UNL     1      -5.159   8.175  63.067  1.00  0.00    -0.049 OA 
HETATM   10  O   UNL     1      -6.057   6.275  63.873  1.00  0.00    -0.022 OA 
HETATM   11  C   UNL     1      -7.264   7.346  67.293  1.00  0.00    -0.093 C  
HETATM   12  CA  UNL     1      -8.828   7.328  67.236  1.00  0.00    -0.124 C  
HETATM   13  O   UNL     1      -6.360   7.453  68.086  1.00  0.00    -0.044 OA 
ENDROOT
BRANCH  12  14
HETATM   14  N   UNL     1      -9.621   8.452  67.806  1.00  0.00    -0.152 N  
HETATM   15  C   UNL     1      -9.378   9.030  69.034  1.00  0.00    -0.140 C  
HETATM   16  H   UNL     1     -10.396   8.818  67.251  1.00  0.00     0.000 HD 
HETATM   17  O   UNL     1      -8.462   8.669  69.761  1.00  0.00    -0.123 OA 
BRANCH  15  18
HETATM   18  C   UNL     1     -10.300  10.140  69.449  1.00  0.00    -0.251 A  
HETATM   19  C   UNL     1     -10.280  11.361  68.732  1.00  0.00    -0.197 A  
HETATM   20  C   UNL     1     -11.182  12.368  69.076  1.00  0.00    -0.320 A  
HETATM   21  C   UNL     1     -12.322   8.604  72.291  1.00  0.00    -0.449 A  
HETATM   22  C   UNL     1     -12.116  12.166  70.087  1.00  0.00    -0.368 A  
HETATM   23  C   UNL     1     -11.241   9.928  70.511  1.00  0.00    -0.399 A  
HETATM   24  C   UNL     1     -11.331   8.762  71.317  1.00  0.00    -0.357 A  
HETATM   25  C   UNL     1     -12.170  10.962  70.795  1.00  0.00    -0.483 A  
HETATM   26  C   UNL     1     -13.159  10.791  71.777  1.00  0.00    -0.573 A  
HETATM   27  C   UNL     1     -13.247   9.612  72.511  1.00  0.00    -0.296 A  
BRANCH  19  28
HETATM   28  O   UNL     1      -9.368  11.486  67.712  1.00  0.00    -0.161 OA 
BRANCH  28  29
HETATM   29  C   UNL     1      -9.361  12.707  66.971  1.00  0.00    -0.220 C  
HETATM   30  C   UNL     1     -10.047  12.455  65.640  1.00  0.00    -0.277 C  
ENDBRANCH  28  29
ENDBRANCH  19  28
ENDBRANCH  15  18
ENDBRANCH  12  14
TORSDOF 4
ENDMDL
MODEL      145
REMARK 921   NORMALIZED FREE ENERGY PREDICTED BY IDOCK:   -3.89 KCAL/MOL
REMARK 922        TOTAL FREE ENERGY PREDICTED BY IDOCK:   -5.94 KCAL/MOL
REMARK 923 INTER-LIGAND FREE ENERGY PREDICTED BY IDOCK:   -5.27 KCAL/MOL
REMARK 924 INTRA-LIGAND FREE ENERGY PREDICTED BY IDOCK:   -0.67 KCAL/MOL
REMARK 927      BINDING AFFINITY PREDICTED BY RF-SCORE:    0.00 PKD
ROOT
HETATM    1  C   UNL     1      -7.801   5.654  66.630  1.00  0.00    -0.101 C  
HETATM    2  S   UNL     1      -7.382   5.347  68.392  1.00  0.00    -0.073 SA 
HETATM    3  C   UNL     1      -8.176   3.673  68.439  1.00  0.00    -0.077 C  
HETATM    4  C   UNL     1      -7.428   2.765  69.417  1.00  0.00    -0.044 C  
HETATM    5  CA  UNL     1      -8.198   3.194  66.967  1.00  0.00    -0.084 C  
HETATM    6  C   UNL     1      -9.599   3.854  69.003  1.00  0.00    -0.209 C  
HETATM    7  N   UNL     1      -8.358   4.389  66.120  1.00  0.00    -0.112 N  
HETATM    8  C   UNL     1      -6.947   2.443  66.476  1.00  0.00    -0.044 C  
HETATM    9  OXT UNL     1      -6.449   1.475  67.028  1.00  0.00    -0.023 OA 
HETATM   10  O   UNL     1      -6.468   2.910  65.294  1.00  0.00    -0.033 OA 
HETATM   11  C   UNL     1      -9.620   4.898  65.935  1.00  0.00    -0.175 C  
HETATM   12  CA  UNL     1      -9.161   6.344  66.322  1.00  0.00    -0.151 C  
HETATM   13  O   UNL     1     -10.618   4.280  65.653  1.00  0.00    -0.201 OA 
ENDROOT
BRANCH  12  14
HETATM   14  N   UNL     1      -9.781   7.055  67.474  1.00  0.00    -0.132 N  
HETATM   15  C   UNL     1      -9.321   8.249  67.989  1.00  0.00    -0.132 C  
HETATM   16  H   UNL     1     -10.600   6.631  67.910  1.00  0.00     0.000 HD 
HETATM   17  O   UNL     1      -8.357   8.839  67.520  1.00  0.00    -0.109 OA 
BRANCH  15  18
HETATM   18  C   UNL     1     -10.067   8.803  69.169  1.00  0.00    -0.203 A  
HETATM   19  C   UNL     1      -9.989   8.133  70.414  1.00  0.00    -0.188 A  
HETATM   20  C   UNL     1     -10.628   8.683  71.525  1.00  0.00    -0.352 A  
HETATM   21  C   UNL     1     -11.614  12.014  67.817  1.00  0.00    -0.400 A  
HETATM   22  C   UNL     1     -11.306   9.894  71.423  1.00  0.00    -0.344 A  
HETATM   23  C   UNL     1     -10.784  10.040  69.044  1.00  0.00    -0.244 A  
HETATM   24  C   UNL     1     -10.957  10.779  67.845  1.00  0.00    -0.344 A  
HETATM   25  C   UNL     1     -11.380  10.584  70.211  1.00  0.00    -0.407 A  
HETATM   26  C   UNL     1     -12.039  11.824  70.170  1.00  0.00    -0.398 A  
HETATM   27  C   UNL     1     -12.142  12.545  68.984  1.00  0.00    -0.181 A  
BRANCH  19  28
HETATM   28  O   UNL     1      -9.265   6.966  70.465  1.00  0.00    -0.155 OA 
BRANCH  28  29
HETATM   29  C   UNL     1      -8.977   6.418  71.752  1.00  0.00    -0.139 C  
HETATM   30  C   UNL     1      -9.784   5.141  71.912  1.00  0.00    -0.211 C  
ENDBRANCH  28  29
ENDBRANCH  19  28
ENDBRANCH  15  18
ENDBRANCH  12  14
TORSDOF 4
ENDMDL
MODEL      146
REMARK 921   NORMALIZED FREE ENERGY PREDICTED BY IDOCK:   -3.86 KCAL/MOL
REMARK 922        TOTAL FREE ENERGY PREDICTED BY IDOCK:   -5.90 KCAL/MOL
REMARK 923 INTER-LIGAND FREE ENERGY PREDICTED BY IDOCK:   -5.66 KCAL/MOL
REMARK 924 INTRA-LIGAND FREE ENERGY PREDICTED BY IDOCK:   -0.24 KCAL/MOL
REMARK 927      BINDING AFFINITY PREDICTED BY RF-SCORE:    0.00 PKD
ROOT
HETATM    1  C   UNL     1      -6.911   9.314  66.290  1.00  0.00    -0.087 C  
HETATM    2  S   UNL     1      -7.877   8.688  67.722  1.00  0.00    -0.103 SA 
HETATM    3  C   UNL     1      -9.063   7.716  66.681  1.00  0.00    -0.164 C  
HETATM    4  C   UNL     1      -9.529   6.471  67.441  1.00  0.00    -0.135 C  
HETATM    5  CA  UNL     1      -8.310   7.445  65.355  1.00  0.00    -0.117 C  
HETATM    6  C   UNL     1     -10.310   8.594  66.463  1.00  0.00    -0.237 C  
HETATM    7  N   UNL     1      -7.428   8.599  65.110  1.00  0.00    -0.088 N  
HETATM    8  C   UNL     1      -7.438   6.178  65.314  1.00  0.00    -0.084 C  
HETATM    9  OXT UNL     1      -7.819   5.053  65.597  1.00  0.00    -0.089 OA 
HETATM   10  O   UNL     1      -6.184   6.403  64.843  1.00  0.00    -0.029 OA 
HETATM   11  C   UNL     1      -7.965   9.725  64.534  1.00  0.00    -0.144 C  
HETATM   12  CA  UNL     1      -7.366  10.653  65.643  1.00  0.00    -0.087 C  
HETATM   13  O   UNL     1      -8.682   9.772  63.564  1.00  0.00    -0.188 OA 
ENDROOT
BRANCH  12  14
HETATM   14  N   UNL     1      -8.256  11.492  66.492  1.00  0.00    -0.254 N  
HETATM   15  C   UNL     1      -9.389  12.132  66.034  1.00  0.00    -0.170 C  
HETATM   16  H   UNL     1      -8.012  11.600  67.477  1.00  0.00     0.000 HD 
HETATM   17  O   UNL     1      -9.770  12.045  64.875  1.00  0.00    -0.211 OA 
BRANCH  15  18
HETATM   18  C   UNL     1     -10.148  12.952  67.037  1.00  0.00    -0.245 A  
HETATM   19  C   UNL     1     -10.684  12.321  68.186  1.00  0.00    -0.216 A  
HETATM   20  C   UNL     1     -11.333  13.093  69.148  1.00  0.00    -0.335 A  
HETATM   21  C   UNL     1      -9.873  16.502  65.675  1.00  0.00    -0.187 A  
HETATM   22  C   UNL     1     -11.423  14.474  69.003  1.00  0.00    -0.318 A  
HETATM   23  C   UNL     1     -10.257  14.372  66.862  1.00  0.00    -0.265 A  
HETATM   24  C   UNL     1      -9.789  15.106  65.741  1.00  0.00    -0.384 A  
HETATM   25  C   UNL     1     -10.885  15.124  67.889  1.00  0.00    -0.291 A  
HETATM   26  C   UNL     1     -10.964  16.524  67.810  1.00  0.00    -0.252 A  
HETATM   27  C   UNL     1     -10.446  17.212  66.717  1.00  0.00    -0.263 A  
BRANCH  19  28
HETATM   28  O   UNL     1     -10.523  10.960  68.298  1.00  0.00    -0.165 OA 
BRANCH  28  29
HETATM   29  C   UNL     1     -11.377  10.262  69.205  1.00  0.00    -0.186 C  
HETATM   30  C   UNL     1     -10.550   9.853  70.412  1.00  0.00    -0.364 C  
ENDBRANCH  28  29
ENDBRANCH  19  28
ENDBRANCH  15  18
ENDBRANCH  12  14
TORSDOF 4
ENDMDL
MODEL      147
REMARK 921   NORMALIZED FREE ENERGY PREDICTED BY IDOCK:   -3.79 KCAL/MOL
REMARK 922        TOTAL FREE ENERGY PREDICTED BY IDOCK:   -5.81 KCAL/MOL
REMARK 923 INTER-LIGAND FREE ENERGY PREDICTED BY IDOCK:   -4.44 KCAL/MOL
REMARK 924 INTRA-LIGAND FREE ENERGY PREDICTED BY IDOCK:   -1.37 KCAL/MOL
REMARK 927      BINDING AFFINITY PREDICTED BY RF-SCORE:    0.00 PKD
ROOT
HETATM    1  C   UNL     1      -9.399   8.503  70.318  1.00  0.00    -0.162 C  
HETATM    2  S   UNL     1      -8.709   9.074  68.713  1.00  0.00    -0.137 SA 
HETATM    3  C   UNL     1     -10.352   9.112  67.857  1.00  0.00    -0.232 C  
HETATM    4  C   UNL     1     -10.367  10.219  66.800  1.00  0.00    -0.288 C  
HETATM    5  CA  UNL     1     -11.397   9.257  68.990  1.00  0.00     0.289 C  
HETATM    6  C   UNL     1     -10.509   7.778  67.102  1.00  0.00    -0.413 C  
HETATM    7  N   UNL     1     -10.864   8.553  70.169  1.00  0.00    -0.236 N  
HETATM    8  C   UNL     1     -11.736  10.695  69.423  1.00  0.00    -0.273 C  
HETATM    9  OXT UNL     1     -12.084  11.591  68.671  1.00  0.00    -0.483 OA 
HETATM   10  O   UNL     1     -11.693  10.876  70.768  1.00  0.00    -0.328 OA 
HETATM   11  C   UNL     1     -11.023   7.191  70.247  1.00  0.00    -0.263 C  
HETATM   12  CA  UNL     1      -9.503   6.970  70.553  1.00  0.00    -0.166 C  
HETATM   13  O   UNL     1     -12.034   6.565  70.042  1.00  0.00    -0.358 OA 
ENDROOT
BRANCH  12  14
HETATM   14  N   UNL     1      -8.661   6.135  69.652  1.00  0.00    -0.133 N  
HETATM   15  C   UNL     1      -8.871   4.792  69.416  1.00  0.00    -0.084 C  
HETATM   16  H   UNL     1      -7.878   6.586  69.179  1.00  0.00     0.000 HD 
HETATM   17  O   UNL     1      -9.794   4.172  69.926  1.00  0.00    -0.215 OA 
BRANCH  15  18
HETATM   18  C   UNL     1      -7.901   4.114  68.492  1.00  0.00    -0.073 A  
HETATM   19  C   UNL     1      -6.667   3.647  69.005  1.00  0.00    -0.045 A  
HETATM   20  C   UNL     1      -5.794   2.960  68.161  1.00  0.00    -0.023 A  
HETATM   21  C   UNL     1      -9.769   3.996  65.172  1.00  0.00    -0.196 A  
HETATM   22  C   UNL     1      -6.145   2.702  66.840  1.00  0.00    -0.024 A  
HETATM   23  C   UNL     1      -8.264   3.878  67.124  1.00  0.00    -0.099 A  
HETATM   24  C   UNL     1      -9.455   4.326  66.495  1.00  0.00    -0.196 A  
HETATM   25  C   UNL     1      -7.366   3.135  66.315  1.00  0.00    -0.071 A  
HETATM   26  C   UNL     1      -7.692   2.812  64.988  1.00  0.00    -0.080 A  
HETATM   27  C   UNL     1      -8.894   3.225  64.423  1.00  0.00    -0.103 A  
BRANCH  19  28
HETATM   28  O   UNL     1      -6.395   3.889  70.331  1.00  0.00    -0.025 OA 
BRANCH  28  29
HETATM   29  C   UNL     1      -5.321   4.778  70.638  1.00  0.00    -0.004 C  
HETATM   30  C   UNL     1      -5.777   5.700  71.756  1.00  0.00    -0.021 C  
ENDBRANCH  28  29
ENDBRANCH  19  28
ENDBRANCH  15  18
ENDBRANCH  12  14
TORSDOF 4
ENDMDL
MODEL      148
REMARK 921   NORMALIZED FREE ENERGY PREDICTED BY IDOCK:   -3.78 KCAL/MOL
REMARK 922        TOTAL FREE ENERGY PREDICTED BY IDOCK:   -5.80 KCAL/MOL
REMARK 923 INTER-LIGAND FREE ENERGY PREDICTED BY IDOCK:   -4.89 KCAL/MOL
REMARK 924 INTRA-LIGAND FREE ENERGY PREDICTED BY IDOCK:   -0.92 KCAL/MOL
REMARK 927      BINDING AFFINITY PREDICTED BY RF-SCORE:    0.00 PKD
ROOT
HETATM    1  C   UNL     1      -7.472   7.832  71.867  1.00  0.00    -0.074 C  
HETATM    2  S   UNL     1      -9.082   8.193  72.676  1.00  0.00    -0.269 SA 
HETATM    3  C   UNL     1      -9.771   6.497  72.387  1.00  0.00    -0.152 C  
HETATM    4  C   UNL     1     -10.724   6.118  73.523  1.00  0.00    -0.263 C  
HETATM    5  CA  UNL     1      -8.534   5.580  72.221  1.00  0.00    -0.122 C  
HETATM    6  C   UNL     1     -10.617   6.556  71.101  1.00  0.00    -0.271 C  
HETATM    7  N   UNL     1      -7.475   6.385  71.588  1.00  0.00    -0.092 N  
HETATM    8  C   UNL     1      -7.951   4.982  73.514  1.00  0.00    -0.107 C  
HETATM    9  OXT UNL     1      -8.588   4.362  74.350  1.00  0.00    -0.096 OA 
HETATM   10  O   UNL     1      -6.606   5.135  73.618  1.00  0.00    -0.067 OA 
HETATM   11  C   UNL     1      -7.497   6.542  70.223  1.00  0.00    -0.094 C  
HETATM   12  CA  UNL     1      -7.358   8.097  70.338  1.00  0.00    -0.062 C  
HETATM   13  O   UNL     1      -7.656   5.678  69.396  1.00  0.00    -0.079 OA 
ENDROOT
BRANCH  12  14
HETATM   14  N   UNL     1      -8.403   8.997  69.775  1.00  0.00    -0.121 N  
HETATM   15  C   UNL     1      -8.210   9.827  68.691  1.00  0.00    -0.106 C  
HETATM   16  H   UNL     1      -9.320   8.999  70.221  1.00  0.00     0.000 HD 
HETATM   17  O   UNL     1      -7.150   9.879  68.083  1.00  0.00    -0.076 OA 
BRANCH  15  18
HETATM   18  C   UNL     1      -9.378  10.678  68.281  1.00  0.00    -0.156 A  
HETATM   19  C   UNL     1     -10.635  10.067  68.058  1.00  0.00    -0.235 A  
HETATM   20  C   UNL     1     -11.734  10.865  67.740  1.00  0.00    -0.086 A  
HETATM   21  C   UNL     1      -7.963  14.217  68.336  1.00  0.00    -0.143 A  
HETATM   22  C   UNL     1     -11.609  12.250  67.680  1.00  0.00    -0.421 A  
HETATM   23  C   UNL     1      -9.229  12.103  68.196  1.00  0.00    -0.197 A  
HETATM   24  C   UNL     1      -8.015  12.819  68.368  1.00  0.00    -0.137 A  
HETATM   25  C   UNL     1     -10.383  12.878  67.917  1.00  0.00    -0.233 A  
HETATM   26  C   UNL     1     -10.317  14.281  67.886  1.00  0.00    -0.233 A  
HETATM   27  C   UNL     1      -9.118  14.949  68.111  1.00  0.00    -0.177 A  
BRANCH  19  28
HETATM   28  O   UNL     1     -10.710   8.700  68.179  1.00  0.00    -0.167 OA 
BRANCH  28  29
HETATM   29  C   UNL     1     -10.708   7.925  66.979  1.00  0.00    -0.219 C  
HETATM   30  C   UNL     1     -11.147   6.514  67.328  1.00  0.00    -0.429 C  
ENDBRANCH  28  29
ENDBRANCH  19  28
ENDBRANCH  15  18
ENDBRANCH  12  14
TORSDOF 4
ENDMDL
MODEL      149
REMARK 921   NORMALIZED FREE ENERGY PREDICTED BY IDOCK:   -3.75 KCAL/MOL
REMARK 922        TOTAL FREE ENERGY PREDICTED BY IDOCK:   -5.77 KCAL/MOL
REMARK 923 INTER-LIGAND FREE ENERGY PREDICTED BY IDOCK:   -5.24 KCAL/MOL
REMARK 924 INTRA-LIGAND FREE ENERGY PREDICTED BY IDOCK:   -0.53 KCAL/MOL
REMARK 927      BINDING AFFINITY PREDICTED BY RF-SCORE:    0.00 PKD
ROOT
HETATM    1  C   UNL     1     -10.695   5.704  70.709  1.00  0.00    -0.250 C  
HETATM    2  S   UNL     1      -8.899   5.416  70.449  1.00  0.00    -0.131 SA 
HETATM    3  C   UNL     1      -8.451   5.693  72.226  1.00  0.00    -0.119 C  
HETATM    4  C   UNL     1      -7.244   4.830  72.602  1.00  0.00    -0.083 C  
HETATM    5  CA  UNL     1      -9.749   5.408  73.020  1.00  0.00    -0.150 C  
HETATM    6  C   UNL     1      -8.005   7.161  72.365  1.00  0.00    -0.102 C  
HETATM    7  N   UNL     1     -10.881   5.810  72.167  1.00  0.00    -0.234 N  
HETATM    8  C   UNL     1      -9.983   3.946  73.441  1.00  0.00    -0.128 C  
HETATM    9  OXT UNL     1      -9.182   3.255  74.051  1.00  0.00    -0.088 OA 
HETATM   10  O   UNL     1     -11.227   3.492  73.142  1.00  0.00    -0.127 OA 
HETATM   11  C   UNL     1     -11.237   7.136  72.131  1.00  0.00    -0.255 C  
HETATM   12  CA  UNL     1     -11.220   7.161  70.565  1.00  0.00    -0.290 C  
HETATM   13  O   UNL     1     -11.386   7.874  73.074  1.00  0.00    -0.408 OA 
ENDROOT
BRANCH  12  14
HETATM   14  N   UNL     1     -10.315   8.087  69.831  1.00  0.00    -0.216 N  
HETATM   15  C   UNL     1     -10.291   9.455  70.010  1.00  0.00    -0.233 C  
HETATM   16  H   UNL     1      -9.671   7.684  69.150  1.00  0.00     0.000 HD 
HETATM   17  O   UNL     1     -11.014  10.025  70.816  1.00  0.00    -0.313 OA 
BRANCH  15  18
HETATM   18  C   UNL     1      -9.323  10.226  69.160  1.00  0.00    -0.214 A  
HETATM   19  C   UNL     1      -9.810  10.976  68.062  1.00  0.00    -0.171 A  
HETATM   20  C   UNL     1      -8.919  11.744  67.312  1.00  0.00    -0.172 A  
HETATM   21  C   UNL     1      -5.974   9.664  70.892  1.00  0.00    -0.081 A  
HETATM   22  C   UNL     1      -7.573  11.805  67.659  1.00  0.00    -0.132 A  
HETATM   23  C   UNL     1      -7.932  10.259  69.512  1.00  0.00    -0.171 A  
HETATM   24  C   UNL     1      -7.328   9.527  70.568  1.00  0.00    -0.147 A  
HETATM   25  C   UNL     1      -7.071  11.090  68.750  1.00  0.00    -0.086 A  
HETATM   26  C   UNL     1      -5.713  11.218  69.085  1.00  0.00    -0.041 A  
HETATM   27  C   UNL     1      -5.169  10.523  70.160  1.00  0.00    -0.043 A  
BRANCH  19  28
HETATM   28  O   UNL     1     -11.157  10.915  67.797  1.00  0.00    -0.265 OA 
BRANCH  28  29
HETATM   29  C   UNL     1     -11.844  12.145  67.559  1.00  0.00    -0.237 C  
HETATM   30  C   UNL     1     -11.865  12.932  68.857  1.00  0.00    -0.352 C  
ENDBRANCH  28  29
ENDBRANCH  19  28
ENDBRANCH  15  18
ENDBRANCH  12  14
TORSDOF 4
ENDMDL
MODEL      150
REMARK 921   NORMALIZED FREE ENERGY PREDICTED BY IDOCK:   -3.75 KCAL/MOL
REMARK 922        TOTAL FREE ENERGY PREDICTED BY IDOCK:   -5.76 KCAL/MOL
REMARK 923 INTER-LIGAND FREE ENERGY PREDICTED BY IDOCK:   -4.88 KCAL/MOL
REMARK 924 INTRA-LIGAND FREE ENERGY PREDICTED BY IDOCK:   -0.88 KCAL/MOL
REMARK 927      BINDING AFFINITY PREDICTED BY RF-SCORE:    0.00 PKD
ROOT
HETATM    1  C   UNL     1      -8.268   9.576  70.544  1.00  0.00    -0.167 C  
HETATM    2  S   UNL     1      -8.860   8.057  69.698  1.00  0.00    -0.141 SA 
HETATM    3  C   UNL     1      -7.158   7.383  69.406  1.00  0.00    -0.070 C  
HETATM    4  C   UNL     1      -7.187   5.853  69.436  1.00  0.00    -0.067 C  
HETATM    5  CA  UNL     1      -6.267   8.054  70.480  1.00  0.00    -0.036 C  
HETATM    6  C   UNL     1      -6.739   7.790  67.980  1.00  0.00    -0.063 C  
HETATM    7  N   UNL     1      -6.817   9.399  70.726  1.00  0.00    -0.102 N  
HETATM    8  C   UNL     1      -6.179   7.335  71.838  1.00  0.00    -0.040 C  
HETATM    9  OXT UNL     1      -5.882   6.160  71.992  1.00  0.00    -0.034 OA 
HETATM   10  O   UNL     1      -6.386   8.158  72.898  1.00  0.00    -0.070 OA 
HETATM   11  C   UNL     1      -6.479  10.414  69.864  1.00  0.00    -0.109 C  
HETATM   12  CA  UNL     1      -7.976  10.825  69.664  1.00  0.00     0.080 C  
HETATM   13  O   UNL     1      -5.374  10.686  69.461  1.00  0.00    -0.038 OA 
ENDROOT
BRANCH  12  14
HETATM   14  N   UNL     1      -8.596  10.800  68.311  1.00  0.00    -0.129 N  
HETATM   15  C   UNL     1      -8.118  11.504  67.225  1.00  0.00    -0.153 C  
HETATM   16  H   UNL     1      -9.428  10.226  68.178  1.00  0.00     0.000 HD 
HETATM   17  O   UNL     1      -7.116  12.205  67.284  1.00  0.00    -0.134 OA 
BRANCH  15  18
HETATM   18  C   UNL     1      -8.891  11.370  65.945  1.00  0.00    -0.149 A  
HETATM   19  C   UNL     1      -8.411  10.504  64.933  1.00  0.00    -0.135 A  
HETATM   20  C   UNL     1      -9.162  10.330  63.771  1.00  0.00    -0.312 A  
HETATM   21  C   UNL     1     -11.963  13.549  66.528  1.00  0.00    -0.460 A  
HETATM   22  C   UNL     1     -10.389  10.970  63.619  1.00  0.00    -0.415 A  
HETATM   23  C   UNL     1     -10.142  12.057  65.790  1.00  0.00    -0.267 A  
HETATM   24  C   UNL     1     -10.704  12.970  66.720  1.00  0.00    -0.273 A  
HETATM   25  C   UNL     1     -10.894  11.814  64.612  1.00  0.00    -0.363 A  
HETATM   26  C   UNL     1     -12.156  12.403  64.431  1.00  0.00    -0.505 A  
HETATM   27  C   UNL     1     -12.697  13.253  65.390  1.00  0.00    -0.460 A  
BRANCH  19  28
HETATM   28  O   UNL     1      -7.217   9.861  65.158  1.00  0.00    -0.119 OA 
BRANCH  28  29
HETATM   29  C   UNL     1      -6.916   8.717  64.358  1.00  0.00    -0.085 C  
HETATM   30  C   UNL     1      -5.619   8.989  63.615  1.00  0.00    -0.070 C  
ENDBRANCH  28  29
ENDBRANCH  19  28
ENDBRANCH  15  18
ENDBRANCH  12  14
TORSDOF 4
ENDMDL
MODEL      151
REMARK 921   NORMALIZED FREE ENERGY PREDICTED BY IDOCK:   -3.74 KCAL/MOL
REMARK 922        TOTAL FREE ENERGY PREDICTED BY IDOCK:   -5.75 KCAL/MOL
REMARK 923 INTER-LIGAND FREE ENERGY PREDICTED BY IDOCK:   -4.53 KCAL/MOL
REMARK 924 INTRA-LIGAND FREE ENERGY PREDICTED BY IDOCK:   -1.22 KCAL/MOL
REMARK 927      BINDING AFFINITY PREDICTED BY RF-SCORE:    0.00 PKD
ROOT
HETATM    1  C   UNL     1      -9.644   4.905  70.533  1.00  0.00    -0.184 C  
HETATM    2  S   UNL     1      -8.056   5.796  70.782  1.00  0.00    -0.120 SA 
HETATM    3  C   UNL     1      -8.860   7.356  71.376  1.00  0.00    -0.126 C  
HETATM    4  C   UNL     1      -7.954   8.059  72.390  1.00  0.00    -0.168 C  
HETATM    5  CA  UNL     1     -10.246   6.920  71.910  1.00  0.00    -0.188 C  
HETATM    6  C   UNL     1      -8.985   8.300  70.164  1.00  0.00    -0.142 C  
HETATM    7  N   UNL     1     -10.690   5.777  71.093  1.00  0.00    -0.260 N  
HETATM    8  C   UNL     1     -10.301   6.484  73.385  1.00  0.00    -0.260 C  
HETATM    9  OXT UNL     1      -9.886   7.140  74.327  1.00  0.00    -0.267 OA 
HETATM   10  O   UNL     1     -10.944   5.302  73.573  1.00  0.00    -0.287 OA 
HETATM   11  C   UNL     1     -11.278   6.029  69.877  1.00  0.00    -0.368 C  
HETATM   12  CA  UNL     1     -10.327   5.026  69.141  1.00  0.00    -0.104 C  
HETATM   13  O   UNL     1     -12.149   6.831  69.644  1.00  0.00    -0.048 OA 
ENDROOT
BRANCH  12  14
HETATM   14  N   UNL     1      -9.439   5.490  68.041  1.00  0.00    -0.111 N  
HETATM   15  C   UNL     1      -9.841   5.642  66.729  1.00  0.00    -0.164 C  
HETATM   16  H   UNL     1      -8.470   5.710  68.271  1.00  0.00     0.000 HD 
HETATM   17  O   UNL     1     -10.987   5.419  66.363  1.00  0.00    -0.243 OA 
BRANCH  15  18
HETATM   18  C   UNL     1      -8.794   6.101  65.756  1.00  0.00    -0.133 A  
HETATM   19  C   UNL     1      -8.425   7.468  65.729  1.00  0.00    -0.144 A  
HETATM   20  C   UNL     1      -7.408   7.883  64.870  1.00  0.00    -0.073 A  
HETATM   21  C   UNL     1      -7.690   2.877  64.049  1.00  0.00    -0.076 A  
HETATM   22  C   UNL     1      -6.735   6.961  64.073  1.00  0.00    -0.049 A  
HETATM   23  C   UNL     1      -8.126   5.144  64.920  1.00  0.00    -0.119 A  
HETATM   24  C   UNL     1      -8.433   3.760  64.840  1.00  0.00    -0.104 A  
HETATM   25  C   UNL     1      -7.067   5.603  64.096  1.00  0.00    -0.052 A  
HETATM   26  C   UNL     1      -6.330   4.706  63.306  1.00  0.00    -0.026 A  
HETATM   27  C   UNL     1      -6.627   3.348  63.294  1.00  0.00    -0.030 A  
BRANCH  19  28
HETATM   28  O   UNL     1      -9.091   8.324  66.573  1.00  0.00    -0.156 OA 
BRANCH  28  29
HETATM   29  C   UNL     1      -9.449   9.611  66.067  1.00  0.00    -0.225 C  
HETATM   30  C   UNL     1     -10.469  10.222  67.013  1.00  0.00    -0.304 C  
ENDBRANCH  28  29
ENDBRANCH  19  28
ENDBRANCH  15  18
ENDBRANCH  12  14
TORSDOF 4
ENDMDL
MODEL      152
REMARK 921   NORMALIZED FREE ENERGY PREDICTED BY IDOCK:   -3.73 KCAL/MOL
REMARK 922        TOTAL FREE ENERGY PREDICTED BY IDOCK:   -5.74 KCAL/MOL
REMARK 923 INTER-LIGAND FREE ENERGY PREDICTED BY IDOCK:   -4.69 KCAL/MOL
REMARK 924 INTRA-LIGAND FREE ENERGY PREDICTED BY IDOCK:   -1.05 KCAL/MOL
REMARK 927      BINDING AFFINITY PREDICTED BY RF-SCORE:    0.00 PKD
ROOT
HETATM    1  C   UNL     1      -7.482   3.964  66.732  1.00  0.00    -0.076 C  
HETATM    2  S   UNL     1      -9.137   3.176  66.625  1.00  0.00    -0.150 SA 
HETATM    3  C   UNL     1      -9.775   4.354  65.345  1.00  0.00    -0.197 C  
HETATM    4  C   UNL     1     -10.778   3.644  64.432  1.00  0.00    -0.127 C  
HETATM    5  CA  UNL     1      -8.513   4.913  64.644  1.00  0.00    -0.143 C  
HETATM    6  C   UNL     1     -10.556   5.459  66.084  1.00  0.00    -0.197 C  
HETATM    7  N   UNL     1      -7.440   4.966  65.652  1.00  0.00    -0.077 N  
HETATM    8  C   UNL     1      -7.984   4.102  63.447  1.00  0.00    -0.084 C  
HETATM    9  OXT UNL     1      -8.651   3.757  62.484  1.00  0.00    -0.080 OA 
HETATM   10  O   UNL     1      -6.650   3.860  63.508  1.00  0.00    -0.036 OA 
HETATM   11  C   UNL     1      -7.396   6.039  66.507  1.00  0.00    -0.081 C  
HETATM   12  CA  UNL     1      -7.295   5.112  67.765  1.00  0.00    -0.075 C  
HETATM   13  O   UNL     1      -7.494   7.206  66.214  1.00  0.00    -0.083 OA 
ENDROOT
BRANCH  12  14
HETATM   14  N   UNL     1      -8.328   5.170  68.835  1.00  0.00    -0.088 N  
HETATM   15  C   UNL     1      -8.344   6.106  69.849  1.00  0.00    -0.128 C  
HETATM   16  H   UNL     1      -9.072   4.473  68.819  1.00  0.00     0.000 HD 
HETATM   17  O   UNL     1      -7.503   6.990  69.941  1.00  0.00    -0.086 OA 
BRANCH  15  18
HETATM   18  C   UNL     1      -9.456   5.990  70.852  1.00  0.00    -0.188 A  
HETATM   19  C   UNL     1      -9.531   4.840  71.673  1.00  0.00    -0.151 A  
HETATM   20  C   UNL     1     -10.525   4.762  72.648  1.00  0.00    -0.260 A  
HETATM   21  C   UNL     1     -11.313   9.301  70.506  1.00  0.00    -0.306 A  
HETATM   22  C   UNL     1     -11.413   5.816  72.839  1.00  0.00    -0.261 A  
HETATM   23  C   UNL     1     -10.381   7.074  71.020  1.00  0.00    -0.216 A  
HETATM   24  C   UNL     1     -10.422   8.257  70.236  1.00  0.00    -0.221 A  
HETATM   25  C   UNL     1     -11.346   6.971  72.054  1.00  0.00    -0.300 A  
HETATM   26  C   UNL     1     -12.237   8.026  72.315  1.00  0.00    -0.366 A  
HETATM   27  C   UNL     1     -12.211   9.192  71.557  1.00  0.00    -0.422 A  
BRANCH  19  28
HETATM   28  O   UNL     1      -8.597   3.851  71.471  1.00  0.00    -0.092 OA 
BRANCH  28  29
HETATM   29  C   UNL     1      -9.070   2.560  71.086  1.00  0.00    -0.110 C  
HETATM   30  C   UNL     1      -8.885   1.619  72.264  1.00  0.00    -0.089 C  
ENDBRANCH  28  29
ENDBRANCH  19  28
ENDBRANCH  15  18
ENDBRANCH  12  14
TORSDOF 4
ENDMDL
MODEL      153
REMARK 921   NORMALIZED FREE ENERGY PREDICTED BY IDOCK:   -3.72 KCAL/MOL
REMARK 922        TOTAL FREE ENERGY PREDICTED BY IDOCK:   -5.73 KCAL/MOL
REMARK 923 INTER-LIGAND FREE ENERGY PREDICTED BY IDOCK:   -4.32 KCAL/MOL
REMARK 924 INTRA-LIGAND FREE ENERGY PREDICTED BY IDOCK:   -1.41 KCAL/MOL
REMARK 927      BINDING AFFINITY PREDICTED BY RF-SCORE:    0.00 PKD
ROOT
HETATM    1  C   UNL     1      -9.807   9.218  68.092  1.00  0.00    -0.162 C  
HETATM    2  S   UNL     1      -7.974   9.327  68.039  1.00  0.00    -0.099 SA 
HETATM    3  C   UNL     1      -7.832   8.538  66.368  1.00  0.00    -0.099 C  
HETATM    4  C   UNL     1      -6.624   9.108  65.620  1.00  0.00    -0.068 C  
HETATM    5  CA  UNL     1      -9.205   8.772  65.692  1.00  0.00    -0.180 C  
HETATM    6  C   UNL     1      -7.550   7.040  66.588  1.00  0.00    -0.089 C  
HETATM    7  N   UNL     1     -10.224   8.759  66.756  1.00  0.00    -0.285 N  
HETATM    8  C   UNL     1      -9.366  10.090  64.913  1.00  0.00    -0.266 C  
HETATM    9  OXT UNL     1      -8.608  10.487  64.042  1.00  0.00    -0.174 OA 
HETATM   10  O   UNL     1     -10.502  10.765  65.225  1.00  0.00    -0.270 OA 
HETATM   11  C   UNL     1     -10.691   7.547  67.203  1.00  0.00    -0.309 C  
HETATM   12  CA  UNL     1     -10.435   7.931  68.699  1.00  0.00    -0.167 C  
HETATM   13  O   UNL     1     -11.052   6.614  66.527  1.00  0.00    -0.135 OA 
ENDROOT
BRANCH  12  14
HETATM   14  N   UNL     1      -9.517   7.120  69.544  1.00  0.00    -0.151 N  
HETATM   15  C   UNL     1      -9.770   5.824  69.943  1.00  0.00    -0.164 C  
HETATM   16  H   UNL     1      -8.644   7.551  69.849  1.00  0.00     0.000 HD 
HETATM   17  O   UNL     1     -10.781   5.220  69.612  1.00  0.00    -0.273 OA 
BRANCH  15  18
HETATM   18  C   UNL     1      -8.733   5.175  70.814  1.00  0.00    -0.142 A  
HETATM   19  C   UNL     1      -8.698   5.483  72.195  1.00  0.00    -0.130 A  
HETATM   20  C   UNL     1      -7.777   4.832  73.016  1.00  0.00    -0.092 A  
HETATM   21  C   UNL     1      -6.915   2.820  68.431  1.00  0.00    -0.048 A  
HETATM   22  C   UNL     1      -6.925   3.863  72.493  1.00  0.00    -0.047 A  
HETATM   23  C   UNL     1      -7.842   4.197  70.257  1.00  0.00    -0.051 A  
HETATM   24  C   UNL     1      -7.765   3.833  68.887  1.00  0.00    -0.053 A  
HETATM   25  C   UNL     1      -6.954   3.527  71.137  1.00  0.00    -0.032 A  
HETATM   26  C   UNL     1      -6.104   2.513  70.666  1.00  0.00    -0.019 A  
HETATM   27  C   UNL     1      -6.095   2.148  69.324  1.00  0.00    -0.024 A  
BRANCH  19  28
HETATM   28  O   UNL     1      -9.596   6.412  72.664  1.00  0.00    -0.149 OA 
BRANCH  28  29
HETATM   29  C   UNL     1     -10.461   6.022  73.731  1.00  0.00    -0.275 C  
HETATM   30  C   UNL     1     -11.517   5.088  73.164  1.00  0.00    -0.362 C  
ENDBRANCH  28  29
ENDBRANCH  19  28
ENDBRANCH  15  18
ENDBRANCH  12  14
TORSDOF 4
ENDMDL
MODEL      154
REMARK 921   NORMALIZED FREE ENERGY PREDICTED BY IDOCK:   -3.70 KCAL/MOL
REMARK 922        TOTAL FREE ENERGY PREDICTED BY IDOCK:   -5.70 KCAL/MOL
REMARK 923 INTER-LIGAND FREE ENERGY PREDICTED BY IDOCK:   -4.65 KCAL/MOL
REMARK 924 INTRA-LIGAND FREE ENERGY PREDICTED BY IDOCK:   -1.06 KCAL/MOL
REMARK 927      BINDING AFFINITY PREDICTED BY RF-SCORE:    0.00 PKD
ROOT
HETATM    1  C   UNL     1     -10.009   4.749  66.562  1.00  0.00    -0.239 C  
HETATM    2  S   UNL     1      -9.964   6.580  66.424  1.00  0.00     0.053 SA 
HETATM    3  C   UNL     1      -8.218   6.634  65.805  1.00  0.00    -0.135 C  
HETATM    4  C   UNL     1      -8.034   7.823  64.859  1.00  0.00    -0.139 C  
HETATM    5  CA  UNL     1      -7.966   5.240  65.181  1.00  0.00    -0.108 C  
HETATM    6  C   UNL     1      -7.306   6.890  67.020  1.00  0.00    -0.086 C  
HETATM    7  N   UNL     1      -8.758   4.266  65.952  1.00  0.00    -0.113 N  
HETATM    8  C   UNL     1      -8.349   5.078  63.699  1.00  0.00    -0.127 C  
HETATM    9  OXT UNL     1      -7.976   5.808  62.794  1.00  0.00    -0.091 OA 
HETATM   10  O   UNL     1      -9.098   3.972  63.454  1.00  0.00    -0.114 OA 
HETATM   11  C   UNL     1      -8.244   3.790  67.133  1.00  0.00    -0.095 C  
HETATM   12  CA  UNL     1      -9.563   4.117  67.911  1.00  0.00    -0.148 C  
HETATM   13  O   UNL     1      -7.124   3.381  67.325  1.00  0.00    -0.056 OA 
ENDROOT
BRANCH  12  14
HETATM   14  N   UNL     1      -9.549   5.051  69.071  1.00  0.00    -0.137 N  
HETATM   15  C   UNL     1      -9.724   4.662  70.383  1.00  0.00    -0.222 C  
HETATM   16  H   UNL     1      -9.400   6.042  68.882  1.00  0.00     0.000 HD 
HETATM   17  O   UNL     1      -9.891   3.494  70.706  1.00  0.00    -0.169 OA 
BRANCH  15  18
HETATM   18  C   UNL     1      -9.700   5.753  71.414  1.00  0.00    -0.203 A  
HETATM   19  C   UNL     1      -8.547   5.920  72.219  1.00  0.00    -0.124 A  
HETATM   20  C   UNL     1      -8.500   6.973  73.132  1.00  0.00    -0.136 A  
HETATM   21  C   UNL     1     -13.032   7.534  70.906  1.00  0.00    -0.061 A  
HETATM   22  C   UNL     1      -9.556   7.873  73.229  1.00  0.00    -0.351 A  
HETATM   23  C   UNL     1     -10.808   6.659  71.522  1.00  0.00    -0.277 A  
HETATM   24  C   UNL     1     -12.023   6.571  70.794  1.00  0.00    -0.351 A  
HETATM   25  C   UNL     1     -10.696   7.742  72.432  1.00  0.00    -0.347 A  
HETATM   26  C   UNL     1     -11.717   8.702  72.536  1.00  0.00    -0.330 A  
HETATM   27  C   UNL     1     -12.872   8.609  71.766  1.00  0.00    -0.397 A  
BRANCH  19  28
HETATM   28  O   UNL     1      -7.515   5.029  72.046  1.00  0.00    -0.085 OA 
BRANCH  28  29
HETATM   29  C   UNL     1      -6.235   5.554  71.692  1.00  0.00    -0.038 C  
HETATM   30  C   UNL     1      -5.915   5.105  70.277  1.00  0.00    -0.018 C  
ENDBRANCH  28  29
ENDBRANCH  19  28
ENDBRANCH  15  18
ENDBRANCH  12  14
TORSDOF 4
ENDMDL
MODEL      155
REMARK 921   NORMALIZED FREE ENERGY PREDICTED BY IDOCK:   -3.68 KCAL/MOL
REMARK 922        TOTAL FREE ENERGY PREDICTED BY IDOCK:   -5.68 KCAL/MOL
REMARK 923 INTER-LIGAND FREE ENERGY PREDICTED BY IDOCK:   -4.50 KCAL/MOL
REMARK 924 INTRA-LIGAND FREE ENERGY PREDICTED BY IDOCK:   -1.19 KCAL/MOL
REMARK 927      BINDING AFFINITY PREDICTED BY RF-SCORE:    0.00 PKD
ROOT
HETATM    1  C   UNL     1     -11.358  10.214  67.402  1.00  0.00     0.214 C  
HETATM    2  S   UNL     1     -11.482  11.270  68.900  1.00  0.00    -0.328 SA 
HETATM    3  C   UNL     1     -10.523  12.675  68.165  1.00  0.00    -0.231 C  
HETATM    4  C   UNL     1     -11.025  14.006  68.731  1.00  0.00    -0.282 C  
HETATM    5  CA  UNL     1     -10.668  12.506  66.632  1.00  0.00    -0.236 C  
HETATM    6  C   UNL     1      -9.060  12.523  68.621  1.00  0.00     0.038 C  
HETATM    7  N   UNL     1     -10.756  11.061  66.359  1.00  0.00    -0.252 N  
HETATM    8  C   UNL     1     -11.895  13.175  65.986  1.00  0.00    -0.407 C  
HETATM    9  OXT UNL     1     -12.206  14.348  66.120  1.00  0.00    -0.403 OA 
HETATM   10  O   UNL     1     -12.586  12.349  65.160  1.00  0.00    -0.622 OA 
HETATM   11  C   UNL     1      -9.593  10.334  66.292  1.00  0.00    -0.189 C  
HETATM   12  CA  UNL     1     -10.135   9.259  67.293  1.00  0.00    -0.231 C  
HETATM   13  O   UNL     1      -8.589  10.623  65.687  1.00  0.00    -0.173 OA 
ENDROOT
BRANCH  12  14
HETATM   14  N   UNL     1      -9.428   8.991  68.576  1.00  0.00    -0.143 N  
HETATM   15  C   UNL     1      -8.174   8.425  68.668  1.00  0.00    -0.123 C  
HETATM   16  H   UNL     1      -9.903   9.242  69.443  1.00  0.00     0.000 HD 
HETATM   17  O   UNL     1      -7.522   8.108  67.682  1.00  0.00    -0.091 OA 
BRANCH  15  18
HETATM   18  C   UNL     1      -7.633   8.212  70.052  1.00  0.00    -0.077 A  
HETATM   19  C   UNL     1      -7.857   6.972  70.700  1.00  0.00    -0.097 A  
HETATM   20  C   UNL     1      -7.300   6.751  71.959  1.00  0.00    -0.088 A  
HETATM   21  C   UNL     1      -5.725  11.433  70.769  1.00  0.00    -0.079 A  
HETATM   22  C   UNL     1      -6.503   7.720  72.560  1.00  0.00    -0.063 A  
HETATM   23  C   UNL     1      -6.835   9.230  70.672  1.00  0.00    -0.094 A  
HETATM   24  C   UNL     1      -6.571  10.517  70.134  1.00  0.00    -0.149 A  
HETATM   25  C   UNL     1      -6.251   8.943  71.933  1.00  0.00    -0.069 A  
HETATM   26  C   UNL     1      -5.404   9.872  72.561  1.00  0.00     0.090 A  
HETATM   27  C   UNL     1      -5.128  11.104  71.976  1.00  0.00     0.131 A  
BRANCH  19  28
HETATM   28  O   UNL     1      -8.612   6.035  70.037  1.00  0.00    -0.128 OA 
BRANCH  28  29
HETATM   29  C   UNL     1      -9.565   5.290  70.797  1.00  0.00    -0.176 C  
HETATM   30  C   UNL     1      -9.686   3.908  70.179  1.00  0.00    -0.242 C  
ENDBRANCH  28  29
ENDBRANCH  19  28
ENDBRANCH  15  18
ENDBRANCH  12  14
TORSDOF 4
ENDMDL
MODEL      156
REMARK 921   NORMALIZED FREE ENERGY PREDICTED BY IDOCK:   -3.68 KCAL/MOL
REMARK 922        TOTAL FREE ENERGY PREDICTED BY IDOCK:   -5.68 KCAL/MOL
REMARK 923 INTER-LIGAND FREE ENERGY PREDICTED BY IDOCK:   -4.55 KCAL/MOL
REMARK 924 INTRA-LIGAND FREE ENERGY PREDICTED BY IDOCK:   -1.12 KCAL/MOL
REMARK 927      BINDING AFFINITY PREDICTED BY RF-SCORE:    0.00 PKD
ROOT
HETATM    1  C   UNL     1      -9.112  16.280  65.558  1.00  0.00     0.372 C  
HETATM    2  S   UNL     1      -9.240  14.545  66.148  1.00  0.00    -0.045 SA 
HETATM    3  C   UNL     1     -10.990  14.721  66.733  1.00  0.00    -0.327 C  
HETATM    4  C   UNL     1     -11.729  13.389  66.583  1.00  0.00    -0.428 C  
HETATM    5  CA  UNL     1     -11.572  15.902  65.918  1.00  0.00     0.495 C  
HETATM    6  C   UNL     1     -10.942  15.034  68.241  1.00  0.00    -0.274 C  
HETATM    7  N   UNL     1     -10.468  16.845  65.666  1.00  0.00    -0.305 N  
HETATM    8  C   UNL     1     -12.199  15.548  64.558  1.00  0.00    -0.055 C  
HETATM    9  OXT UNL     1     -13.058  14.699  64.381  1.00  0.00    -0.281 OA 
HETATM   10  O   UNL     1     -11.764  16.338  63.543  1.00  0.00    -0.659 OA 
HETATM   11  C   UNL     1     -10.130  17.739  66.652  1.00  0.00    -0.350 C  
HETATM   12  CA  UNL     1      -8.616  17.351  66.570  1.00  0.00    -0.261 C  
HETATM   13  O   UNL     1     -10.883  18.431  67.294  1.00  0.00    -0.389 OA 
ENDROOT
BRANCH  12  14
HETATM   14  N   UNL     1      -7.905  16.811  67.761  1.00  0.00    -0.173 N  
HETATM   15  C   UNL     1      -6.532  16.738  67.880  1.00  0.00    -0.138 C  
HETATM   16  H   UNL     1      -8.469  16.472  68.540  1.00  0.00     0.000 HD 
HETATM   17  O   UNL     1      -5.775  17.136  67.005  1.00  0.00    -0.138 OA 
BRANCH  15  18
HETATM   18  C   UNL     1      -5.999  16.141  69.150  1.00  0.00    -0.134 A  
HETATM   19  C   UNL     1      -5.729  16.987  70.253  1.00  0.00    -0.173 A  
HETATM   20  C   UNL     1      -5.295  16.425  71.453  1.00  0.00     0.135 A  
HETATM   21  C   UNL     1      -5.941  12.400  68.420  1.00  0.00    -0.056 A  
HETATM   22  C   UNL     1      -5.163  15.045  71.581  1.00  0.00    -0.088 A  
HETATM   23  C   UNL     1      -5.841  14.719  69.260  1.00  0.00    -0.101 A  
HETATM   24  C   UNL     1      -6.050  13.780  68.215  1.00  0.00    -0.111 A  
HETATM   25  C   UNL     1      -5.442  14.188  70.513  1.00  0.00    -0.127 A  
HETATM   26  C   UNL     1      -5.335  12.800  70.705  1.00  0.00    -0.157 A  
HETATM   27  C   UNL     1      -5.599  11.909  69.670  1.00  0.00    -0.084 A  
BRANCH  19  28
HETATM   28  O   UNL     1      -5.924  18.337  70.083  1.00  0.00    -0.221 OA 
BRANCH  28  29
HETATM   29  C   UNL     1      -5.133  19.227  70.871  1.00  0.00    -0.233 C  
HETATM   30  C   UNL     1      -6.070  20.197  71.570  1.00  0.00    -0.249 C  
ENDBRANCH  28  29
ENDBRANCH  19  28
ENDBRANCH  15  18
ENDBRANCH  12  14
TORSDOF 4
ENDMDL
MODEL      157
REMARK 921   NORMALIZED FREE ENERGY PREDICTED BY IDOCK:   -3.62 KCAL/MOL
REMARK 922        TOTAL FREE ENERGY PREDICTED BY IDOCK:   -5.60 KCAL/MOL
REMARK 923 INTER-LIGAND FREE ENERGY PREDICTED BY IDOCK:   -4.41 KCAL/MOL
REMARK 924 INTRA-LIGAND FREE ENERGY PREDICTED BY IDOCK:   -1.20 KCAL/MOL
REMARK 927      BINDING AFFINITY PREDICTED BY RF-SCORE:    0.00 PKD
ROOT
HETATM    1  C   UNL     1      -9.884   9.547  66.879  1.00  0.00    -0.204 C  
HETATM    2  S   UNL     1      -8.166   9.603  66.230  1.00  0.00    -0.116 SA 
HETATM    3  C   UNL     1      -7.400   8.980  67.798  1.00  0.00    -0.084 C  
HETATM    4  C   UNL     1      -6.145   8.164  67.480  1.00  0.00    -0.051 C  
HETATM    5  CA  UNL     1      -8.530   8.210  68.523  1.00  0.00    -0.127 C  
HETATM    6  C   UNL     1      -6.936  10.209  68.604  1.00  0.00    -0.062 C  
HETATM    7  N   UNL     1      -9.799   8.880  68.190  1.00  0.00    -0.162 N  
HETATM    8  C   UNL     1      -8.683   6.722  68.159  1.00  0.00    -0.122 C  
HETATM    9  OXT UNL     1      -7.784   5.897  68.190  1.00  0.00    -0.097 OA 
HETATM   10  O   UNL     1      -9.961   6.367  67.868  1.00  0.00    -0.123 OA 
HETATM   11  C   UNL     1     -10.156  10.000  68.900  1.00  0.00    -0.190 C  
HETATM   12  CA  UNL     1     -10.426  10.818  67.592  1.00  0.00    -0.214 C  
HETATM   13  O   UNL     1     -10.130  10.139  70.099  1.00  0.00    -0.246 OA 
ENDROOT
BRANCH  12  14
HETATM   14  N   UNL     1      -9.671  12.070  67.311  1.00  0.00    -0.184 N  
HETATM   15  C   UNL     1     -10.006  13.309  67.815  1.00  0.00    -0.223 C  
HETATM   16  H   UNL     1      -8.853  12.007  66.705  1.00  0.00     0.000 HD 
HETATM   17  O   UNL     1     -10.960  13.479  68.562  1.00  0.00    -0.248 OA 
BRANCH  15  18
HETATM   18  C   UNL     1      -9.136  14.460  67.400  1.00  0.00    -0.202 A  
HETATM   19  C   UNL     1      -9.507  15.240  66.278  1.00  0.00    -0.309 A  
HETATM   20  C   UNL     1      -8.733  16.348  65.931  1.00  0.00    -0.134 A  
HETATM   21  C   UNL     1      -6.409  14.520  70.063  1.00  0.00    -0.165 A  
HETATM   22  C   UNL     1      -7.630  16.708  66.699  1.00  0.00    -0.314 A  
HETATM   23  C   UNL     1      -7.985  14.805  68.185  1.00  0.00    -0.129 A  
HETATM   24  C   UNL     1      -7.501  14.081  69.307  1.00  0.00     0.059 A  
HETATM   25  C   UNL     1      -7.255  15.966  67.823  1.00  0.00    -0.167 A  
HETATM   26  C   UNL     1      -6.159  16.395  68.590  1.00  0.00    -0.126 A  
HETATM   27  C   UNL     1      -5.747  15.686  69.714  1.00  0.00    -0.132 A  
BRANCH  19  28
HETATM   28  O   UNL     1     -10.634  14.865  65.586  1.00  0.00    -0.303 OA 
BRANCH  28  29
HETATM   29  C   UNL     1     -10.455  14.231  64.319  1.00  0.00     0.362 C  
HETATM   30  C   UNL     1     -11.068  12.843  64.395  1.00  0.00    -0.395 C  
ENDBRANCH  28  29
ENDBRANCH  19  28
ENDBRANCH  15  18
ENDBRANCH  12  14
TORSDOF 4
ENDMDL
MODEL      158
REMARK 921   NORMALIZED FREE ENERGY PREDICTED BY IDOCK:   -3.61 KCAL/MOL
REMARK 922        TOTAL FREE ENERGY PREDICTED BY IDOCK:   -5.60 KCAL/MOL
REMARK 923 INTER-LIGAND FREE ENERGY PREDICTED BY IDOCK:   -6.13 KCAL/MOL
REMARK 924 INTRA-LIGAND FREE ENERGY PREDICTED BY IDOCK:    0.53 KCAL/MOL
REMARK 927      BINDING AFFINITY PREDICTED BY RF-SCORE:    0.00 PKD
ROOT
HETATM    1  C   UNL     1      -8.468   7.703  69.056  1.00  0.00    -0.132 C  
HETATM    2  S   UNL     1      -8.601   8.763  70.550  1.00  0.00    -0.188 SA 
HETATM    3  C   UNL     1     -10.222   8.046  71.091  1.00  0.00    -0.193 C  
HETATM    4  C   UNL     1     -10.320   8.066  72.618  1.00  0.00    -0.398 C  
HETATM    5  CA  UNL     1     -10.283   6.644  70.437  1.00  0.00    -0.188 C  
HETATM    6  C   UNL     1     -11.334   8.973  70.564  1.00  0.00    -0.282 C  
HETATM    7  N   UNL     1      -9.571   6.731  69.151  1.00  0.00    -0.140 N  
HETATM    8  C   UNL     1      -9.653   5.491  71.239  1.00  0.00    -0.155 C  
HETATM    9  OXT UNL     1      -9.916   5.217  72.399  1.00  0.00    -0.169 OA 
HETATM   10  O   UNL     1      -8.809   4.723  70.503  1.00  0.00    -0.103 OA 
HETATM   11  C   UNL     1     -10.242   7.228  68.061  1.00  0.00    -0.185 C  
HETATM   12  CA  UNL     1      -9.091   8.238  67.735  1.00  0.00    -0.132 C  
HETATM   13  O   UNL     1     -11.351   6.926  67.691  1.00  0.00    -0.149 OA 
ENDROOT
BRANCH  12  14
HETATM   14  N   UNL     1      -9.351   9.703  67.709  1.00  0.00    -0.128 N  
HETATM   15  C   UNL     1     -10.608  10.268  67.649  1.00  0.00    -0.263 C  
HETATM   16  H   UNL     1      -8.547  10.331  67.737  1.00  0.00     0.000 HD 
HETATM   17  O   UNL     1     -11.631   9.596  67.629  1.00  0.00     0.285 OA 
BRANCH  15  18
HETATM   18  C   UNL     1     -10.669  11.768  67.609  1.00  0.00    -0.254 A  
HETATM   19  C   UNL     1     -10.209  12.449  66.457  1.00  0.00    -0.227 A  
HETATM   20  C   UNL     1     -10.325  13.838  66.394  1.00  0.00    -0.290 A  
HETATM   21  C   UNL     1     -12.353  12.679  70.905  1.00  0.00    -0.352 A  
HETATM   22  C   UNL     1     -10.919  14.546  67.434  1.00  0.00    -0.306 A  
HETATM   23  C   UNL     1     -11.260  12.489  68.701  1.00  0.00    -0.319 A  
HETATM   24  C   UNL     1     -11.725  11.917  69.914  1.00  0.00    -0.383 A  
HETATM   25  C   UNL     1     -11.400  13.894  68.573  1.00  0.00    -0.311 A  
HETATM   26  C   UNL     1     -12.031  14.649  69.576  1.00  0.00    -0.361 A  
HETATM   27  C   UNL     1     -12.520  14.044  70.729  1.00  0.00    -0.442 A  
BRANCH  19  28
HETATM   28  O   UNL     1      -9.675  11.693  65.441  1.00  0.00    -0.228 OA 
BRANCH  28  29
HETATM   29  C   UNL     1      -9.468  12.327  64.178  1.00  0.00     0.248 C  
HETATM   30  C   UNL     1     -10.398  11.680  63.167  1.00  0.00    -0.383 C  
ENDBRANCH  28  29
ENDBRANCH  19  28
ENDBRANCH  15  18
ENDBRANCH  12  14
TORSDOF 4
ENDMDL
MODEL      159
REMARK 921   NORMALIZED FREE ENERGY PREDICTED BY IDOCK:   -3.61 KCAL/MOL
REMARK 922        TOTAL FREE ENERGY PREDICTED BY IDOCK:   -5.60 KCAL/MOL
REMARK 923 INTER-LIGAND FREE ENERGY PREDICTED BY IDOCK:   -4.61 KCAL/MOL
REMARK 924 INTRA-LIGAND FREE ENERGY PREDICTED BY IDOCK:   -0.98 KCAL/MOL
REMARK 927      BINDING AFFINITY PREDICTED BY RF-SCORE:    0.00 PKD
ROOT
HETATM    1  C   UNL     1      -9.553   4.917  70.637  1.00  0.00    -0.186 C  
HETATM    2  S   UNL     1      -8.040   5.879  71.036  1.00  0.00    -0.122 SA 
HETATM    3  C   UNL     1      -8.968   7.354  71.664  1.00  0.00    -0.123 C  
HETATM    4  C   UNL     1      -8.168   8.045  72.772  1.00  0.00    -0.212 C  
HETATM    5  CA  UNL     1     -10.356   6.811  72.084  1.00  0.00    -0.200 C  
HETATM    6  C   UNL     1      -9.075   8.360  70.502  1.00  0.00    -0.163 C  
HETATM    7  N   UNL     1     -10.681   5.696  71.178  1.00  0.00    -0.254 N  
HETATM    8  C   UNL     1     -10.474   6.285  73.526  1.00  0.00    -0.271 C  
HETATM    9  OXT UNL     1     -10.156   6.906  74.527  1.00  0.00    -0.283 OA 
HETATM   10  O   UNL     1     -11.056   5.061  73.606  1.00  0.00    -0.308 OA 
HETATM   11  C   UNL     1     -11.209   5.986  69.943  1.00  0.00    -0.368 C  
HETATM   12  CA  UNL     1     -10.158   5.083  69.214  1.00  0.00    -0.200 C  
HETATM   13  O   UNL     1     -12.110   6.751  69.700  1.00  0.00    -0.048 OA 
ENDROOT
BRANCH  12  14
HETATM   14  N   UNL     1      -9.234   5.661  68.200  1.00  0.00    -0.110 N  
HETATM   15  C   UNL     1      -9.633   6.469  67.156  1.00  0.00    -0.136 C  
HETATM   16  H   UNL     1      -8.240   5.445  68.282  1.00  0.00     0.000 HD 
HETATM   17  O   UNL     1     -10.801   6.796  66.987  1.00  0.00    -0.340 OA 
BRANCH  15  18
HETATM   18  C   UNL     1      -8.557   6.939  66.220  1.00  0.00    -0.138 A  
HETATM   19  C   UNL     1      -7.937   6.006  65.353  1.00  0.00    -0.118 A  
HETATM   20  C   UNL     1      -6.983   6.454  64.440  1.00  0.00    -0.047 A  
HETATM   21  C   UNL     1      -8.425  10.699  66.831  1.00  0.00    -0.127 A  
HETATM   22  C   UNL     1      -6.668   7.807  64.353  1.00  0.00    -0.056 A  
HETATM   23  C   UNL     1      -8.222   8.333  66.159  1.00  0.00    -0.119 A  
HETATM   24  C   UNL     1      -8.752   9.349  66.997  1.00  0.00    -0.135 A  
HETATM   25  C   UNL     1      -7.280   8.749  65.183  1.00  0.00    -0.087 A  
HETATM   26  C   UNL     1      -6.959  10.108  65.028  1.00  0.00    -0.135 A  
HETATM   27  C   UNL     1      -7.540  11.081  65.835  1.00  0.00     0.007 A  
BRANCH  19  28
HETATM   28  O   UNL     1      -8.324   4.691  65.452  1.00  0.00    -0.113 OA 
BRANCH  28  29
HETATM   29  C   UNL     1      -8.931   4.089  64.308  1.00  0.00    -0.138 C  
HETATM   30  C   UNL     1      -8.056   2.930  63.863  1.00  0.00    -0.082 C  
ENDBRANCH  28  29
ENDBRANCH  19  28
ENDBRANCH  15  18
ENDBRANCH  12  14
TORSDOF 4
ENDMDL
MODEL      160
REMARK 921   NORMALIZED FREE ENERGY PREDICTED BY IDOCK:   -3.55 KCAL/MOL
REMARK 922        TOTAL FREE ENERGY PREDICTED BY IDOCK:   -5.52 KCAL/MOL
REMARK 923 INTER-LIGAND FREE ENERGY PREDICTED BY IDOCK:   -4.92 KCAL/MOL
REMARK 924 INTRA-LIGAND FREE ENERGY PREDICTED BY IDOCK:   -0.60 KCAL/MOL
REMARK 927      BINDING AFFINITY PREDICTED BY RF-SCORE:    0.00 PKD
ROOT
HETATM    1  C   UNL     1      -9.454  12.268  68.082  1.00  0.00    -0.213 C  
HETATM    2  S   UNL     1      -8.481  11.506  66.724  1.00  0.00    -0.167 SA 
HETATM    3  C   UNL     1      -9.960  11.167  65.660  1.00  0.00    -0.249 C  
HETATM    4  C   UNL     1      -9.574  11.256  64.181  1.00  0.00    -0.255 C  
HETATM    5  CA  UNL     1     -11.036  12.176  66.130  1.00  0.00    -0.312 C  
HETATM    6  C   UNL     1     -10.390   9.710  65.918  1.00  0.00    -0.103 C  
HETATM    7  N   UNL     1     -10.831  12.395  67.572  1.00  0.00    -0.230 N  
HETATM    8  C   UNL     1     -11.022  13.555  65.446  1.00  0.00    -0.292 C  
HETATM    9  OXT UNL     1     -11.042  13.740  64.240  1.00  0.00    -0.372 OA 
HETATM   10  O   UNL     1     -11.067  14.591  66.323  1.00  0.00    -0.320 OA 
HETATM   11  C   UNL     1     -11.353  11.482  68.455  1.00  0.00    -0.277 C  
HETATM   12  CA  UNL     1      -9.986  11.330  69.203  1.00  0.00    -0.035 C  
HETATM   13  O   UNL     1     -12.469  11.022  68.448  1.00  0.00    -0.352 OA 
ENDROOT
BRANCH  12  14
HETATM   14  N   UNL     1      -9.311  10.006  69.289  1.00  0.00    -0.201 N  
HETATM   15  C   UNL     1      -9.888   8.873  69.825  1.00  0.00    -0.180 C  
HETATM   16  H   UNL     1      -8.359   9.932  68.930  1.00  0.00     0.000 HD 
HETATM   17  O   UNL     1     -11.030   8.862  70.264  1.00  0.00    -0.238 OA 
BRANCH  15  18
HETATM   18  C   UNL     1      -9.040   7.634  69.844  1.00  0.00    -0.147 A  
HETATM   19  C   UNL     1      -9.269   6.623  68.880  1.00  0.00    -0.130 A  
HETATM   20  C   UNL     1      -8.441   5.501  68.858  1.00  0.00    -0.101 A  
HETATM   21  C   UNL     1      -6.550   8.302  72.651  1.00  0.00    -0.096 A  
HETATM   22  C   UNL     1      -7.378   5.390  69.748  1.00  0.00    -0.065 A  
HETATM   23  C   UNL     1      -7.963   7.519  70.786  1.00  0.00    -0.103 A  
HETATM   24  C   UNL     1      -7.660   8.451  71.814  1.00  0.00    -0.139 A  
HETATM   25  C   UNL     1      -7.118   6.384  70.696  1.00  0.00    -0.069 A  
HETATM   26  C   UNL     1      -6.007   6.245  71.544  1.00  0.00    -0.032 A  
HETATM   27  C   UNL     1      -5.713   7.207  72.506  1.00  0.00    -0.038 A  
BRANCH  19  28
HETATM   28  O   UNL     1     -10.305   6.810  67.995  1.00  0.00    -0.162 OA 
BRANCH  28  29
HETATM   29  C   UNL     1     -10.161   6.271  66.680  1.00  0.00    -0.164 C  
HETATM   30  C   UNL     1     -10.866   4.926  66.643  1.00  0.00     0.124 C  
ENDBRANCH  28  29
ENDBRANCH  19  28
ENDBRANCH  15  18
ENDBRANCH  12  14
TORSDOF 4
ENDMDL
MODEL      161
REMARK 921   NORMALIZED FREE ENERGY PREDICTED BY IDOCK:   -3.55 KCAL/MOL
REMARK 922        TOTAL FREE ENERGY PREDICTED BY IDOCK:   -5.52 KCAL/MOL
REMARK 923 INTER-LIGAND FREE ENERGY PREDICTED BY IDOCK:   -4.53 KCAL/MOL
REMARK 924 INTRA-LIGAND FREE ENERGY PREDICTED BY IDOCK:   -0.98 KCAL/MOL
REMARK 927      BINDING AFFINITY PREDICTED BY RF-SCORE:    0.00 PKD
ROOT
HETATM    1  C   UNL     1      -9.986   5.627  71.065  1.00  0.00    -0.192 C  
HETATM    2  S   UNL     1      -8.191   5.620  70.672  1.00  0.00    -0.119 SA 
HETATM    3  C   UNL     1      -7.656   5.651  72.446  1.00  0.00    -0.101 C  
HETATM    4  C   UNL     1      -6.332   4.899  72.607  1.00  0.00    -0.038 C  
HETATM    5  CA  UNL     1      -8.852   5.073  73.240  1.00  0.00    -0.114 C  
HETATM    6  C   UNL     1      -7.378   7.120  72.818  1.00  0.00    -0.076 C  
HETATM    7  N   UNL     1     -10.080   5.463  72.526  1.00  0.00    -0.171 N  
HETATM    8  C   UNL     1      -8.881   3.543  73.410  1.00  0.00    -0.088 C  
HETATM    9  OXT UNL     1      -7.964   2.868  73.849  1.00  0.00    -0.062 OA 
HETATM   10  O   UNL     1     -10.081   2.989  73.096  1.00  0.00    -0.119 OA 
HETATM   11  C   UNL     1     -10.593   6.719  72.739  1.00  0.00    -0.235 C  
HETATM   12  CA  UNL     1     -10.688   7.008  71.204  1.00  0.00    -0.230 C  
HETATM   13  O   UNL     1     -10.762   7.263  73.804  1.00  0.00    -0.353 OA 
ENDROOT
BRANCH  12  14
HETATM   14  N   UNL     1      -9.952   8.153  70.599  1.00  0.00    -0.188 N  
HETATM   15  C   UNL     1     -10.057   8.533  69.277  1.00  0.00    -0.202 C  
HETATM   16  H   UNL     1      -9.330   8.691  71.202  1.00  0.00     0.000 HD 
HETATM   17  O   UNL     1     -10.790   7.958  68.484  1.00  0.00    -0.076 OA 
BRANCH  15  18
HETATM   18  C   UNL     1      -9.218   9.701  68.846  1.00  0.00    -0.147 A  
HETATM   19  C   UNL     1      -7.889   9.477  68.412  1.00  0.00    -0.086 A  
HETATM   20  C   UNL     1      -7.132  10.554  67.951  1.00  0.00    -0.083 A  
HETATM   21  C   UNL     1     -11.610  12.658  69.107  1.00  0.00    -0.374 A  
HETATM   22  C   UNL     1      -7.685  11.829  67.882  1.00  0.00    -0.125 A  
HETATM   23  C   UNL     1      -9.792  11.016  68.805  1.00  0.00    -0.206 A  
HETATM   24  C   UNL     1     -11.097  11.363  69.243  1.00  0.00    -0.313 A  
HETATM   25  C   UNL     1      -9.001  12.072  68.285  1.00  0.00    -0.186 A  
HETATM   26  C   UNL     1      -9.527  13.368  68.156  1.00  0.00    -0.218 A  
HETATM   27  C   UNL     1     -10.830  13.658  68.549  1.00  0.00    -0.275 A  
BRANCH  19  28
HETATM   28  O   UNL     1      -7.413   8.189  68.458  1.00  0.00    -0.094 OA 
BRANCH  28  29
HETATM   29  C   UNL     1      -6.040   7.975  68.127  1.00  0.00    -0.046 C  
HETATM   30  C   UNL     1      -5.562   6.741  68.871  1.00  0.00    -0.017 C  
ENDBRANCH  28  29
ENDBRANCH  19  28
ENDBRANCH  15  18
ENDBRANCH  12  14
TORSDOF 4
ENDMDL
MODEL      162
REMARK 921   NORMALIZED FREE ENERGY PREDICTED BY IDOCK:   -3.55 KCAL/MOL
REMARK 922        TOTAL FREE ENERGY PREDICTED BY IDOCK:   -5.52 KCAL/MOL
REMARK 923 INTER-LIGAND FREE ENERGY PREDICTED BY IDOCK:   -4.56 KCAL/MOL
REMARK 924 INTRA-LIGAND FREE ENERGY PREDICTED BY IDOCK:   -0.95 KCAL/MOL
REMARK 927      BINDING AFFINITY PREDICTED BY RF-SCORE:    0.00 PKD
ROOT
HETATM    1  C   UNL     1      -9.183  10.789  66.220  1.00  0.00    -0.173 C  
HETATM    2  S   UNL     1     -10.478  10.126  67.342  1.00  0.00    -0.270 SA 
HETATM    3  C   UNL     1     -10.146  11.357  68.687  1.00  0.00    -0.210 C  
HETATM    4  C   UNL     1     -11.440  11.669  69.444  1.00  0.00    -0.372 C  
HETATM    5  CA  UNL     1      -9.481  12.562  67.979  1.00  0.00    -0.209 C  
HETATM    6  C   UNL     1      -9.193  10.690  69.698  1.00  0.00     0.114 C  
HETATM    7  N   UNL     1      -8.696  12.028  66.852  1.00  0.00    -0.190 N  
HETATM    8  C   UNL     1     -10.433  13.631  67.414  1.00  0.00    -0.251 C  
HETATM    9  OXT UNL     1     -11.313  14.192  68.047  1.00  0.00    -0.271 OA 
HETATM   10  O   UNL     1     -10.157  13.973  66.129  1.00  0.00    -0.290 OA 
HETATM   11  C   UNL     1      -7.441  11.530  67.104  1.00  0.00    -0.142 C  
HETATM   12  CA  UNL     1      -7.750  10.197  66.343  1.00  0.00    -0.111 C  
HETATM   13  O   UNL     1      -6.573  12.048  67.765  1.00  0.00    -0.075 OA 
ENDROOT
BRANCH  12  14
HETATM   14  N   UNL     1      -7.668   8.886  67.045  1.00  0.00    -0.098 N  
HETATM   15  C   UNL     1      -8.178   7.705  66.546  1.00  0.00    -0.125 C  
HETATM   16  H   UNL     1      -7.205   8.859  67.953  1.00  0.00     0.000 HD 
HETATM   17  O   UNL     1      -8.734   7.637  65.458  1.00  0.00    -0.135 OA 
BRANCH  15  18
HETATM   18  C   UNL     1      -8.018   6.487  67.410  1.00  0.00    -0.113 A  
HETATM   19  C   UNL     1      -6.838   5.712  67.303  1.00  0.00    -0.064 A  
HETATM   20  C   UNL     1      -6.661   4.619  68.150  1.00  0.00    -0.054 A  
HETATM   21  C   UNL     1     -11.153   6.515  69.578  1.00  0.00    -0.425 A  
HETATM   22  C   UNL     1      -7.615   4.311  69.115  1.00  0.00    -0.055 A  
HETATM   23  C   UNL     1      -9.022   6.165  68.384  1.00  0.00    -0.115 A  
HETATM   24  C   UNL     1     -10.254   6.848  68.559  1.00  0.00    -0.187 A  
HETATM   25  C   UNL     1      -8.778   5.072  69.254  1.00  0.00    -0.107 A  
HETATM   26  C   UNL     1      -9.690   4.747  70.273  1.00  0.00    -0.296 A  
HETATM   27  C   UNL     1     -10.863   5.474  70.445  1.00  0.00    -0.274 A  
BRANCH  19  28
HETATM   28  O   UNL     1      -5.909   6.093  66.363  1.00  0.00    -0.022 OA 
BRANCH  28  29
HETATM   29  C   UNL     1      -5.878   5.373  65.130  1.00  0.00    -0.021 C  
HETATM   30  C   UNL     1      -5.746   6.378  64.000  1.00  0.00    -0.022 C  
ENDBRANCH  28  29
ENDBRANCH  19  28
ENDBRANCH  15  18
ENDBRANCH  12  14
TORSDOF 4
ENDMDL
MODEL      163
REMARK 921   NORMALIZED FREE ENERGY PREDICTED BY IDOCK:   -3.54 KCAL/MOL
REMARK 922        TOTAL FREE ENERGY PREDICTED BY IDOCK:   -5.50 KCAL/MOL
REMARK 923 INTER-LIGAND FREE ENERGY PREDICTED BY IDOCK:   -4.83 KCAL/MOL
REMARK 924 INTRA-LIGAND FREE ENERGY PREDICTED BY IDOCK:   -0.67 KCAL/MOL
REMARK 927      BINDING AFFINITY PREDICTED BY RF-SCORE:    0.00 PKD
ROOT
HETATM    1  C   UNL     1      -9.613   9.250  68.104  1.00  0.00    -0.143 C  
HETATM    2  S   UNL     1      -7.787   9.052  68.072  1.00  0.00    -0.101 SA 
HETATM    3  C   UNL     1      -7.779   8.054  66.510  1.00  0.00    -0.093 C  
HETATM    4  C   UNL     1      -6.495   8.324  65.722  1.00  0.00    -0.052 C  
HETATM    5  CA  UNL     1      -9.096   8.424  65.786  1.00  0.00    -0.139 C  
HETATM    6  C   UNL     1      -7.746   6.567  66.914  1.00  0.00    -0.100 C  
HETATM    7  N   UNL     1     -10.102   8.707  66.825  1.00  0.00    -0.275 N  
HETATM    8  C   UNL     1      -9.040   9.647  64.852  1.00  0.00    -0.232 C  
HETATM    9  OXT UNL     1      -8.229   9.806  63.953  1.00  0.00    -0.137 OA 
HETATM   10  O   UNL     1     -10.049  10.530  65.060  1.00  0.00    -0.297 OA 
HETATM   11  C   UNL     1     -10.760   7.651  67.406  1.00  0.00    -0.248 C  
HETATM   12  CA  UNL     1     -10.443   8.167  68.849  1.00  0.00    -0.185 C  
HETATM   13  O   UNL     1     -11.270   6.714  66.841  1.00  0.00    -0.391 OA 
ENDROOT
BRANCH  12  14
HETATM   14  N   UNL     1      -9.668   7.325  69.803  1.00  0.00    -0.166 N  
HETATM   15  C   UNL     1     -10.200   6.273  70.519  1.00  0.00    -0.193 C  
HETATM   16  H   UNL     1      -8.680   7.541  69.935  1.00  0.00     0.000 HD 
HETATM   17  O   UNL     1     -11.370   5.930  70.413  1.00  0.00    -0.301 OA 
BRANCH  15  18
HETATM   18  C   UNL     1      -9.266   5.554  71.450  1.00  0.00    -0.167 A  
HETATM   19  C   UNL     1      -8.997   4.181  71.237  1.00  0.00    -0.114 A  
HETATM   20  C   UNL     1      -8.081   3.529  72.062  1.00  0.00    -0.063 A  
HETATM   21  C   UNL     1      -8.073   8.300  73.809  1.00  0.00    -0.255 A  
HETATM   22  C   UNL     1      -7.408   4.227  73.061  1.00  0.00    -0.075 A  
HETATM   23  C   UNL     1      -8.599   6.279  72.493  1.00  0.00    -0.120 A  
HETATM   24  C   UNL     1      -8.813   7.645  72.819  1.00  0.00    -0.203 A  
HETATM   25  C   UNL     1      -7.641   5.588  73.278  1.00  0.00    -0.096 A  
HETATM   26  C   UNL     1      -6.906   6.257  74.270  1.00  0.00    -0.078 A  
HETATM   27  C   UNL     1      -7.107   7.609  74.525  1.00  0.00    -0.140 A  
BRANCH  19  28
HETATM   28  O   UNL     1      -9.655   3.556  70.204  1.00  0.00    -0.180 OA 
BRANCH  28  29
HETATM   29  C   UNL     1      -8.902   2.670  69.375  1.00  0.00    -0.094 C  
HETATM   30  C   UNL     1      -8.911   3.226  67.961  1.00  0.00    -0.188 C  
ENDBRANCH  28  29
ENDBRANCH  19  28
ENDBRANCH  15  18
ENDBRANCH  12  14
TORSDOF 4
ENDMDL
MODEL      164
REMARK 921   NORMALIZED FREE ENERGY PREDICTED BY IDOCK:   -3.52 KCAL/MOL
REMARK 922        TOTAL FREE ENERGY PREDICTED BY IDOCK:   -5.48 KCAL/MOL
REMARK 923 INTER-LIGAND FREE ENERGY PREDICTED BY IDOCK:   -4.75 KCAL/MOL
REMARK 924 INTRA-LIGAND FREE ENERGY PREDICTED BY IDOCK:   -0.73 KCAL/MOL
REMARK 927      BINDING AFFINITY PREDICTED BY RF-SCORE:    0.00 PKD
ROOT
HETATM    1  C   UNL     1     -10.893  13.585  66.327  1.00  0.00    -0.289 C  
HETATM    2  S   UNL     1     -11.862  12.354  67.285  1.00  0.00    -0.192 SA 
HETATM    3  C   UNL     1     -11.079  12.788  68.908  1.00  0.00    -0.262 C  
HETATM    4  C   UNL     1     -12.083  12.582  70.046  1.00  0.00    -0.337 C  
HETATM    5  CA  UNL     1     -10.559  14.235  68.732  1.00  0.00    -0.252 C  
HETATM    6  C   UNL     1      -9.929  11.790  69.147  1.00  0.00     0.152 C  
HETATM    7  N   UNL     1     -10.162  14.389  67.322  1.00  0.00    -0.251 N  
HETATM    8  C   UNL     1     -11.555  15.362  69.059  1.00  0.00    -0.347 C  
HETATM    9  OXT UNL     1     -12.180  15.466  70.103  1.00  0.00    -0.340 OA 
HETATM   10  O   UNL     1     -11.629  16.312  68.092  1.00  0.00    -0.262 OA 
HETATM   11  C   UNL     1      -8.925  13.935  66.934  1.00  0.00    -0.222 C  
HETATM   12  CA  UNL     1      -9.528  13.128  65.737  1.00  0.00     0.047 C  
HETATM   13  O   UNL     1      -7.873  14.131  67.492  1.00  0.00    -0.167 OA 
ENDROOT
BRANCH  12  14
HETATM   14  N   UNL     1      -9.344  11.653  65.646  1.00  0.00    -0.316 N  
HETATM   15  C   UNL     1      -8.162  10.999  65.929  1.00  0.00    -0.100 C  
HETATM   16  H   UNL     1     -10.143  11.090  65.355  1.00  0.00     0.000 HD 
HETATM   17  O   UNL     1      -7.157  11.589  66.302  1.00  0.00    -0.010 OA 
BRANCH  15  18
HETATM   18  C   UNL     1      -8.163   9.507  65.759  1.00  0.00    -0.116 A  
HETATM   19  C   UNL     1      -7.972   8.958  64.468  1.00  0.00    -0.135 A  
HETATM   20  C   UNL     1      -7.909   7.573  64.319  1.00  0.00    -0.133 A  
HETATM   21  C   UNL     1      -8.540   8.204  69.321  1.00  0.00    -0.135 A  
HETATM   22  C   UNL     1      -7.995   6.738  65.429  1.00  0.00    -0.121 A  
HETATM   23  C   UNL     1      -8.280   8.657  66.909  1.00  0.00    -0.105 A  
HETATM   24  C   UNL     1      -8.505   9.093  68.241  1.00  0.00    -0.125 A  
HETATM   25  C   UNL     1      -8.163   7.256  66.716  1.00  0.00    -0.121 A  
HETATM   26  C   UNL     1      -8.201   6.374  67.809  1.00  0.00    -0.118 A  
HETATM   27  C   UNL     1      -8.372   6.845  69.106  1.00  0.00    -0.125 A  
BRANCH  19  28
HETATM   28  O   UNL     1      -7.846   9.833  63.416  1.00  0.00    -0.131 OA 
BRANCH  28  29
HETATM   29  C   UNL     1      -6.780   9.611  62.491  1.00  0.00    -0.098 C  
HETATM   30  C   UNL     1      -5.585  10.433  62.944  1.00  0.00    -0.144 C  
ENDBRANCH  28  29
ENDBRANCH  19  28
ENDBRANCH  15  18
ENDBRANCH  12  14
TORSDOF 4
ENDMDL
MODEL      165
REMARK 921   NORMALIZED FREE ENERGY PREDICTED BY IDOCK:   -3.39 KCAL/MOL
REMARK 922        TOTAL FREE ENERGY PREDICTED BY IDOCK:   -5.32 KCAL/MOL
REMARK 923 INTER-LIGAND FREE ENERGY PREDICTED BY IDOCK:   -4.14 KCAL/MOL
REMARK 924 INTRA-LIGAND FREE ENERGY PREDICTED BY IDOCK:   -1.18 KCAL/MOL
REMARK 927      BINDING AFFINITY PREDICTED BY RF-SCORE:    0.00 PKD
ROOT
HETATM    1  C   UNL     1     -11.268  10.406  66.130  1.00  0.00     0.557 C  
HETATM    2  S   UNL     1     -11.478  11.151  67.796  1.00  0.00    -0.224 SA 
HETATM    3  C   UNL     1     -11.027  12.862  67.245  1.00  0.00    -0.261 C  
HETATM    4  C   UNL     1     -11.788  13.898  68.077  1.00  0.00    -0.411 C  
HETATM    5  CA  UNL     1     -11.314  12.887  65.724  1.00  0.00    -0.315 C  
HETATM    6  C   UNL     1      -9.530  13.063  67.549  1.00  0.00    -0.198 C  
HETATM    7  N   UNL     1     -11.049  11.533  65.207  1.00  0.00    -0.237 N  
HETATM    8  C   UNL     1     -12.745  13.270  65.307  1.00  0.00    -0.412 C  
HETATM    9  OXT UNL     1     -13.336  14.274  65.671  1.00  0.00    -0.529 OA 
HETATM   10  O   UNL     1     -13.290  12.414  64.406  1.00  0.00    -0.789 OA 
HETATM   11  C   UNL     1      -9.752  11.182  64.920  1.00  0.00    -0.251 C  
HETATM   12  CA  UNL     1      -9.860   9.862  65.756  1.00  0.00    -0.287 C  
HETATM   13  O   UNL     1      -8.946  11.828  64.297  1.00  0.00     0.275 OA 
ENDROOT
BRANCH  12  14
HETATM   14  N   UNL     1      -8.952   9.618  66.910  1.00  0.00    -0.133 N  
HETATM   15  C   UNL     1      -7.688   9.074  66.803  1.00  0.00    -0.093 C  
HETATM   16  H   UNL     1      -9.286   9.869  67.841  1.00  0.00     0.000 HD 
HETATM   17  O   UNL     1      -7.198   8.759  65.727  1.00  0.00    -0.082 OA 
BRANCH  15  18
HETATM   18  C   UNL     1      -6.929   8.883  68.084  1.00  0.00    -0.077 A  
HETATM   19  C   UNL     1      -6.452  10.019  68.782  1.00  0.00    -0.045 A  
HETATM   20  C   UNL     1      -5.803   9.845  70.004  1.00  0.00    -0.046 A  
HETATM   21  C   UNL     1      -7.030   5.111  68.626  1.00  0.00    -0.056 A  
HETATM   22  C   UNL     1      -5.656   8.575  70.552  1.00  0.00    -0.027 A  
HETATM   23  C   UNL     1      -6.761   7.565  68.626  1.00  0.00    -0.054 A  
HETATM   24  C   UNL     1      -7.168   6.356  68.002  1.00  0.00    -0.087 A  
HETATM   25  C   UNL     1      -6.137   7.440  69.893  1.00  0.00    -0.027 A  
HETATM   26  C   UNL     1      -6.003   6.184  70.508  1.00  0.00    -0.026 A  
HETATM   27  C   UNL     1      -6.462   5.027  69.887  1.00  0.00    -0.035 A  
BRANCH  19  28
HETATM   28  O   UNL     1      -6.668  11.252  68.214  1.00  0.00    -0.057 OA 
BRANCH  28  29
HETATM   29  C   UNL     1      -5.567  11.885  67.561  1.00  0.00    -0.096 C  
HETATM   30  C   UNL     1      -5.488  13.320  68.053  1.00  0.00    -0.111 C  
ENDBRANCH  28  29
ENDBRANCH  19  28
ENDBRANCH  15  18
ENDBRANCH  12  14
TORSDOF 4
ENDMDL
MODEL      166
REMARK 921   NORMALIZED FREE ENERGY PREDICTED BY IDOCK:   -3.36 KCAL/MOL
REMARK 922        TOTAL FREE ENERGY PREDICTED BY IDOCK:   -5.28 KCAL/MOL
REMARK 923 INTER-LIGAND FREE ENERGY PREDICTED BY IDOCK:   -4.01 KCAL/MOL
REMARK 924 INTRA-LIGAND FREE ENERGY PREDICTED BY IDOCK:   -1.27 KCAL/MOL
REMARK 927      BINDING AFFINITY PREDICTED BY RF-SCORE:    0.00 PKD
ROOT
HETATM    1  C   UNL     1      -9.455   9.887  70.053  1.00  0.00    -0.202 C  
HETATM    2  S   UNL     1      -8.781   9.478  68.394  1.00  0.00    -0.124 SA 
HETATM    3  C   UNL     1     -10.437   9.096  67.657  1.00  0.00    -0.261 C  
HETATM    4  C   UNL     1     -10.444   9.455  66.169  1.00  0.00    -0.027 C  
HETATM    5  CA  UNL     1     -11.458   9.862  68.533  1.00  0.00     0.125 C  
HETATM    6  C   UNL     1     -10.640   7.570  67.744  1.00  0.00    -0.274 C  
HETATM    7  N   UNL     1     -10.921   9.892  69.904  1.00  0.00    -0.264 N  
HETATM    8  C   UNL     1     -11.754  11.316  68.119  1.00  0.00    -0.253 C  
HETATM    9  OXT UNL     1     -12.093  11.672  67.002  1.00  0.00    -0.547 OA 
HETATM   10  O   UNL     1     -11.683  12.194  69.153  1.00  0.00    -0.288 OA 
HETATM   11  C   UNL     1     -11.111   8.794  70.707  1.00  0.00    -0.260 C  
HETATM   12  CA  UNL     1      -9.592   8.728  71.082  1.00  0.00    -0.242 C  
HETATM   13  O   UNL     1     -12.141   8.188  70.876  1.00  0.00    -0.262 OA 
ENDROOT
BRANCH  12  14
HETATM   14  N   UNL     1      -8.787   7.514  70.774  1.00  0.00    -0.147 N  
HETATM   15  C   UNL     1      -8.346   6.614  71.722  1.00  0.00    -0.111 C  
HETATM   16  H   UNL     1      -8.546   7.337  69.799  1.00  0.00     0.000 HD 
HETATM   17  O   UNL     1      -8.601   6.736  72.913  1.00  0.00    -0.117 OA 
BRANCH  15  18
HETATM   18  C   UNL     1      -7.526   5.461  71.221  1.00  0.00    -0.093 A  
HETATM   19  C   UNL     1      -6.148   5.654  70.955  1.00  0.00    -0.030 A  
HETATM   20  C   UNL     1      -5.373   4.567  70.551  1.00  0.00    -0.004 A  
HETATM   21  C   UNL     1      -9.989   2.552  71.220  1.00  0.00    -0.019 A  
HETATM   22  C   UNL     1      -5.935   3.298  70.447  1.00  0.00    -0.018 A  
HETATM   23  C   UNL     1      -8.123   4.162  71.092  1.00  0.00    -0.072 A  
HETATM   24  C   UNL     1      -9.494   3.858  71.300  1.00  0.00    -0.229 A  
HETATM   25  C   UNL     1      -7.287   3.077  70.724  1.00  0.00    -0.033 A  
HETATM   26  C   UNL     1      -7.796   1.771  70.645  1.00  0.00    -0.041 A  
HETATM   27  C   UNL     1      -9.136   1.505  70.908  1.00  0.00    -0.136 A  
BRANCH  19  28
HETATM   28  O   UNL     1      -5.639   6.919  71.122  1.00  0.00    -0.027 OA 
BRANCH  28  29
HETATM   29  C   UNL     1      -5.211   7.623  69.955  1.00  0.00    -0.023 C  
HETATM   30  C   UNL     1      -5.461   9.104  70.179  1.00  0.00    -0.027 C  
ENDBRANCH  28  29
ENDBRANCH  19  28
ENDBRANCH  15  18
ENDBRANCH  12  14
TORSDOF 4
ENDMDL
MODEL      167
REMARK 921   NORMALIZED FREE ENERGY PREDICTED BY IDOCK:   -3.29 KCAL/MOL
REMARK 922        TOTAL FREE ENERGY PREDICTED BY IDOCK:   -5.20 KCAL/MOL
REMARK 923 INTER-LIGAND FREE ENERGY PREDICTED BY IDOCK:   -4.94 KCAL/MOL
REMARK 924 INTRA-LIGAND FREE ENERGY PREDICTED BY IDOCK:   -0.26 KCAL/MOL
REMARK 927      BINDING AFFINITY PREDICTED BY RF-SCORE:    0.00 PKD
ROOT
HETATM    1  C   UNL     1     -10.791  16.026  66.624  1.00  0.00    -0.179 C  
HETATM    2  S   UNL     1     -11.106  16.068  68.433  1.00  0.00    -0.357 SA 
HETATM    3  C   UNL     1      -9.815  17.353  68.774  1.00  0.00    -0.311 C  
HETATM    4  C   UNL     1     -10.240  18.222  69.960  1.00  0.00     1.053 C  
HETATM    5  CA  UNL     1      -9.625  18.102  67.433  1.00  0.00    -0.275 C  
HETATM    6  C   UNL     1      -8.532  16.614  69.204  1.00  0.00    -0.115 C  
HETATM    7  N   UNL     1      -9.851  17.127  66.351  1.00  0.00    -0.287 N  
HETATM    8  C   UNL     1     -10.562  19.297  67.181  1.00  0.00    -0.472 C  
HETATM    9  OXT UNL     1     -10.727  20.233  67.948  1.00  0.00    -0.178 OA 
HETATM   10  O   UNL     1     -11.154  19.270  65.960  1.00  0.00    -0.161 OA 
HETATM   11  C   UNL     1      -8.819  16.295  65.991  1.00  0.00    -0.273 C  
HETATM   12  CA  UNL     1      -9.724  15.023  66.101  1.00  0.00    -0.306 C  
HETATM   13  O   UNL     1      -7.672  16.610  65.782  1.00  0.00    -0.041 OA 
ENDROOT
BRANCH  12  14
HETATM   14  N   UNL     1      -9.377  13.924  67.044  1.00  0.00    -0.242 N  
HETATM   15  C   UNL     1      -9.911  12.653  66.986  1.00  0.00    -0.219 C  
HETATM   16  H   UNL     1      -8.701  14.123  67.781  1.00  0.00     0.000 HD 
HETATM   17  O   UNL     1     -10.716  12.317  66.127  1.00  0.00    -0.248 OA 
BRANCH  15  18
HETATM   18  C   UNL     1      -9.455  11.684  68.038  1.00  0.00    -0.185 A  
HETATM   19  C   UNL     1      -8.092  11.306  68.087  1.00  0.00    -0.134 A  
HETATM   20  C   UNL     1      -7.656  10.456  69.103  1.00  0.00    -0.117 A  
HETATM   21  C   UNL     1     -12.602  11.058  70.096  1.00  0.00    -0.281 A  
HETATM   22  C   UNL     1      -8.540  10.014  70.082  1.00  0.00    -0.046 A  
HETATM   23  C   UNL     1     -10.383  11.214  69.027  1.00  0.00    -0.214 A  
HETATM   24  C   UNL     1     -11.773  11.500  69.059  1.00  0.00    -0.400 A  
HETATM   25  C   UNL     1      -9.886  10.389  70.068  1.00  0.00     0.044 A  
HETATM   26  C   UNL     1     -10.728   9.951  71.103  1.00  0.00    -0.150 A  
HETATM   27  C   UNL     1     -12.076  10.296  71.128  1.00  0.00    -0.494 A  
BRANCH  19  28
HETATM   28  O   UNL     1      -7.255  11.813  67.121  1.00  0.00    -0.132 OA 
BRANCH  28  29
HETATM   29  C   UNL     1      -6.467  12.955  67.457  1.00  0.00    -0.160 C  
HETATM   30  C   UNL     1      -5.664  12.624  68.703  1.00  0.00    -0.059 C  
ENDBRANCH  28  29
ENDBRANCH  19  28
ENDBRANCH  15  18
ENDBRANCH  12  14
TORSDOF 4
ENDMDL
MODEL      168
REMARK 921   NORMALIZED FREE ENERGY PREDICTED BY IDOCK:   -3.21 KCAL/MOL
REMARK 922        TOTAL FREE ENERGY PREDICTED BY IDOCK:   -5.10 KCAL/MOL
REMARK 923 INTER-LIGAND FREE ENERGY PREDICTED BY IDOCK:   -3.92 KCAL/MOL
REMARK 924 INTRA-LIGAND FREE ENERGY PREDICTED BY IDOCK:   -1.18 KCAL/MOL
REMARK 927      BINDING AFFINITY PREDICTED BY RF-SCORE:    0.00 PKD
ROOT
HETATM    1  C   UNL     1      -9.889   4.318  66.082  1.00  0.00    -0.221 C  
HETATM    2  S   UNL     1      -8.691   5.649  65.669  1.00  0.00    -0.141 SA 
HETATM    3  C   UNL     1      -7.274   4.486  65.396  1.00  0.00    -0.068 C  
HETATM    4  C   UNL     1      -6.332   5.048  64.328  1.00  0.00    -0.033 C  
HETATM    5  CA  UNL     1      -7.927   3.123  65.059  1.00  0.00    -0.082 C  
HETATM    6  C   UNL     1      -6.469   4.425  66.709  1.00  0.00    -0.041 C  
HETATM    7  N   UNL     1      -9.194   3.049  65.808  1.00  0.00    -0.146 N  
HETATM    8  C   UNL     1      -8.250   2.871  63.575  1.00  0.00    -0.085 C  
HETATM    9  OXT UNL     1      -7.455   2.980  62.656  1.00  0.00    -0.050 OA 
HETATM   10  O   UNL     1      -9.515   2.423  63.369  1.00  0.00    -0.092 OA 
HETATM   11  C   UNL     1      -9.156   2.664  67.126  1.00  0.00    -0.154 C  
HETATM   12  CA  UNL     1     -10.011   3.896  67.574  1.00  0.00     0.119 C  
HETATM   13  O   UNL     1      -8.558   1.723  67.590  1.00  0.00    -0.073 OA 
ENDROOT
BRANCH  12  14
HETATM   14  N   UNL     1      -9.470   4.879  68.553  1.00  0.00    -0.135 N  
HETATM   15  C   UNL     1     -10.182   5.950  69.052  1.00  0.00    -0.203 C  
HETATM   16  H   UNL     1      -8.511   4.752  68.876  1.00  0.00     0.000 HD 
HETATM   17  O   UNL     1     -11.343   6.173  68.736  1.00  0.00    -0.344 OA 
BRANCH  15  18
HETATM   18  C   UNL     1      -9.458   6.846  70.016  1.00  0.00    -0.158 A  
HETATM   19  C   UNL     1      -9.296   6.430  71.360  1.00  0.00    -0.152 A  
HETATM   20  C   UNL     1      -8.569   7.232  72.238  1.00  0.00    -0.131 A  
HETATM   21  C   UNL     1      -8.343   9.774  67.845  1.00  0.00    -0.114 A  
HETATM   22  C   UNL     1      -7.976   8.411  71.795  1.00  0.00    -0.173 A  
HETATM   23  C   UNL     1      -8.875   8.072  69.552  1.00  0.00    -0.144 A  
HETATM   24  C   UNL     1      -8.999   8.603  68.241  1.00  0.00    -0.142 A  
HETATM   25  C   UNL     1      -8.105   8.833  70.469  1.00  0.00    -0.130 A  
HETATM   26  C   UNL     1      -7.453  10.007  70.059  1.00  0.00    -0.181 A  
HETATM   27  C   UNL     1      -7.556  10.468  68.751  1.00  0.00    -0.101 A  
BRANCH  19  28
HETATM   28  O   UNL     1      -9.862   5.233  71.729  1.00  0.00    -0.160 OA 
BRANCH  28  29
HETATM   29  C   UNL     1     -10.976   5.272  72.621  1.00  0.00    -0.260 C  
HETATM   30  C   UNL     1     -11.028   3.952  73.370  1.00  0.00    -0.327 C  
ENDBRANCH  28  29
ENDBRANCH  19  28
ENDBRANCH  15  18
ENDBRANCH  12  14
TORSDOF 4
ENDMDL
MODEL      169
REMARK 921   NORMALIZED FREE ENERGY PREDICTED BY IDOCK:   -3.16 KCAL/MOL
REMARK 922        TOTAL FREE ENERGY PREDICTED BY IDOCK:   -5.04 KCAL/MOL
REMARK 923 INTER-LIGAND FREE ENERGY PREDICTED BY IDOCK:   -4.10 KCAL/MOL
REMARK 924 INTRA-LIGAND FREE ENERGY PREDICTED BY IDOCK:   -0.93 KCAL/MOL
REMARK 927      BINDING AFFINITY PREDICTED BY RF-SCORE:    0.00 PKD
ROOT
HETATM    1  C   UNL     1      -8.556   6.769  70.020  1.00  0.00    -0.141 C  
HETATM    2  S   UNL     1      -8.291   6.720  68.203  1.00  0.00    -0.117 SA 
HETATM    3  C   UNL     1      -6.443   6.773  68.325  1.00  0.00    -0.053 C  
HETATM    4  C   UNL     1      -5.818   5.999  67.162  1.00  0.00    -0.017 C  
HETATM    5  CA  UNL     1      -6.115   6.233  69.739  1.00  0.00    -0.026 C  
HETATM    6  C   UNL     1      -6.013   8.244  68.160  1.00  0.00    -0.042 C  
HETATM    7  N   UNL     1      -7.220   6.634  70.627  1.00  0.00    -0.072 N  
HETATM    8  C   UNL     1      -5.950   4.708  69.864  1.00  0.00    -0.018 C  
HETATM    9  OXT UNL     1      -5.208   4.024  69.177  1.00  0.00    -0.010 OA 
HETATM   10  O   UNL     1      -6.660   4.172  70.890  1.00  0.00    -0.029 OA 
HETATM   11  C   UNL     1      -7.214   7.904  71.150  1.00  0.00    -0.058 C  
HETATM   12  CA  UNL     1      -8.688   8.165  70.692  1.00  0.00    -0.135 C  
HETATM   13  O   UNL     1      -6.284   8.471  71.670  1.00  0.00    -0.047 OA 
ENDROOT
BRANCH  12  14
HETATM   14  N   UNL     1      -9.007   9.284  69.762  1.00  0.00    -0.158 N  
HETATM   15  C   UNL     1     -10.286   9.656  69.404  1.00  0.00    -0.213 C  
HETATM   16  H   UNL     1      -8.228   9.809  69.364  1.00  0.00     0.000 HD 
HETATM   17  O   UNL     1     -11.281   9.096  69.845  1.00  0.00    -0.206 OA 
BRANCH  15  18
HETATM   18  C   UNL     1     -10.407  10.797  68.436  1.00  0.00    -0.199 A  
HETATM   19  C   UNL     1     -10.757  12.081  68.919  1.00  0.00    -0.185 A  
HETATM   20  C   UNL     1     -10.807  13.154  68.030  1.00  0.00    -0.261 A  
HETATM   21  C   UNL     1      -9.403   9.246  65.102  1.00  0.00    -0.239 A  
HETATM   22  C   UNL     1     -10.480  12.977  66.689  1.00  0.00    -0.271 A  
HETATM   23  C   UNL     1     -10.094  10.595  67.050  1.00  0.00    -0.255 A  
HETATM   24  C   UNL     1      -9.763   9.352  66.450  1.00  0.00    -0.315 A  
HETATM   25  C   UNL     1     -10.112  11.724  66.191  1.00  0.00    -0.255 A  
HETATM   26  C   UNL     1      -9.750  11.604  64.839  1.00  0.00    -0.232 A  
HETATM   27  C   UNL     1      -9.381  10.376  64.300  1.00  0.00    -0.324 A  
BRANCH  19  28
HETATM   28  O   UNL     1     -11.022  12.206  70.262  1.00  0.00     0.515 OA 
BRANCH  28  29
HETATM   29  C   UNL     1     -12.336  12.614  70.646  1.00  0.00    -0.290 C  
HETATM   30  C   UNL     1     -12.969  11.483  71.438  1.00  0.00    -0.450 C  
ENDBRANCH  28  29
ENDBRANCH  19  28
ENDBRANCH  15  18
ENDBRANCH  12  14
TORSDOF 4
ENDMDL
MODEL      170
REMARK 921   NORMALIZED FREE ENERGY PREDICTED BY IDOCK:   -3.06 KCAL/MOL
REMARK 922        TOTAL FREE ENERGY PREDICTED BY IDOCK:   -4.91 KCAL/MOL
REMARK 923 INTER-LIGAND FREE ENERGY PREDICTED BY IDOCK:   -4.44 KCAL/MOL
REMARK 924 INTRA-LIGAND FREE ENERGY PREDICTED BY IDOCK:   -0.47 KCAL/MOL
REMARK 927      BINDING AFFINITY PREDICTED BY RF-SCORE:    0.00 PKD
ROOT
HETATM    1  C   UNL     1      -8.978   9.165  70.185  1.00  0.00    -0.198 C  
HETATM    2  S   UNL     1     -10.422   8.280  69.472  1.00  0.00    -0.215 SA 
HETATM    3  C   UNL     1      -9.809   6.597  69.949  1.00  0.00    -0.167 C  
HETATM    4  C   UNL     1     -10.992   5.672  70.244  1.00  0.00    -0.287 C  
HETATM    5  CA  UNL     1      -8.841   6.840  71.133  1.00  0.00    -0.137 C  
HETATM    6  C   UNL     1      -9.081   6.008  68.725  1.00  0.00    -0.124 C  
HETATM    7  N   UNL     1      -8.199   8.148  70.912  1.00  0.00    -0.104 N  
HETATM    8  C   UNL     1      -9.473   6.864  72.536  1.00  0.00    -0.138 C  
HETATM    9  OXT UNL     1     -10.190   5.991  72.998  1.00  0.00    -0.180 OA 
HETATM   10  O   UNL     1      -9.093   7.936  73.279  1.00  0.00    -0.222 OA 
HETATM   11  C   UNL     1      -7.121   8.215  70.064  1.00  0.00    -0.048 C  
HETATM   12  CA  UNL     1      -7.751   9.403  69.260  1.00  0.00    -0.083 C  
HETATM   13  O   UNL     1      -6.162   7.483  70.049  1.00  0.00    -0.027 OA 
ENDROOT
BRANCH  12  14
HETATM   14  N   UNL     1      -8.025   9.272  67.803  1.00  0.00    -0.100 N  
HETATM   15  C   UNL     1      -7.048   9.232  66.829  1.00  0.00    -0.082 C  
HETATM   16  H   UNL     1      -8.998   9.208  67.505  1.00  0.00     0.000 HD 
HETATM   17  O   UNL     1      -5.854   9.284  67.093  1.00  0.00    -0.045 OA 
BRANCH  15  18
HETATM   18  C   UNL     1      -7.520   9.118  65.409  1.00  0.00    -0.093 A  
HETATM   19  C   UNL     1      -7.032   8.065  64.598  1.00  0.00    -0.071 A  
HETATM   20  C   UNL     1      -7.519   7.921  63.300  1.00  0.00    -0.119 A  
HETATM   21  C   UNL     1     -10.069  11.935  65.090  1.00  0.00    -0.293 A  
HETATM   22  C   UNL     1      -8.502   8.779  62.814  1.00  0.00    -0.170 A  
HETATM   23  C   UNL     1      -8.514  10.026  64.911  1.00  0.00    -0.173 A  
HETATM   24  C   UNL     1      -9.051  11.134  65.619  1.00  0.00    -0.221 A  
HETATM   25  C   UNL     1      -9.014   9.814  63.601  1.00  0.00    -0.270 A  
HETATM   26  C   UNL     1     -10.035  10.627  63.081  1.00  0.00    -0.286 A  
HETATM   27  C   UNL     1     -10.573  11.671  63.826  1.00  0.00    -0.473 A  
BRANCH  19  28
HETATM   28  O   UNL     1      -6.098   7.219  65.148  1.00  0.00    -0.037 OA 
BRANCH  28  29
HETATM   29  C   UNL     1      -6.266   5.816  64.939  1.00  0.00    -0.032 C  
HETATM   30  C   UNL     1      -6.646   5.184  66.266  1.00  0.00    -0.049 C  
ENDBRANCH  28  29
ENDBRANCH  19  28
ENDBRANCH  15  18
ENDBRANCH  12  14
TORSDOF 4
ENDMDL
MODEL      171
REMARK 921   NORMALIZED FREE ENERGY PREDICTED BY IDOCK:   -3.04 KCAL/MOL
REMARK 922        TOTAL FREE ENERGY PREDICTED BY IDOCK:   -4.88 KCAL/MOL
REMARK 923 INTER-LIGAND FREE ENERGY PREDICTED BY IDOCK:   -4.23 KCAL/MOL
REMARK 924 INTRA-LIGAND FREE ENERGY PREDICTED BY IDOCK:   -0.65 KCAL/MOL
REMARK 927      BINDING AFFINITY PREDICTED BY RF-SCORE:    0.00 PKD
ROOT
HETATM    1  C   UNL     1      -9.700  14.314  66.742  1.00  0.00    -0.275 C  
HETATM    2  S   UNL     1      -9.365  12.737  65.862  1.00  0.00     0.117 SA 
HETATM    3  C   UNL     1     -11.098  12.104  66.040  1.00  0.00    -0.313 C  
HETATM    4  C   UNL     1     -11.462  11.228  64.838  1.00  0.00     0.072 C  
HETATM    5  CA  UNL     1     -11.973  13.366  66.234  1.00  0.00    -0.411 C  
HETATM    6  C   UNL     1     -11.129  11.189  67.280  1.00  0.00    -0.366 C  
HETATM    7  N   UNL     1     -11.156  14.356  66.958  1.00  0.00    -0.305 N  
HETATM    8  C   UNL     1     -12.489  14.041  64.951  1.00  0.00    -0.396 C  
HETATM    9  OXT UNL     1     -13.096  13.475  64.056  1.00  0.00    -0.193 OA 
HETATM   10  O   UNL     1     -12.281  15.382  64.927  1.00  0.00    -0.044 OA 
HETATM   11  C   UNL     1     -11.062  14.256  68.325  1.00  0.00    -0.258 C  
HETATM   12  CA  UNL     1      -9.499  14.337  68.284  1.00  0.00    -0.209 C  
HETATM   13  O   UNL     1     -11.967  14.089  69.105  1.00  0.00    -0.329 OA 
ENDROOT
BRANCH  12  14
HETATM   14  N   UNL     1      -8.667  13.228  68.827  1.00  0.00    -0.374 N  
HETATM   15  C   UNL     1      -7.328  13.051  68.544  1.00  0.00    -0.115 C  
HETATM   16  H   UNL     1      -9.116  12.555  69.448  1.00  0.00     0.000 HD 
HETATM   17  O   UNL     1      -6.702  13.816  67.823  1.00  0.00    -0.145 OA 
BRANCH  15  18
HETATM   18  C   UNL     1      -6.662  11.859  69.169  1.00  0.00    -0.105 A  
HETATM   19  C   UNL     1      -5.942  12.023  70.377  1.00  0.00    -0.107 A  
HETATM   20  C   UNL     1      -5.377  10.906  70.991  1.00  0.00    -0.099 A  
HETATM   21  C   UNL     1      -7.669   8.976  66.888  1.00  0.00    -0.098 A  
HETATM   22  C   UNL     1      -5.549   9.637  70.446  1.00  0.00    -0.045 A  
HETATM   23  C   UNL     1      -6.824  10.560  68.582  1.00  0.00    -0.054 A  
HETATM   24  C   UNL     1      -7.494  10.281  67.362  1.00  0.00    -0.094 A  
HETATM   25  C   UNL     1      -6.272   9.446  69.265  1.00  0.00    -0.041 A  
HETATM   26  C   UNL     1      -6.454   8.141  68.778  1.00  0.00    -0.053 A  
HETATM   27  C   UNL     1      -7.163   7.904  67.605  1.00  0.00    -0.088 A  
BRANCH  19  28
HETATM   28  O   UNL     1      -5.846  13.293  70.894  1.00  0.00    -0.188 OA 
BRANCH  28  29
HETATM   29  C   UNL     1      -5.751  13.428  72.313  1.00  0.00     0.397 C  
HETATM   30  C   UNL     1      -5.185  14.804  72.619  1.00  0.00    -0.112 C  
ENDBRANCH  28  29
ENDBRANCH  19  28
ENDBRANCH  15  18
ENDBRANCH  12  14
TORSDOF 4
ENDMDL
MODEL      172
REMARK 921   NORMALIZED FREE ENERGY PREDICTED BY IDOCK:   -3.03 KCAL/MOL
REMARK 922        TOTAL FREE ENERGY PREDICTED BY IDOCK:   -4.88 KCAL/MOL
REMARK 923 INTER-LIGAND FREE ENERGY PREDICTED BY IDOCK:   -5.54 KCAL/MOL
REMARK 924 INTRA-LIGAND FREE ENERGY PREDICTED BY IDOCK:    0.65 KCAL/MOL
REMARK 927      BINDING AFFINITY PREDICTED BY RF-SCORE:    0.00 PKD
ROOT
HETATM    1  C   UNL     1      -7.534  11.049  68.406  1.00  0.00    -0.100 C  
HETATM    2  S   UNL     1      -9.347  10.851  68.631  1.00  0.00    -0.186 SA 
HETATM    3  C   UNL     1      -9.486   9.440  67.438  1.00  0.00    -0.131 C  
HETATM    4  C   UNL     1     -10.607   8.493  67.875  1.00  0.00    -0.219 C  
HETATM    5  CA  UNL     1      -8.070   8.816  67.382  1.00  0.00    -0.105 C  
HETATM    6  C   UNL     1      -9.908  10.026  66.077  1.00  0.00    -0.321 C  
HETATM    7  N   UNL     1      -7.103   9.909  67.578  1.00  0.00    -0.087 N  
HETATM    8  C   UNL     1      -7.762   7.731  68.430  1.00  0.00    -0.119 C  
HETATM    9  OXT UNL     1      -8.444   6.739  68.634  1.00  0.00    -0.122 OA 
HETATM   10  O   UNL     1      -6.586   7.928  69.078  1.00  0.00    -0.042 OA 
HETATM   11  C   UNL     1      -6.763  10.687  66.498  1.00  0.00    -0.116 C  
HETATM   12  CA  UNL     1      -7.048  12.010  67.284  1.00  0.00    -0.149 C  
HETATM   13  O   UNL     1      -6.458  10.304  65.395  1.00  0.00    -0.110 OA 
ENDROOT
BRANCH  12  14
HETATM   14  N   UNL     1      -8.069  12.978  66.797  1.00  0.00    -0.398 N  
HETATM   15  C   UNL     1      -8.177  14.281  67.237  1.00  0.00    -0.192 C  
HETATM   16  H   UNL     1      -8.732  12.657  66.092  1.00  0.00     0.000 HD 
HETATM   17  O   UNL     1      -7.415  14.760  68.068  1.00  0.00    -0.107 OA 
BRANCH  15  18
HETATM   18  C   UNL     1      -9.286  15.101  66.644  1.00  0.00    -0.298 A  
HETATM   19  C   UNL     1      -9.095  16.491  66.455  1.00  0.00    -0.276 A  
HETATM   20  C   UNL     1     -10.101  17.240  65.845  1.00  0.00    -0.226 A  
HETATM   21  C   UNL     1     -11.977  12.519  65.854  1.00  0.00    -0.472 A  
HETATM   22  C   UNL     1     -11.264  16.626  65.392  1.00  0.00     0.162 A  
HETATM   23  C   UNL     1     -10.492  14.459  66.205  1.00  0.00    -0.292 A  
HETATM   24  C   UNL     1     -10.806  13.084  66.371  1.00  0.00    -0.294 A  
HETATM   25  C   UNL     1     -11.468  15.252  65.548  1.00  0.00    -0.152 A  
HETATM   26  C   UNL     1     -12.640  14.673  65.036  1.00  0.00    -0.162 A  
HETATM   27  C   UNL     1     -12.887  13.310  65.172  1.00  0.00    -0.376 A  
BRANCH  19  28
HETATM   28  O   UNL     1      -7.906  17.034  66.879  1.00  0.00    -0.178 OA 
BRANCH  28  29
HETATM   29  C   UNL     1      -7.961  18.226  67.664  1.00  0.00    -0.241 C  
HETATM   30  C   UNL     1      -6.640  18.367  68.401  1.00  0.00    -0.227 C  
ENDBRANCH  28  29
ENDBRANCH  19  28
ENDBRANCH  15  18
ENDBRANCH  12  14
TORSDOF 4
ENDMDL
MODEL      173
REMARK 921   NORMALIZED FREE ENERGY PREDICTED BY IDOCK:   -2.76 KCAL/MOL
REMARK 922        TOTAL FREE ENERGY PREDICTED BY IDOCK:   -4.55 KCAL/MOL
REMARK 923 INTER-LIGAND FREE ENERGY PREDICTED BY IDOCK:   -3.52 KCAL/MOL
REMARK 924 INTRA-LIGAND FREE ENERGY PREDICTED BY IDOCK:   -1.03 KCAL/MOL
REMARK 927      BINDING AFFINITY PREDICTED BY RF-SCORE:    0.00 PKD
ROOT
HETATM    1  C   UNL     1      -9.854   9.946  65.811  1.00  0.00    -0.287 C  
HETATM    2  S   UNL     1     -10.046   9.308  67.523  1.00  0.00    -0.235 SA 
HETATM    3  C   UNL     1      -8.454  10.038  68.127  1.00  0.00    -0.114 C  
HETATM    4  C   UNL     1      -8.576  10.412  69.607  1.00  0.00    -0.060 C  
HETATM    5  CA  UNL     1      -8.156  11.214  67.165  1.00  0.00    -0.138 C  
HETATM    6  C   UNL     1      -7.378   8.938  68.037  1.00  0.00    -0.084 C  
HETATM    7  N   UNL     1      -8.683  10.839  65.841  1.00  0.00    -0.176 N  
HETATM    8  C   UNL     1      -8.772  12.574  67.540  1.00  0.00    -0.182 C  
HETATM    9  OXT UNL     1      -8.650  13.125  68.622  1.00  0.00    -0.095 OA 
HETATM   10  O   UNL     1      -9.419  13.174  66.508  1.00  0.00    -0.252 OA 
HETATM   11  C   UNL     1      -7.917  10.032  65.035  1.00  0.00    -0.143 C  
HETATM   12  CA  UNL     1      -9.108   9.047  64.786  1.00  0.00    -0.028 C  
HETATM   13  O   UNL     1      -6.742  10.158  64.789  1.00  0.00    -0.123 OA 
ENDROOT
BRANCH  12  14
HETATM   14  N   UNL     1      -8.998   7.612  65.168  1.00  0.00    -0.359 N  
HETATM   15  C   UNL     1      -8.263   6.676  64.471  1.00  0.00    -0.014 C  
HETATM   16  H   UNL     1      -9.500   7.301  66.000  1.00  0.00     0.000 HD 
HETATM   17  O   UNL     1      -7.615   6.960  63.473  1.00  0.00    -0.088 OA 
BRANCH  15  18
HETATM   18  C   UNL     1      -8.291   5.271  64.999  1.00  0.00    -0.146 A  
HETATM   19  C   UNL     1      -7.599   4.967  66.196  1.00  0.00    -0.091 A  
HETATM   20  C   UNL     1      -7.678   3.677  66.721  1.00  0.00    -0.081 A  
HETATM   21  C   UNL     1     -10.586   3.449  62.561  1.00  0.00    -0.182 A  
HETATM   22  C   UNL     1      -8.458   2.707  66.098  1.00  0.00    -0.098 A  
HETATM   23  C   UNL     1      -9.077   4.273  64.332  1.00  0.00    -0.150 A  
HETATM   24  C   UNL     1      -9.784   4.454  63.114  1.00  0.00    -0.012 A  
HETATM   25  C   UNL     1      -9.167   2.988  64.927  1.00  0.00    -0.148 A  
HETATM   26  C   UNL     1      -9.974   1.988  64.360  1.00  0.00     0.076 A  
HETATM   27  C   UNL     1     -10.693   2.221  63.193  1.00  0.00    -0.214 A  
BRANCH  19  28
HETATM   28  O   UNL     1      -6.884   5.978  66.793  1.00  0.00    -0.056 OA 
BRANCH  28  29
HETATM   29  C   UNL     1      -5.477   6.028  66.554  1.00  0.00    -0.009 C  
HETATM   30  C   UNL     1      -5.154   7.370  65.920  1.00  0.00    -0.024 C  
ENDBRANCH  28  29
ENDBRANCH  19  28
ENDBRANCH  15  18
ENDBRANCH  12  14
TORSDOF 4
ENDMDL
MODEL      174
REMARK 921   NORMALIZED FREE ENERGY PREDICTED BY IDOCK:   -2.57 KCAL/MOL
REMARK 922        TOTAL FREE ENERGY PREDICTED BY IDOCK:   -4.31 KCAL/MOL
REMARK 923 INTER-LIGAND FREE ENERGY PREDICTED BY IDOCK:   -3.25 KCAL/MOL
REMARK 924 INTRA-LIGAND FREE ENERGY PREDICTED BY IDOCK:   -1.06 KCAL/MOL
REMARK 927      BINDING AFFINITY PREDICTED BY RF-SCORE:    0.00 PKD
ROOT
HETATM    1  C   UNL     1      -9.352   8.580  70.000  1.00  0.00    -0.163 C  
HETATM    2  S   UNL     1     -10.830   7.514  69.764  1.00  0.00    -0.187 SA 
HETATM    3  C   UNL     1     -10.288   6.243  70.999  1.00  0.00    -0.211 C  
HETATM    4  C   UNL     1     -11.509   5.613  71.673  1.00  0.00    -0.071 C  
HETATM    5  CA  UNL     1      -9.313   6.986  71.944  1.00  0.00    -0.140 C  
HETATM    6  C   UNL     1      -9.582   5.116  70.220  1.00  0.00    -0.249 C  
HETATM    7  N   UNL     1      -8.618   8.006  71.141  1.00  0.00    -0.126 N  
HETATM    8  C   UNL     1      -9.947   7.700  73.152  1.00  0.00    -0.304 C  
HETATM    9  OXT UNL     1     -10.700   7.179  73.959  1.00  0.00    -0.283 OA 
HETATM   10  O   UNL     1      -9.524   8.981  73.302  1.00  0.00     0.400 OA 
HETATM   11  C   UNL     1      -7.536   7.623  70.386  1.00  0.00    -0.079 C  
HETATM   12  CA  UNL     1      -8.114   8.304  69.101  1.00  0.00    -0.120 C  
HETATM   13  O   UNL     1      -6.608   6.938  70.743  1.00  0.00    -0.050 OA 
ENDROOT
BRANCH  12  14
HETATM   14  N   UNL     1      -8.390   7.503  67.876  1.00  0.00    -0.123 N  
HETATM   15  C   UNL     1      -7.467   6.684  67.259  1.00  0.00    -0.092 C  
HETATM   16  H   UNL     1      -9.322   7.565  67.467  1.00  0.00     0.000 HD 
HETATM   17  O   UNL     1      -6.331   6.534  67.688  1.00  0.00    -0.039 OA 
BRANCH  15  18
HETATM   18  C   UNL     1      -7.925   5.972  66.019  1.00  0.00    -0.109 A  
HETATM   19  C   UNL     1      -7.822   6.626  64.768  1.00  0.00    -0.115 A  
HETATM   20  C   UNL     1      -8.187   5.941  63.609  1.00  0.00    -0.049 A  
HETATM   21  C   UNL     1      -8.952   2.530  67.296  1.00  0.00    -0.182 A  
HETATM   22  C   UNL     1      -8.613   4.617  63.674  1.00  0.00    -0.132 A  
HETATM   23  C   UNL     1      -8.387   4.616  66.103  1.00  0.00    -0.110 A  
HETATM   24  C   UNL     1      -8.560   3.873  67.301  1.00  0.00    -0.108 A  
HETATM   25  C   UNL     1      -8.703   3.943  64.895  1.00  0.00    -0.116 A  
HETATM   26  C   UNL     1      -9.096   2.595  64.903  1.00  0.00    -0.136 A  
HETATM   27  C   UNL     1      -9.204   1.886  66.095  1.00  0.00     0.032 A  
BRANCH  19  28
HETATM   28  O   UNL     1      -7.350   7.917  64.760  1.00  0.00    -0.074 OA 
BRANCH  28  29
HETATM   29  C   UNL     1      -8.168   8.920  64.158  1.00  0.00    -0.167 C  
HETATM   30  C   UNL     1      -8.211  10.117  65.092  1.00  0.00    -0.151 C  
ENDBRANCH  28  29
ENDBRANCH  19  28
ENDBRANCH  15  18
ENDBRANCH  12  14
TORSDOF 4
ENDMDL
MODEL      175
REMARK 921   NORMALIZED FREE ENERGY PREDICTED BY IDOCK:   -2.17 KCAL/MOL
REMARK 922        TOTAL FREE ENERGY PREDICTED BY IDOCK:   -3.82 KCAL/MOL
REMARK 923 INTER-LIGAND FREE ENERGY PREDICTED BY IDOCK:   -2.72 KCAL/MOL
REMARK 924 INTRA-LIGAND FREE ENERGY PREDICTED BY IDOCK:   -1.09 KCAL/MOL
REMARK 927      BINDING AFFINITY PREDICTED BY RF-SCORE:    0.00 PKD
ROOT
HETATM    1  C   UNL     1     -11.958  14.540  65.888  1.00  0.00    -0.309 C  
HETATM    2  S   UNL     1     -10.690  14.588  64.560  1.00  0.00    -0.006 SA 
HETATM    3  C   UNL     1     -10.437  12.752  64.539  1.00  0.00    -0.368 C  
HETATM    4  C   UNL     1     -10.072  12.289  63.126  1.00  0.00     0.008 C  
HETATM    5  CA  UNL     1     -11.742  12.156  65.119  1.00  0.00    -0.310 C  
HETATM    6  C   UNL     1      -9.220  12.444  65.432  1.00  0.00     0.288 C  
HETATM    7  N   UNL     1     -12.257  13.115  66.112  1.00  0.00    -0.412 N  
HETATM    8  C   UNL     1     -12.873  11.881  64.112  1.00  0.00    -0.091 C  
HETATM    9  OXT UNL     1     -12.756  11.228  63.087  1.00  0.00     0.017 OA 
HETATM   10  O   UNL     1     -14.076  12.373  64.505  1.00  0.00     0.958 OA 
HETATM   11  C   UNL     1     -11.727  13.096  67.379  1.00  0.00    -0.370 C  
HETATM   12  CA  UNL     1     -11.465  14.639  67.360  1.00  0.00    -0.369 C  
HETATM   13  O   UNL     1     -11.538  12.126  68.072  1.00  0.00    -0.307 OA 
ENDROOT
BRANCH  12  14
HETATM   14  N   UNL     1     -10.087  15.178  67.528  1.00  0.00    -0.231 N  
HETATM   15  C   UNL     1      -9.723  16.090  68.496  1.00  0.00    -0.214 C  
HETATM   16  H   UNL     1      -9.366  14.851  66.885  1.00  0.00     0.000 HD 
HETATM   17  O   UNL     1     -10.515  16.525  69.321  1.00  0.00    -0.285 OA 
BRANCH  15  18
HETATM   18  C   UNL     1      -8.288  16.534  68.494  1.00  0.00    -0.210 A  
HETATM   19  C   UNL     1      -7.874  17.534  67.582  1.00  0.00    -0.201 A  
HETATM   20  C   UNL     1      -6.557  17.992  67.624  1.00  0.00    -0.191 A  
HETATM   21  C   UNL     1      -6.740  14.553  71.360  1.00  0.00     0.981 A  
HETATM   22  C   UNL     1      -5.667  17.500  68.574  1.00  0.00    -0.157 A  
HETATM   23  C   UNL     1      -7.374  15.999  69.462  1.00  0.00    -0.146 A  
HETATM   24  C   UNL     1      -7.668  14.975  70.401  1.00  0.00     0.747 A  
HETATM   25  C   UNL     1      -6.058  16.527  69.499  1.00  0.00    -0.199 A  
HETATM   26  C   UNL     1      -5.135  16.094  70.465  1.00  0.00    -0.185 A  
HETATM   27  C   UNL     1      -5.478  15.124  71.402  1.00  0.00     0.039 A  
BRANCH  19  28
HETATM   28  O   UNL     1      -8.809  18.017  66.698  1.00  0.00    -0.253 OA 
BRANCH  28  29
HETATM   29  C   UNL     1      -9.193  19.387  66.819  1.00  0.00    -0.333 C  
HETATM   30  C   UNL     1     -10.524  19.569  66.111  1.00  0.00    -0.613 C  
ENDBRANCH  28  29
ENDBRANCH  19  28
ENDBRANCH  15  18
ENDBRANCH  12  14
TORSDOF 4
ENDMDL
MODEL      176
REMARK 921   NORMALIZED FREE ENERGY PREDICTED BY IDOCK:   -2.16 KCAL/MOL
REMARK 922        TOTAL FREE ENERGY PREDICTED BY IDOCK:   -3.81 KCAL/MOL
REMARK 923 INTER-LIGAND FREE ENERGY PREDICTED BY IDOCK:   -3.06 KCAL/MOL
REMARK 924 INTRA-LIGAND FREE ENERGY PREDICTED BY IDOCK:   -0.75 KCAL/MOL
REMARK 927      BINDING AFFINITY PREDICTED BY RF-SCORE:    0.00 PKD
ROOT
HETATM    1  C   UNL     1      -9.355  12.946  67.751  1.00  0.00    -0.203 C  
HETATM    2  S   UNL     1      -9.744  13.446  69.475  1.00  0.00     1.350 SA 
HETATM    3  C   UNL     1     -11.566  13.604  69.171  1.00  0.00    -0.309 C  
HETATM    4  C   UNL     1     -12.342  13.250  70.441  1.00  0.00    -0.365 C  
HETATM    5  CA  UNL     1     -11.850  12.705  67.943  1.00  0.00    -0.332 C  
HETATM    6  C   UNL     1     -11.856  15.088  68.873  1.00  0.00    -0.337 C  
HETATM    7  N   UNL     1     -10.653  12.744  67.085  1.00  0.00    -0.236 N  
HETATM    8  C   UNL     1     -12.160  11.226  68.239  1.00  0.00     0.012 C  
HETATM    9  OXT UNL     1     -13.011  10.830  69.018  1.00  0.00     0.159 OA 
HETATM   10  O   UNL     1     -11.440  10.363  67.477  1.00  0.00    -0.386 OA 
HETATM   11  C   UNL     1     -10.496  13.804  66.226  1.00  0.00    -0.291 C  
HETATM   12  CA  UNL     1      -9.037  14.073  66.728  1.00  0.00    -0.232 C  
HETATM   13  O   UNL     1     -11.327  14.267  65.483  1.00  0.00    -0.312 OA 
ENDROOT
BRANCH  12  14
HETATM   14  N   UNL     1      -8.671  15.385  67.329  1.00  0.00    -0.184 N  
HETATM   15  C   UNL     1      -7.978  16.377  66.667  1.00  0.00    -0.288 C  
HETATM   16  H   UNL     1      -8.950  15.561  68.294  1.00  0.00     0.000 HD 
HETATM   17  O   UNL     1      -7.618  16.262  65.503  1.00  0.00     1.130 OA 
BRANCH  15  18
HETATM   18  C   UNL     1      -7.681  17.625  67.447  1.00  0.00    -0.214 A  
HETATM   19  C   UNL     1      -6.538  17.664  68.282  1.00  0.00    -0.190 A  
HETATM   20  C   UNL     1      -6.227  18.844  68.957  1.00  0.00    -0.267 A  
HETATM   21  C   UNL     1     -10.411  20.042  66.334  1.00  0.00    -0.573 A  
HETATM   22  C   UNL     1      -7.007  19.983  68.786  1.00  0.00    -0.309 A  
HETATM   23  C   UNL     1      -8.510  18.785  67.282  1.00  0.00    -0.283 A  
HETATM   24  C   UNL     1      -9.693  18.852  66.500  1.00  0.00    -0.391 A  
HETATM   25  C   UNL     1      -8.129  19.976  67.951  1.00  0.00    -0.299 A  
HETATM   26  C   UNL     1      -8.859  21.164  67.778  1.00  0.00     0.253 A  
HETATM   27  C   UNL     1      -9.984  21.202  66.961  1.00  0.00     0.421 A  
BRANCH  19  28
HETATM   28  O   UNL     1      -5.778  16.522  68.375  1.00  0.00    -0.115 OA 
BRANCH  28  29
HETATM   29  C   UNL     1      -6.200  15.516  69.296  1.00  0.00    -0.123 C  
HETATM   30  C   UNL     1      -5.252  15.536  70.483  1.00  0.00    -0.141 C  
ENDBRANCH  28  29
ENDBRANCH  19  28
ENDBRANCH  15  18
ENDBRANCH  12  14
TORSDOF 4
ENDMDL
MODEL      177
REMARK 921   NORMALIZED FREE ENERGY PREDICTED BY IDOCK:   -2.10 KCAL/MOL
REMARK 922        TOTAL FREE ENERGY PREDICTED BY IDOCK:   -3.73 KCAL/MOL
REMARK 923 INTER-LIGAND FREE ENERGY PREDICTED BY IDOCK:   -4.61 KCAL/MOL
REMARK 924 INTRA-LIGAND FREE ENERGY PREDICTED BY IDOCK:    0.88 KCAL/MOL
REMARK 927      BINDING AFFINITY PREDICTED BY RF-SCORE:    0.00 PKD
ROOT
HETATM    1  C   UNL     1     -11.123  11.796  67.705  1.00  0.00    -0.243 C  
HETATM    2  S   UNL     1      -9.858  12.013  69.019  1.00  0.00     0.300 SA 
HETATM    3  C   UNL     1      -8.476  12.356  67.832  1.00  0.00    -0.166 C  
HETATM    4  C   UNL     1      -7.468  13.317  68.465  1.00  0.00    -0.115 C  
HETATM    5  CA  UNL     1      -9.167  12.866  66.544  1.00  0.00    -0.182 C  
HETATM    6  C   UNL     1      -7.733  11.027  67.595  1.00  0.00    -0.112 C  
HETATM    7  N   UNL     1     -10.467  12.181  66.444  1.00  0.00    -0.226 N  
HETATM    8  C   UNL     1      -9.434  14.380  66.468  1.00  0.00    -0.289 C  
HETATM    9  OXT UNL     1      -8.595  15.250  66.642  1.00  0.00    -0.262 OA 
HETATM   10  O   UNL     1     -10.705  14.685  66.101  1.00  0.00    -0.299 OA 
HETATM   11  C   UNL     1     -10.502  10.913  65.917  1.00  0.00    -0.221 C  
HETATM   12  CA  UNL     1     -11.327  10.366  67.130  1.00  0.00     0.192 C  
HETATM   13  O   UNL     1      -9.963  10.531  64.907  1.00  0.00    -0.289 OA 
ENDROOT
BRANCH  12  14
HETATM   14  N   UNL     1     -10.792   9.264  67.976  1.00  0.00    -0.467 N  
HETATM   15  C   UNL     1     -10.145   8.150  67.483  1.00  0.00    -0.224 C  
HETATM   16  H   UNL     1     -10.912   9.337  68.986  1.00  0.00     0.000 HD 
HETATM   17  O   UNL     1      -9.940   7.984  66.288  1.00  0.00    -0.188 OA 
BRANCH  15  18
HETATM   18  C   UNL     1      -9.695   7.133  68.492  1.00  0.00    -0.143 A  
HETATM   19  C   UNL     1      -9.411   5.813  68.066  1.00  0.00    -0.109 A  
HETATM   20  C   UNL     1      -8.931   4.887  68.991  1.00  0.00    -0.134 A  
HETATM   21  C   UNL     1      -9.466   9.133  71.730  1.00  0.00    -0.097 A  
HETATM   22  C   UNL     1      -8.698   5.261  70.311  1.00  0.00    -0.134 A  
HETATM   23  C   UNL     1      -9.484   7.526  69.856  1.00  0.00    -0.160 A  
HETATM   24  C   UNL     1      -9.763   8.806  70.402  1.00  0.00    -0.209 A  
HETATM   25  C   UNL     1      -8.951   6.563  70.752  1.00  0.00    -0.144 A  
HETATM   26  C   UNL     1      -8.659   6.903  72.083  1.00  0.00    -0.119 A  
HETATM   27  C   UNL     1      -8.899   8.185  72.566  1.00  0.00    -0.272 A  
BRANCH  19  28
HETATM   28  O   UNL     1      -9.614   5.514  66.740  1.00  0.00    -0.131 OA 
BRANCH  28  29
HETATM   29  C   UNL     1     -10.267   4.283  66.429  1.00  0.00    -0.065 C  
HETATM   30  C   UNL     1     -10.863   4.403  65.037  1.00  0.00    -0.097 C  
ENDBRANCH  28  29
ENDBRANCH  19  28
ENDBRANCH  15  18
ENDBRANCH  12  14
TORSDOF 4
ENDMDL
MODEL      178
REMARK 921   NORMALIZED FREE ENERGY PREDICTED BY IDOCK:   -2.02 KCAL/MOL
REMARK 922        TOTAL FREE ENERGY PREDICTED BY IDOCK:   -3.63 KCAL/MOL
REMARK 923 INTER-LIGAND FREE ENERGY PREDICTED BY IDOCK:   -3.51 KCAL/MOL
REMARK 924 INTRA-LIGAND FREE ENERGY PREDICTED BY IDOCK:   -0.11 KCAL/MOL
REMARK 927      BINDING AFFINITY PREDICTED BY RF-SCORE:    0.00 PKD
ROOT
HETATM    1  C   UNL     1      -8.587  14.844  67.978  1.00  0.00    -0.160 C  
HETATM    2  S   UNL     1      -9.041  14.615  66.212  1.00  0.00    -0.069 SA 
HETATM    3  C   UNL     1     -10.797  15.160  66.444  1.00  0.00    -0.326 C  
HETATM    4  C   UNL     1     -11.305  15.846  65.173  1.00  0.00    -0.118 C  
HETATM    5  CA  UNL     1     -10.783  16.041  67.717  1.00  0.00    -0.323 C  
HETATM    6  C   UNL     1     -11.652  13.892  66.635  1.00  0.00    -0.392 C  
HETATM    7  N   UNL     1      -9.744  15.502  68.611  1.00  0.00    -0.201 N  
HETATM    8  C   UNL     1     -10.483  17.536  67.507  1.00  0.00    -0.355 C  
HETATM    9  OXT UNL     1     -11.071  18.267  66.726  1.00  0.00    -0.009 OA 
HETATM   10  O   UNL     1      -9.531  18.017  68.347  1.00  0.00    -0.287 OA 
HETATM   11  C   UNL     1     -10.055  14.424  69.404  1.00  0.00     0.058 C  
HETATM   12  CA  UNL     1      -8.786  13.635  68.936  1.00  0.00     0.184 C  
HETATM   13  O   UNL     1     -11.040  14.286  70.087  1.00  0.00    -0.120 OA 
ENDROOT
BRANCH  12  14
HETATM   14  N   UNL     1      -8.919  12.314  68.264  1.00  0.00    -0.211 N  
HETATM   15  C   UNL     1      -8.129  11.218  68.542  1.00  0.00    -0.148 C  
HETATM   16  H   UNL     1      -9.641  12.212  67.551  1.00  0.00     0.000 HD 
HETATM   17  O   UNL     1      -7.249  11.240  69.393  1.00  0.00    -0.118 OA 
BRANCH  15  18
HETATM   18  C   UNL     1      -8.399   9.975  67.744  1.00  0.00    -0.114 A  
HETATM   19  C   UNL     1      -8.614   8.750  68.421  1.00  0.00    -0.134 A  
HETATM   20  C   UNL     1      -8.928   7.610  67.683  1.00  0.00    -0.127 A  
HETATM   21  C   UNL     1      -8.485  11.230  64.145  1.00  0.00     0.487 A  
HETATM   22  C   UNL     1      -9.066   7.678  66.300  1.00  0.00    -0.204 A  
HETATM   23  C   UNL     1      -8.512  10.054  66.315  1.00  0.00    -0.134 A  
HETATM   24  C   UNL     1      -8.288  11.216  65.531  1.00  0.00     0.052 A  
HETATM   25  C   UNL     1      -8.879   8.879  65.610  1.00  0.00    -0.230 A  
HETATM   26  C   UNL     1      -9.072   8.906  64.219  1.00  0.00     0.234 A  
HETATM   27  C   UNL     1      -8.893  10.078  63.491  1.00  0.00    -0.251 A  
BRANCH  19  28
HETATM   28  O   UNL     1      -8.511   8.753  69.791  1.00  0.00    -0.121 OA 
BRANCH  28  29
HETATM   29  C   UNL     1      -9.720   8.678  70.549  1.00  0.00    -0.180 C  
HETATM   30  C   UNL     1     -10.039   7.212  70.783  1.00  0.00    -0.197 C  
ENDBRANCH  28  29
ENDBRANCH  19  28
ENDBRANCH  15  18
ENDBRANCH  12  14
TORSDOF 4
ENDMDL
MODEL      179
REMARK 921   NORMALIZED FREE ENERGY PREDICTED BY IDOCK:   -1.88 KCAL/MOL
REMARK 922        TOTAL FREE ENERGY PREDICTED BY IDOCK:   -3.46 KCAL/MOL
REMARK 923 INTER-LIGAND FREE ENERGY PREDICTED BY IDOCK:   -3.59 KCAL/MOL
REMARK 924 INTRA-LIGAND FREE ENERGY PREDICTED BY IDOCK:    0.13 KCAL/MOL
REMARK 927      BINDING AFFINITY PREDICTED BY RF-SCORE:    0.00 PKD
ROOT
HETATM    1  C   UNL     1      -6.725  11.959  67.121  1.00  0.00    -0.142 C  
HETATM    2  S   UNL     1      -8.405  12.026  66.382  1.00  0.00     0.149 SA 
HETATM    3  C   UNL     1      -9.049  13.263  67.603  1.00  0.00    -0.204 C  
HETATM    4  C   UNL     1     -10.100  14.156  66.940  1.00  0.00    -0.258 C  
HETATM    5  CA  UNL     1      -7.794  13.994  68.139  1.00  0.00    -0.144 C  
HETATM    6  C   UNL     1      -9.773  12.479  68.715  1.00  0.00     0.045 C  
HETATM    7  N   UNL     1      -6.688  13.020  68.141  1.00  0.00    -0.089 N  
HETATM    8  C   UNL     1      -7.327  15.222  67.337  1.00  0.00    -0.210 C  
HETATM    9  OXT UNL     1      -8.034  16.169  67.030  1.00  0.00    -0.174 OA 
HETATM   10  O   UNL     1      -5.999  15.209  67.056  1.00  0.00    -0.174 OA 
HETATM   11  C   UNL     1      -6.585  12.147  69.197  1.00  0.00    -0.106 C  
HETATM   12  CA  UNL     1      -6.472  10.911  68.242  1.00  0.00    -0.057 C  
HETATM   13  O   UNL     1      -6.659  12.416  70.371  1.00  0.00     0.074 OA 
ENDROOT
BRANCH  12  14
HETATM   14  N   UNL     1      -7.468   9.807  68.309  1.00  0.00    -0.080 N  
HETATM   15  C   UNL     1      -7.720   9.055  69.438  1.00  0.00    -0.083 C  
HETATM   16  H   UNL     1      -7.999   9.591  67.465  1.00  0.00     0.000 HD 
HETATM   17  O   UNL     1      -7.146   9.252  70.501  1.00  0.00    -0.074 OA 
BRANCH  15  18
HETATM   18  C   UNL     1      -8.747   7.968  69.305  1.00  0.00    -0.137 A  
HETATM   19  C   UNL     1      -9.614   7.967  68.185  1.00  0.00    -0.152 A  
HETATM   20  C   UNL     1     -10.524   6.922  68.029  1.00  0.00    -0.255 A  
HETATM   21  C   UNL     1      -8.049   5.712  72.298  1.00  0.00    -0.108 A  
HETATM   22  C   UNL     1     -10.558   5.871  68.941  1.00  0.00    -0.357 A  
HETATM   23  C   UNL     1      -8.790   6.904  70.268  1.00  0.00    -0.148 A  
HETATM   24  C   UNL     1      -7.996   6.818  71.441  1.00  0.00    -0.109 A  
HETATM   25  C   UNL     1      -9.700   5.839  70.043  1.00  0.00    -0.218 A  
HETATM   26  C   UNL     1      -9.744   4.736  70.911  1.00  0.00    -0.260 A  
HETATM   27  C   UNL     1      -8.912   4.663  72.024  1.00  0.00    -0.147 A  
BRANCH  19  28
HETATM   28  O   UNL     1      -9.501   9.005  67.292  1.00  0.00    -0.142 OA 
BRANCH  28  29
HETATM   29  C   UNL     1     -10.042   8.818  65.983  1.00  0.00     0.039 C  
HETATM   30  C   UNL     1      -8.897   8.481  65.044  1.00  0.00    -0.074 C  
ENDBRANCH  28  29
ENDBRANCH  19  28
ENDBRANCH  15  18
ENDBRANCH  12  14
TORSDOF 4
ENDMDL
MODEL      180
REMARK 921   NORMALIZED FREE ENERGY PREDICTED BY IDOCK:   -1.57 KCAL/MOL
REMARK 922        TOTAL FREE ENERGY PREDICTED BY IDOCK:   -3.07 KCAL/MOL
REMARK 923 INTER-LIGAND FREE ENERGY PREDICTED BY IDOCK:   -4.46 KCAL/MOL
REMARK 924 INTRA-LIGAND FREE ENERGY PREDICTED BY IDOCK:    1.38 KCAL/MOL
REMARK 927      BINDING AFFINITY PREDICTED BY RF-SCORE:    0.00 PKD
ROOT
HETATM    1  C   UNL     1     -12.528  14.407  68.766  1.00  0.00     0.136 C  
HETATM    2  S   UNL     1     -11.714  13.927  67.191  1.00  0.00    -0.411 SA 
HETATM    3  C   UNL     1     -10.369  12.955  68.016  1.00  0.00    -0.227 C  
HETATM    4  C   UNL     1      -9.941  11.788  67.122  1.00  0.00    -0.221 C  
HETATM    5  CA  UNL     1     -10.944  12.560  69.398  1.00  0.00     0.007 C  
HETATM    6  C   UNL     1      -9.145  13.882  68.148  1.00  0.00    -0.193 C  
HETATM    7  N   UNL     1     -11.842  13.647  69.825  1.00  0.00    -0.312 N  
HETATM    8  C   UNL     1     -11.747  11.248  69.452  1.00  0.00    -0.339 C  
HETATM    9  OXT UNL     1     -11.351  10.166  69.049  1.00  0.00    -0.211 OA 
HETATM   10  O   UNL     1     -12.944  11.376  70.081  1.00  0.00     0.038 OA 
HETATM   11  C   UNL     1     -11.291  14.761  70.412  1.00  0.00    -0.217 C  
HETATM   12  CA  UNL     1     -12.060  15.725  69.447  1.00  0.00    -0.227 C  
HETATM   13  O   UNL     1     -10.466  14.784  71.292  1.00  0.00     0.490 OA 
ENDROOT
BRANCH  12  14
HETATM   14  N   UNL     1     -11.317  16.662  68.560  1.00  0.00    -0.252 N  
HETATM   15  C   UNL     1     -10.003  17.037  68.753  1.00  0.00    -0.293 C  
HETATM   16  H   UNL     1     -11.812  17.054  67.759  1.00  0.00     0.000 HD 
HETATM   17  O   UNL     1      -9.325  16.606  69.676  1.00  0.00     0.033 OA 
BRANCH  15  18
HETATM   18  C   UNL     1      -9.431  18.011  67.764  1.00  0.00    -0.264 A  
HETATM   19  C   UNL     1     -10.052  18.160  66.500  1.00  0.00    -0.386 A  
HETATM   20  C   UNL     1      -9.559  19.111  65.606  1.00  0.00     0.410 A  
HETATM   21  C   UNL     1      -6.559  19.635  69.673  1.00  0.00    -0.365 A  
HETATM   22  C   UNL     1      -8.494  19.932  65.963  1.00  0.00    -0.291 A  
HETATM   23  C   UNL     1      -8.315  18.833  68.135  1.00  0.00    -0.334 A  
HETATM   24  C   UNL     1      -7.596  18.751  69.356  1.00  0.00     0.046 A  
HETATM   25  C   UNL     1      -7.878  19.818  67.212  1.00  0.00    -0.309 A  
HETATM   26  C   UNL     1      -6.834  20.699  67.542  1.00  0.00    -0.389 A  
HETATM   27  C   UNL     1      -6.189  20.621  68.771  1.00  0.00    -0.327 A  
BRANCH  19  28
HETATM   28  O   UNL     1     -11.130  17.355  66.221  1.00  0.00     0.136 OA 
BRANCH  28  29
HETATM   29  C   UNL     1     -11.212  16.780  64.916  1.00  0.00     0.022 C  
HETATM   30  C   UNL     1     -10.364  15.520  64.902  1.00  0.00    -0.208 C  
ENDBRANCH  28  29
ENDBRANCH  19  28
ENDBRANCH  15  18
ENDBRANCH  12  14
TORSDOF 4
ENDMDL
MODEL      181
REMARK 921   NORMALIZED FREE ENERGY PREDICTED BY IDOCK:   -1.13 KCAL/MOL
REMARK 922        TOTAL FREE ENERGY PREDICTED BY IDOCK:   -2.53 KCAL/MOL
REMARK 923 INTER-LIGAND FREE ENERGY PREDICTED BY IDOCK:   -3.39 KCAL/MOL
REMARK 924 INTRA-LIGAND FREE ENERGY PREDICTED BY IDOCK:    0.86 KCAL/MOL
REMARK 927      BINDING AFFINITY PREDICTED BY RF-SCORE:    0.00 PKD
ROOT
HETATM    1  C   UNL     1      -8.476   6.266  68.681  1.00  0.00    -0.122 C  
HETATM    2  S   UNL     1      -8.602   6.941  66.977  1.00  0.00    -0.124 SA 
HETATM    3  C   UNL     1      -6.777   7.211  66.796  1.00  0.00    -0.060 C  
HETATM    4  C   UNL     1      -6.363   7.029  65.334  1.00  0.00    -0.040 C  
HETATM    5  CA  UNL     1      -6.121   6.235  67.802  1.00  0.00    -0.020 C  
HETATM    6  C   UNL     1      -6.492   8.682  67.157  1.00  0.00    -0.058 C  
HETATM    7  N   UNL     1      -7.036   6.108  68.949  1.00  0.00    -0.079 N  
HETATM    8  C   UNL     1      -5.830   4.815  67.282  1.00  0.00    -0.022 C  
HETATM    9  OXT UNL     1      -5.207   4.554  66.266  1.00  0.00    -0.008 OA 
HETATM   10  O   UNL     1      -6.269   3.837  68.116  1.00  0.00    -0.031 OA 
HETATM   11  C   UNL     1      -7.005   7.075  69.924  1.00  0.00    -0.062 C  
HETATM   12  CA  UNL     1      -8.557   7.273  69.863  1.00  0.00    -0.141 C  
HETATM   13  O   UNL     1      -6.026   7.534  70.460  1.00  0.00    -0.030 OA 
ENDROOT
BRANCH  12  14
HETATM   14  N   UNL     1      -9.140   8.600  69.522  1.00  0.00    -0.145 N  
HETATM   15  C   UNL     1     -10.448   8.796  69.129  1.00  0.00    -0.217 C  
HETATM   16  H   UNL     1      -8.533   9.417  69.582  1.00  0.00     0.000 HD 
HETATM   17  O   UNL     1     -11.253   7.878  69.045  1.00  0.00     0.141 OA 
BRANCH  15  18
HETATM   18  C   UNL     1     -10.847  10.206  68.805  1.00  0.00    -0.259 A  
HETATM   19  C   UNL     1     -10.659  10.694  67.489  1.00  0.00    -0.252 A  
HETATM   20  C   UNL     1     -11.088  11.982  67.171  1.00  0.00    -0.344 A  
HETATM   21  C   UNL     1     -12.386  11.467  72.056  1.00  0.00     0.575 A  
HETATM   22  C   UNL     1     -11.730  12.769  68.123  1.00  0.00    -0.392 A  
HETATM   23  C   UNL     1     -11.484  11.016  69.804  1.00  0.00    -0.387 A  
HETATM   24  C   UNL     1     -11.696  10.646  71.158  1.00  0.00    -0.248 A  
HETATM   25  C   UNL     1     -11.946  12.302  69.423  1.00  0.00    -0.318 A  
HETATM   26  C   UNL     1     -12.637  13.118  70.335  1.00  0.00    -0.186 A  
HETATM   27  C   UNL     1     -12.871  12.697  71.640  1.00  0.00    -0.367 A  
BRANCH  19  28
HETATM   28  O   UNL     1     -10.063   9.855  66.578  1.00  0.00    -0.214 OA 
BRANCH  28  29
HETATM   29  C   UNL     1      -8.697  10.102  66.240  1.00  0.00    -0.141 C  
HETATM   30  C   UNL     1      -8.644  11.348  65.373  1.00  0.00     0.155 C  
ENDBRANCH  28  29
ENDBRANCH  19  28
ENDBRANCH  15  18
ENDBRANCH  12  14
TORSDOF 4
ENDMDL
MODEL      182
REMARK 921   NORMALIZED FREE ENERGY PREDICTED BY IDOCK:   -1.12 KCAL/MOL
REMARK 922        TOTAL FREE ENERGY PREDICTED BY IDOCK:   -2.52 KCAL/MOL
REMARK 923 INTER-LIGAND FREE ENERGY PREDICTED BY IDOCK:   -2.88 KCAL/MOL
REMARK 924 INTRA-LIGAND FREE ENERGY PREDICTED BY IDOCK:    0.36 KCAL/MOL
REMARK 927      BINDING AFFINITY PREDICTED BY RF-SCORE:    0.00 PKD
ROOT
HETATM    1  C   UNL     1      -9.213   9.448  69.667  1.00  0.00    -0.185 C  
HETATM    2  S   UNL     1     -10.457   9.582  68.321  1.00  0.00    -0.219 SA 
HETATM    3  C   UNL     1      -9.392   8.740  67.059  1.00  0.00    -0.157 C  
HETATM    4  C   UNL     1     -10.266   7.967  66.068  1.00  0.00     0.564 C  
HETATM    5  CA  UNL     1      -8.394   7.885  67.876  1.00  0.00    -0.126 C  
HETATM    6  C   UNL     1      -8.676   9.841  66.252  1.00  0.00    -0.152 C  
HETATM    7  N   UNL     1      -8.130   8.604  69.135  1.00  0.00    -0.114 N  
HETATM    8  C   UNL     1      -8.857   6.463  68.244  1.00  0.00    -0.115 C  
HETATM    9  OXT UNL     1      -9.277   5.635  67.451  1.00  0.00    -0.111 OA 
HETATM   10  O   UNL     1      -8.681   6.162  69.556  1.00  0.00    -0.128 OA 
HETATM   11  C   UNL     1      -7.202   9.617  69.129  1.00  0.00    -0.068 C  
HETATM   12  CA  UNL     1      -8.192  10.611  69.823  1.00  0.00     0.187 C  
HETATM   13  O   UNL     1      -6.097   9.586  68.645  1.00  0.00    -0.043 OA 
ENDROOT
BRANCH  12  14
HETATM   14  N   UNL     1      -8.581  11.884  69.156  1.00  0.00    -0.274 N  
HETATM   15  C   UNL     1      -7.686  12.767  68.587  1.00  0.00    -0.064 C  
HETATM   16  H   UNL     1      -9.573  12.119  69.118  1.00  0.00     0.000 HD 
HETATM   17  O   UNL     1      -6.480  12.561  68.570  1.00  0.00    -0.064 OA 
BRANCH  15  18
HETATM   18  C   UNL     1      -8.266  14.012  67.979  1.00  0.00    -0.155 A  
HETATM   19  C   UNL     1      -9.668  14.210  68.012  1.00  0.00    -0.226 A  
HETATM   20  C   UNL     1     -10.201  15.395  67.506  1.00  0.00    -0.244 A  
HETATM   21  C   UNL     1      -5.195  15.970  66.856  1.00  0.00     0.415 A  
HETATM   22  C   UNL     1      -9.365  16.390  67.006  1.00  0.00    -0.241 A  
HETATM   23  C   UNL     1      -7.395  15.018  67.443  1.00  0.00    -0.231 A  
HETATM   24  C   UNL     1      -5.984  14.915  67.329  1.00  0.00     0.394 A  
HETATM   25  C   UNL     1      -7.978  16.226  66.982  1.00  0.00    -0.248 A  
HETATM   26  C   UNL     1      -7.174  17.277  66.507  1.00  0.00    -0.305 A  
HETATM   27  C   UNL     1      -5.789  17.157  66.460  1.00  0.00    -0.215 A  
BRANCH  19  28
HETATM   28  O   UNL     1     -10.440  13.214  68.561  1.00  0.00    -0.249 OA 
BRANCH  28  29
HETATM   29  C   UNL     1     -11.749  13.560  69.014  1.00  0.00    -0.327 C  
HETATM   30  C   UNL     1     -11.709  13.682  70.527  1.00  0.00    -0.175 C  
ENDBRANCH  28  29
ENDBRANCH  19  28
ENDBRANCH  15  18
ENDBRANCH  12  14
TORSDOF 4
ENDMDL
MODEL      183
REMARK 921   NORMALIZED FREE ENERGY PREDICTED BY IDOCK:   -1.10 KCAL/MOL
REMARK 922        TOTAL FREE ENERGY PREDICTED BY IDOCK:   -2.50 KCAL/MOL
REMARK 923 INTER-LIGAND FREE ENERGY PREDICTED BY IDOCK:   -3.38 KCAL/MOL
REMARK 924 INTRA-LIGAND FREE ENERGY PREDICTED BY IDOCK:    0.89 KCAL/MOL
REMARK 927      BINDING AFFINITY PREDICTED BY RF-SCORE:    0.00 PKD
ROOT
HETATM    1  C   UNL     1      -6.347  12.398  67.279  1.00  0.00    -0.142 C  
HETATM    2  S   UNL     1      -7.992  11.927  66.611  1.00  0.00     0.042 SA 
HETATM    3  C   UNL     1      -8.942  12.801  67.941  1.00  0.00    -0.186 C  
HETATM    4  C   UNL     1     -10.271  13.316  67.384  1.00  0.00    -0.229 C  
HETATM    5  CA  UNL     1      -7.979  13.887  68.480  1.00  0.00    -0.137 C  
HETATM    6  C   UNL     1      -9.289  11.757  69.021  1.00  0.00     0.194 C  
HETATM    7  N   UNL     1      -6.611  13.351  68.371  1.00  0.00    -0.084 N  
HETATM    8  C   UNL     1      -8.005  15.243  67.751  1.00  0.00    -0.146 C  
HETATM    9  OXT UNL     1      -9.008  15.906  67.539  1.00  0.00    -0.190 OA 
HETATM   10  O   UNL     1      -6.770  15.699  67.419  1.00  0.00    -0.175 OA 
HETATM   11  C   UNL     1      -6.155  12.510  69.356  1.00  0.00    -0.108 C  
HETATM   12  CA  UNL     1      -5.687  11.441  68.313  1.00  0.00    -0.045 C  
HETATM   13  O   UNL     1      -6.245  12.673  70.549  1.00  0.00    -0.126 OA 
ENDROOT
BRANCH  12  14
HETATM   14  N   UNL     1      -6.244  10.061  68.338  1.00  0.00    -0.049 N  
HETATM   15  C   UNL     1      -7.062   9.571  69.336  1.00  0.00    -0.055 C  
HETATM   16  H   UNL     1      -6.006   9.436  67.568  1.00  0.00     0.000 HD 
HETATM   17  O   UNL     1      -7.415  10.252  70.290  1.00  0.00    -0.208 OA 
BRANCH  15  18
HETATM   18  C   UNL     1      -7.507   8.144  69.198  1.00  0.00    -0.087 A  
HETATM   19  C   UNL     1      -6.816   7.131  69.907  1.00  0.00    -0.056 A  
HETATM   20  C   UNL     1      -7.270   5.815  69.830  1.00  0.00    -0.069 A  
HETATM   21  C   UNL     1     -10.583   8.382  66.959  1.00  0.00    -0.316 A  
HETATM   22  C   UNL     1      -8.410   5.501  69.097  1.00  0.00    -0.098 A  
HETATM   23  C   UNL     1      -8.669   7.830  68.417  1.00  0.00    -0.127 A  
HETATM   24  C   UNL     1      -9.419   8.753  67.642  1.00  0.00    -0.168 A  
HETATM   25  C   UNL     1      -9.121   6.485  68.405  1.00  0.00    -0.123 A  
HETATM   26  C   UNL     1     -10.290   6.125  67.714  1.00  0.00    -0.247 A  
HETATM   27  C   UNL     1     -11.027   7.071  67.008  1.00  0.00    -0.357 A  
BRANCH  19  28
HETATM   28  O   UNL     1      -5.725   7.508  70.654  1.00  0.00    -0.027 OA 
BRANCH  28  29
HETATM   29  C   UNL     1      -5.159   6.540  71.538  1.00  0.00    -0.026 C  
HETATM   30  C   UNL     1      -5.654   6.838  72.943  1.00  0.00    -0.038 C  
ENDBRANCH  28  29
ENDBRANCH  19  28
ENDBRANCH  15  18
ENDBRANCH  12  14
TORSDOF 4
ENDMDL
MODEL      184
REMARK 921   NORMALIZED FREE ENERGY PREDICTED BY IDOCK:   -1.05 KCAL/MOL
REMARK 922        TOTAL FREE ENERGY PREDICTED BY IDOCK:   -2.43 KCAL/MOL
REMARK 923 INTER-LIGAND FREE ENERGY PREDICTED BY IDOCK:   -3.55 KCAL/MOL
REMARK 924 INTRA-LIGAND FREE ENERGY PREDICTED BY IDOCK:    1.12 KCAL/MOL
REMARK 927      BINDING AFFINITY PREDICTED BY RF-SCORE:    0.00 PKD
ROOT
HETATM    1  C   UNL     1      -7.487   3.627  66.606  1.00  0.00    -0.076 C  
HETATM    2  S   UNL     1      -9.293   3.301  66.670  1.00  0.00    -0.091 SA 
HETATM    3  C   UNL     1      -9.712   4.559  65.375  1.00  0.00    -0.187 C  
HETATM    4  C   UNL     1     -10.941   4.106  64.583  1.00  0.00    -0.058 C  
HETATM    5  CA  UNL     1      -8.415   4.737  64.550  1.00  0.00    -0.140 C  
HETATM    6  C   UNL     1     -10.110   5.856  66.105  1.00  0.00    -0.016 C  
HETATM    7  N   UNL     1      -7.281   4.541  65.469  1.00  0.00    -0.067 N  
HETATM    8  C   UNL     1      -8.223   3.773  63.365  1.00  0.00    -0.089 C  
HETATM    9  OXT UNL     1      -9.038   3.581  62.477  1.00  0.00    -0.088 OA 
HETATM   10  O   UNL     1      -6.997   3.189  63.340  1.00  0.00    -0.041 OA 
HETATM   11  C   UNL     1      -6.883   5.595  66.255  1.00  0.00    -0.059 C  
HETATM   12  CA  UNL     1      -6.917   4.721  67.553  1.00  0.00    -0.061 C  
HETATM   13  O   UNL     1      -6.699   6.735  65.902  1.00  0.00    -0.049 OA 
ENDROOT
BRANCH  12  14
HETATM   14  N   UNL     1      -7.801   5.089  68.693  1.00  0.00    -0.078 N  
HETATM   15  C   UNL     1      -8.271   4.194  69.632  1.00  0.00    -0.058 C  
HETATM   16  H   UNL     1      -8.077   6.067  68.786  1.00  0.00     0.000 HD 
HETATM   17  O   UNL     1      -7.979   3.006  69.612  1.00  0.00    -0.046 OA 
BRANCH  15  18
HETATM   18  C   UNL     1      -9.170   4.751  70.698  1.00  0.00    -0.191 A  
HETATM   19  C   UNL     1      -9.376   6.150  70.770  1.00  0.00    -0.158 A  
HETATM   20  C   UNL     1     -10.261   6.661  71.719  1.00  0.00    -0.206 A  
HETATM   21  C   UNL     1     -10.487   1.640  72.465  1.00  0.00    -0.229 A  
HETATM   22  C   UNL     1     -10.964   5.806  72.562  1.00  0.00    -0.309 A  
HETATM   23  C   UNL     1      -9.869   3.860  71.580  1.00  0.00    -0.247 A  
HETATM   24  C   UNL     1      -9.718   2.449  71.620  1.00  0.00    -0.222 A  
HETATM   25  C   UNL     1     -10.794   4.421  72.498  1.00  0.00    -0.105 A  
HETATM   26  C   UNL     1     -11.559   3.598  73.341  1.00  0.00    -0.060 A  
HETATM   27  C   UNL     1     -11.420   2.214  73.315  1.00  0.00    -0.200 A  
BRANCH  19  28
HETATM   28  O   UNL     1      -8.691   6.941  69.879  1.00  0.00    -0.140 OA 
BRANCH  28  29
HETATM   29  C   UNL     1      -9.453   7.794  69.024  1.00  0.00    -0.150 C  
HETATM   30  C   UNL     1      -8.500   8.449  68.039  1.00  0.00    -0.132 C  
ENDBRANCH  28  29
ENDBRANCH  19  28
ENDBRANCH  15  18
ENDBRANCH  12  14
TORSDOF 4
ENDMDL
MODEL      185
REMARK 921   NORMALIZED FREE ENERGY PREDICTED BY IDOCK:   -0.42 KCAL/MOL
REMARK 922        TOTAL FREE ENERGY PREDICTED BY IDOCK:   -1.66 KCAL/MOL
REMARK 923 INTER-LIGAND FREE ENERGY PREDICTED BY IDOCK:   -0.66 KCAL/MOL
REMARK 924 INTRA-LIGAND FREE ENERGY PREDICTED BY IDOCK:   -1.00 KCAL/MOL
REMARK 927      BINDING AFFINITY PREDICTED BY RF-SCORE:    0.00 PKD
ROOT
HETATM    1  C   UNL     1      -7.862  13.232  68.790  1.00  0.00     0.008 C  
HETATM    2  S   UNL     1      -6.987  13.896  67.317  1.00  0.00     0.340 SA 
HETATM    3  C   UNL     1      -8.388  14.994  66.801  1.00  0.00    -0.154 C  
HETATM    4  C   UNL     1      -7.844  16.251  66.117  1.00  0.00     0.045 C  
HETATM    5  CA  UNL     1      -9.208  15.237  68.091  1.00  0.00    -0.183 C  
HETATM    6  C   UNL     1      -9.203  14.230  65.739  1.00  0.00     0.187 C  
HETATM    7  N   UNL     1      -9.100  14.021  68.914  1.00  0.00    -0.030 N  
HETATM    8  C   UNL     1      -8.768  16.427  68.963  1.00  0.00    -0.233 C  
HETATM    9  OXT UNL     1      -8.618  17.571  68.565  1.00  0.00    -0.268 OA 
HETATM   10  O   UNL     1      -8.633  16.111  70.276  1.00  0.00     1.000 OA 
HETATM   11  C   UNL     1      -9.927  12.961  68.632  1.00  0.00    -0.092 C  
HETATM   12  CA  UNL     1      -8.728  11.955  68.598  1.00  0.00    -0.033 C  
HETATM   13  O   UNL     1     -11.118  13.002  68.436  1.00  0.00    -0.236 OA 
ENDROOT
BRANCH  12  14
HETATM   14  N   UNL     1      -8.431  11.170  67.368  1.00  0.00    -0.132 N  
HETATM   15  C   UNL     1      -9.169  10.087  66.940  1.00  0.00    -0.147 C  
HETATM   16  H   UNL     1      -7.628  11.452  66.805  1.00  0.00     0.000 HD 
HETATM   17  O   UNL     1     -10.158   9.687  67.540  1.00  0.00    -0.173 OA 
BRANCH  15  18
HETATM   18  C   UNL     1      -8.701   9.408  65.686  1.00  0.00    -0.179 A  
HETATM   19  C   UNL     1      -9.286   9.763  64.446  1.00  0.00    -0.215 A  
HETATM   20  C   UNL     1      -8.807   9.180  63.274  1.00  0.00    -0.095 A  
HETATM   21  C   UNL     1      -5.882   7.145  66.896  1.00  0.00    -0.026 A  
HETATM   22  C   UNL     1      -7.741   8.286  63.313  1.00  0.00    -0.142 A  
HETATM   23  C   UNL     1      -7.618   8.468  65.743  1.00  0.00    -0.085 A  
HETATM   24  C   UNL     1      -6.978   8.014  66.927  1.00  0.00    -0.074 A  
HETATM   25  C   UNL     1      -7.132   7.935  64.521  1.00  0.00    -0.073 A  
HETATM   26  C   UNL     1      -6.032   7.062  64.504  1.00  0.00    -0.037 A  
HETATM   27  C   UNL     1      -5.398   6.682  65.683  1.00  0.00    -0.018 A  
BRANCH  19  28
HETATM   28  O   UNL     1     -10.304  10.687  64.464  1.00  0.00    -0.355 OA 
BRANCH  28  29
HETATM   29  C   UNL     1     -11.158  10.757  63.322  1.00  0.00     0.869 C  
HETATM   30  C   UNL     1     -12.379  11.579  63.696  1.00  0.00    -0.132 C  
ENDBRANCH  28  29
ENDBRANCH  19  28
ENDBRANCH  15  18
ENDBRANCH  12  14
TORSDOF 4
ENDMDL
MODEL      186
REMARK 921   NORMALIZED FREE ENERGY PREDICTED BY IDOCK:   -0.07 KCAL/MOL
REMARK 922        TOTAL FREE ENERGY PREDICTED BY IDOCK:   -1.23 KCAL/MOL
REMARK 923 INTER-LIGAND FREE ENERGY PREDICTED BY IDOCK:   -4.02 KCAL/MOL
REMARK 924 INTRA-LIGAND FREE ENERGY PREDICTED BY IDOCK:    2.79 KCAL/MOL
REMARK 927      BINDING AFFINITY PREDICTED BY RF-SCORE:    0.00 PKD
ROOT
HETATM    1  C   UNL     1     -10.678  13.865  69.100  1.00  0.00    -0.147 C  
HETATM    2  S   UNL     1      -8.912  14.366  69.031  1.00  0.00     0.091 SA 
HETATM    3  C   UNL     1      -9.095  15.318  67.451  1.00  0.00    -0.192 C  
HETATM    4  C   UNL     1      -8.119  16.496  67.433  1.00  0.00    -0.172 C  
HETATM    5  CA  UNL     1     -10.596  15.693  67.376  1.00  0.00    -0.301 C  
HETATM    6  C   UNL     1      -8.681  14.382  66.299  1.00  0.00     0.221 C  
HETATM    7  N   UNL     1     -11.351  14.604  68.019  1.00  0.00    -0.296 N  
HETATM    8  C   UNL     1     -11.004  17.008  68.064  1.00  0.00    -0.252 C  
HETATM    9  OXT UNL     1     -10.483  18.094  67.866  1.00  0.00    -0.380 OA 
HETATM   10  O   UNL     1     -12.082  16.877  68.879  1.00  0.00     0.587 OA 
HETATM   11  C   UNL     1     -11.633  13.478  67.284  1.00  0.00    -0.362 C  
HETATM   12  CA  UNL     1     -11.077  12.534  68.402  1.00  0.00    -0.258 C  
HETATM   13  O   UNL     1     -12.077  13.436  66.162  1.00  0.00    -0.399 OA 
ENDROOT
BRANCH  12  14
HETATM   14  N   UNL     1      -9.947  11.607  68.119  1.00  0.00    -0.189 N  
HETATM   15  C   UNL     1      -9.244  11.577  66.933  1.00  0.00    -0.176 C  
HETATM   16  H   UNL     1      -9.675  10.950  68.851  1.00  0.00     0.000 HD 
HETATM   17  O   UNL     1      -9.487  12.338  66.006  1.00  0.00    -0.239 OA 
BRANCH  15  18
HETATM   18  C   UNL     1      -8.149  10.556  66.826  1.00  0.00    -0.123 A  
HETATM   19  C   UNL     1      -8.011   9.811  65.630  1.00  0.00    -0.117 A  
HETATM   20  C   UNL     1      -6.955   8.908  65.507  1.00  0.00    -0.080 A  
HETATM   21  C   UNL     1      -6.277  10.908  70.128  1.00  0.00    -0.142 A  
HETATM   22  C   UNL     1      -6.024   8.765  66.531  1.00  0.00    -0.052 A  
HETATM   23  C   UNL     1      -7.211  10.398  67.901  1.00  0.00    -0.085 A  
HETATM   24  C   UNL     1      -7.269  11.064  69.153  1.00  0.00    -0.121 A  
HETATM   25  C   UNL     1      -6.127   9.503  67.714  1.00  0.00    -0.052 A  
HETATM   26  C   UNL     1      -5.139   9.354  68.700  1.00  0.00    -0.034 A  
HETATM   27  C   UNL     1      -5.202  10.064  69.895  1.00  0.00    -0.037 A  
BRANCH  19  28
HETATM   28  O   UNL     1      -8.932  10.030  64.633  1.00  0.00    -0.178 OA 
BRANCH  28  29
HETATM   29  C   UNL     1      -8.466  10.019  63.283  1.00  0.00    -0.183 C  
HETATM   30  C   UNL     1      -9.095  11.197  62.558  1.00  0.00    -0.347 C  
ENDBRANCH  28  29
ENDBRANCH  19  28
ENDBRANCH  15  18
ENDBRANCH  12  14
TORSDOF 4
ENDMDL
MODEL      187
REMARK 921   NORMALIZED FREE ENERGY PREDICTED BY IDOCK:    0.12 KCAL/MOL
REMARK 922        TOTAL FREE ENERGY PREDICTED BY IDOCK:   -0.99 KCAL/MOL
REMARK 923 INTER-LIGAND FREE ENERGY PREDICTED BY IDOCK:   -1.92 KCAL/MOL
REMARK 924 INTRA-LIGAND FREE ENERGY PREDICTED BY IDOCK:    0.93 KCAL/MOL
REMARK 927      BINDING AFFINITY PREDICTED BY RF-SCORE:    0.00 PKD
ROOT
HETATM    1  C   UNL     1      -9.619   5.918  70.334  1.00  0.00    -0.168 C  
HETATM    2  S   UNL     1      -7.858   6.437  70.397  1.00  0.00    -0.108 SA 
HETATM    3  C   UNL     1      -8.246   8.245  70.527  1.00  0.00    -0.114 C  
HETATM    4  C   UNL     1      -7.170   8.954  71.352  1.00  0.00    -0.097 C  
HETATM    5  CA  UNL     1      -9.681   8.310  71.106  1.00  0.00    -0.165 C  
HETATM    6  C   UNL     1      -8.175   8.835  69.105  1.00  0.00    -0.119 C  
HETATM    7  N   UNL     1     -10.409   7.132  70.605  1.00  0.00    -0.203 N  
HETATM    8  C   UNL     1      -9.797   8.307  72.641  1.00  0.00    -0.287 C  
HETATM    9  OXT UNL     1      -9.210   9.072  73.390  1.00  0.00     0.314 OA 
HETATM   10  O   UNL     1     -10.698   7.407  73.111  1.00  0.00    -0.323 OA 
HETATM   11  C   UNL     1     -10.954   7.184  69.345  1.00  0.00    -0.164 C  
HETATM   12  CA  UNL     1     -10.293   5.824  68.936  1.00  0.00    -0.227 C  
HETATM   13  O   UNL     1     -11.614   8.079  68.876  1.00  0.00     0.719 OA 
ENDROOT
BRANCH  12  14
HETATM   14  N   UNL     1      -9.351   5.754  67.786  1.00  0.00    -0.105 N  
HETATM   15  C   UNL     1      -8.741   4.595  67.351  1.00  0.00    -0.104 C  
HETATM   16  H   UNL     1      -9.143   6.619  67.286  1.00  0.00     0.000 HD 
HETATM   17  O   UNL     1      -8.943   3.509  67.877  1.00  0.00    -0.113 OA 
BRANCH  15  18
HETATM   18  C   UNL     1      -7.803   4.727  66.186  1.00  0.00    -0.099 A  
HETATM   19  C   UNL     1      -7.868   3.781  65.134  1.00  0.00    -0.086 A  
HETATM   20  C   UNL     1      -7.042   3.940  64.022  1.00  0.00    -0.050 A  
HETATM   21  C   UNL     1      -5.889   7.936  66.940  1.00  0.00    -0.044 A  
HETATM   22  C   UNL     1      -6.188   5.034  63.926  1.00  0.00    -0.022 A  
HETATM   23  C   UNL     1      -6.908   5.846  66.112  1.00  0.00    -0.061 A  
HETATM   24  C   UNL     1      -6.735   6.835  67.116  1.00  0.00    -0.059 A  
HETATM   25  C   UNL     1      -6.120   5.993  64.941  1.00  0.00    -0.026 A  
HETATM   26  C   UNL     1      -5.274   7.102  64.778  1.00  0.00    -0.028 A  
HETATM   27  C   UNL     1      -5.170   8.078  65.764  1.00  0.00    -0.028 A  
BRANCH  19  28
HETATM   28  O   UNL     1      -8.765   2.747  65.262  1.00  0.00    -0.106 OA 
BRANCH  28  29
HETATM   29  C   UNL     1     -10.010   2.858  64.571  1.00  0.00    -0.020 C  
HETATM   30  C   UNL     1     -10.185   4.304  64.142  1.00  0.00    -0.027 C  
ENDBRANCH  28  29
ENDBRANCH  19  28
ENDBRANCH  15  18
ENDBRANCH  12  14
TORSDOF 4
ENDMDL
MODEL      188
REMARK 921   NORMALIZED FREE ENERGY PREDICTED BY IDOCK:    0.40 KCAL/MOL
REMARK 922        TOTAL FREE ENERGY PREDICTED BY IDOCK:   -0.64 KCAL/MOL
REMARK 923 INTER-LIGAND FREE ENERGY PREDICTED BY IDOCK:   -1.69 KCAL/MOL
REMARK 924 INTRA-LIGAND FREE ENERGY PREDICTED BY IDOCK:    1.04 KCAL/MOL
REMARK 927      BINDING AFFINITY PREDICTED BY RF-SCORE:    0.00 PKD
ROOT
HETATM    1  C   UNL     1      -9.489  13.461  68.506  1.00  0.00    -0.121 C  
HETATM    2  S   UNL     1     -10.970  14.186  67.695  1.00  0.00    -0.274 SA 
HETATM    3  C   UNL     1     -10.360  13.870  65.974  1.00  0.00    -0.305 C  
HETATM    4  C   UNL     1     -11.542  13.604  65.039  1.00  0.00    -0.345 C  
HETATM    5  CA  UNL     1      -9.344  12.710  66.111  1.00  0.00    -0.112 C  
HETATM    6  C   UNL     1      -9.687  15.165  65.479  1.00  0.00    -0.303 C  
HETATM    7  N   UNL     1      -8.696  12.849  67.426  1.00  0.00    -0.187 N  
HETATM    8  C   UNL     1      -9.922  11.285  66.028  1.00  0.00    -0.231 C  
HETATM    9  OXT UNL     1     -10.631  10.867  65.127  1.00  0.00    -0.269 OA 
HETATM   10  O   UNL     1      -9.500  10.474  67.033  1.00  0.00    -0.160 OA 
HETATM   11  C   UNL     1      -7.650  13.731  67.552  1.00  0.00    -0.173 C  
HETATM   12  CA  UNL     1      -8.295  14.411  68.806  1.00  0.00    -0.126 C  
HETATM   13  O   UNL     1      -6.701  13.842  66.815  1.00  0.00     0.455 OA 
ENDROOT
BRANCH  12  14
HETATM   14  N   UNL     1      -8.626  15.863  68.796  1.00  0.00    -0.198 N  
HETATM   15  C   UNL     1      -7.826  16.838  68.239  1.00  0.00    -0.194 C  
HETATM   16  H   UNL     1      -9.502  16.155  69.230  1.00  0.00     0.000 HD 
HETATM   17  O   UNL     1      -6.767  16.581  67.682  1.00  0.00    -0.118 OA 
BRANCH  15  18
HETATM   18  C   UNL     1      -8.318  18.253  68.346  1.00  0.00    -0.323 A  
HETATM   19  C   UNL     1      -7.809  19.088  69.370  1.00  0.00     0.083 A  
HETATM   20  C   UNL     1      -8.218  20.419  69.430  1.00  0.00     0.886 A  
HETATM   21  C   UNL     1     -10.670  18.605  65.367  1.00  0.00     0.217 A  
HETATM   22  C   UNL     1      -9.088  20.936  68.474  1.00  0.00     0.878 A  
HETATM   23  C   UNL     1      -9.237  18.766  67.370  1.00  0.00    -0.302 A  
HETATM   24  C   UNL     1      -9.835  18.016  66.323  1.00  0.00    -0.310 A  
HETATM   25  C   UNL     1      -9.589  20.138  67.442  1.00  0.00    -0.551 A  
HETATM   26  C   UNL     1     -10.430  20.717  66.478  1.00  0.00     0.286 A  
HETATM   27  C   UNL     1     -10.955  19.960  65.435  1.00  0.00    -0.000 A  
BRANCH  19  28
HETATM   28  O   UNL     1      -6.916  18.535  70.257  1.00  0.00     0.532 OA 
BRANCH  28  29
HETATM   29  C   UNL     1      -5.582  18.304  69.800  1.00  0.00    -0.225 C  
HETATM   30  C   UNL     1      -5.185  16.894  70.199  1.00  0.00    -0.195 C  
ENDBRANCH  28  29
ENDBRANCH  19  28
ENDBRANCH  15  18
ENDBRANCH  12  14
TORSDOF 4
ENDMDL
MODEL      189
REMARK 921   NORMALIZED FREE ENERGY PREDICTED BY IDOCK:    0.53 KCAL/MOL
REMARK 922        TOTAL FREE ENERGY PREDICTED BY IDOCK:   -0.48 KCAL/MOL
REMARK 923 INTER-LIGAND FREE ENERGY PREDICTED BY IDOCK:   -1.36 KCAL/MOL
REMARK 924 INTRA-LIGAND FREE ENERGY PREDICTED BY IDOCK:    0.88 KCAL/MOL
REMARK 927      BINDING AFFINITY PREDICTED BY RF-SCORE:    0.00 PKD
ROOT
HETATM    1  C   UNL     1      -7.478   4.401  68.219  1.00  0.00    -0.065 C  
HETATM    2  S   UNL     1      -9.023   4.895  69.082  1.00  0.00    -0.103 SA 
HETATM    3  C   UNL     1      -9.607   5.997  67.711  1.00  0.00    -0.112 C  
HETATM    4  C   UNL     1     -11.137   5.999  67.655  1.00  0.00    -0.217 C  
HETATM    5  CA  UNL     1      -8.894   5.474  66.440  1.00  0.00    -0.126 C  
HETATM    6  C   UNL     1      -9.174   7.434  68.059  1.00  0.00    -0.132 C  
HETATM    7  N   UNL     1      -7.581   4.954  66.857  1.00  0.00    -0.087 N  
HETATM    8  C   UNL     1      -9.613   4.352  65.668  1.00  0.00    -0.187 C  
HETATM    9  OXT UNL     1     -10.771   4.395  65.284  1.00  0.00    -0.262 OA 
HETATM   10  O   UNL     1      -8.805   3.303  65.368  1.00  0.00    -0.123 OA 
HETATM   11  C   UNL     1      -6.547   5.842  67.027  1.00  0.00    -0.056 C  
HETATM   12  CA  UNL     1      -6.213   5.276  68.448  1.00  0.00    -0.031 C  
HETATM   13  O   UNL     1      -6.216   6.725  66.273  1.00  0.00    -0.041 OA 
ENDROOT
BRANCH  12  14
HETATM   14  N   UNL     1      -6.265   6.157  69.648  1.00  0.00    -0.029 N  
HETATM   15  C   UNL     1      -5.711   7.418  69.710  1.00  0.00    -0.023 C  
HETATM   16  H   UNL     1      -6.742   5.804  70.478  1.00  0.00     0.000 HD 
HETATM   17  O   UNL     1      -5.135   7.931  68.760  1.00  0.00    -0.022 OA 
BRANCH  15  18
HETATM   18  C   UNL     1      -5.846   8.147  71.015  1.00  0.00    -0.033 A  
HETATM   19  C   UNL     1      -5.575   9.536  71.064  1.00  0.00    -0.060 A  
HETATM   20  C   UNL     1      -5.763  10.226  72.261  1.00  0.00     0.502 A  
HETATM   21  C   UNL     1      -7.119   5.465  73.406  1.00  0.00    -0.086 A  
HETATM   22  C   UNL     1      -6.247   9.568  73.388  1.00  0.00     0.549 A  
HETATM   23  C   UNL     1      -6.321   7.451  72.177  1.00  0.00    -0.043 A  
HETATM   24  C   UNL     1      -6.593   6.060  72.254  1.00  0.00    -0.063 A  
HETATM   25  C   UNL     1      -6.541   8.202  73.360  1.00  0.00    -0.121 A  
HETATM   26  C   UNL     1      -7.068   7.593  74.511  1.00  0.00    -0.140 A  
HETATM   27  C   UNL     1      -7.371   6.235  74.531  1.00  0.00    -0.096 A  
BRANCH  19  28
HETATM   28  O   UNL     1      -5.146  10.142  69.907  1.00  0.00    -0.037 OA 
BRANCH  28  29
HETATM   29  C   UNL     1      -5.345  11.551  69.781  1.00  0.00    -0.068 C  
HETATM   30  C   UNL     1      -5.799  11.838  68.361  1.00  0.00    -0.049 C  
ENDBRANCH  28  29
ENDBRANCH  19  28
ENDBRANCH  15  18
ENDBRANCH  12  14
TORSDOF 4
ENDMDL
MODEL      190
REMARK 921   NORMALIZED FREE ENERGY PREDICTED BY IDOCK:    0.65 KCAL/MOL
REMARK 922        TOTAL FREE ENERGY PREDICTED BY IDOCK:   -0.34 KCAL/MOL
REMARK 923 INTER-LIGAND FREE ENERGY PREDICTED BY IDOCK:   -0.19 KCAL/MOL
REMARK 924 INTRA-LIGAND FREE ENERGY PREDICTED BY IDOCK:   -0.16 KCAL/MOL
REMARK 927      BINDING AFFINITY PREDICTED BY RF-SCORE:    0.00 PKD
ROOT
HETATM    1  C   UNL     1      -9.670   5.978  70.333  1.00  0.00    -0.169 C  
HETATM    2  S   UNL     1      -7.989   6.712  70.442  1.00  0.00    -0.117 SA 
HETATM    3  C   UNL     1      -8.600   8.461  70.486  1.00  0.00    -0.134 C  
HETATM    4  C   UNL     1      -7.653   9.326  71.323  1.00  0.00     0.012 C  
HETATM    5  CA  UNL     1     -10.055   8.369  71.008  1.00  0.00    -0.196 C  
HETATM    6  C   UNL     1      -8.541   9.006  69.046  1.00  0.00    -0.134 C  
HETATM    7  N   UNL     1     -10.612   7.093  70.526  1.00  0.00    -0.220 N  
HETATM    8  C   UNL     1     -10.234   8.405  72.537  1.00  0.00    -0.299 C  
HETATM    9  OXT UNL     1      -9.776   9.261  73.277  1.00  0.00     1.449 OA 
HETATM   10  O   UNL     1     -11.038   7.417  73.007  1.00  0.00    -0.342 OA 
HETATM   11  C   UNL     1     -11.106   7.035  69.246  1.00  0.00    -0.127 C  
HETATM   12  CA  UNL     1     -10.268   5.754  68.916  1.00  0.00    -0.204 C  
HETATM   13  O   UNL     1     -11.849   7.826  68.718  1.00  0.00     1.250 OA 
ENDROOT
BRANCH  12  14
HETATM   14  N   UNL     1      -9.277   5.761  67.805  1.00  0.00    -0.106 N  
HETATM   15  C   UNL     1      -8.514   4.671  67.438  1.00  0.00    -0.104 C  
HETATM   16  H   UNL     1      -9.154   6.627  67.281  1.00  0.00     0.000 HD 
HETATM   17  O   UNL     1      -8.605   3.587  67.997  1.00  0.00    -0.091 OA 
BRANCH  15  18
HETATM   18  C   UNL     1      -7.551   4.877  66.305  1.00  0.00    -0.087 A  
HETATM   19  C   UNL     1      -6.506   5.822  66.447  1.00  0.00    -0.047 A  
HETATM   20  C   UNL     1      -5.574   5.967  65.420  1.00  0.00    -0.017 A  
HETATM   21  C   UNL     1      -8.661   2.310  63.715  1.00  0.00    -0.086 A  
HETATM   22  C   UNL     1      -5.644   5.169  64.283  1.00  0.00    -0.017 A  
HETATM   23  C   UNL     1      -7.651   4.066  65.126  1.00  0.00    -0.081 A  
HETATM   24  C   UNL     1      -8.670   3.113  64.861  1.00  0.00    -0.108 A  
HETATM   25  C   UNL     1      -6.654   4.215  64.128  1.00  0.00    -0.043 A  
HETATM   26  C   UNL     1      -6.657   3.404  62.981  1.00  0.00    -0.030 A  
HETATM   27  C   UNL     1      -7.645   2.444  62.782  1.00  0.00    -0.053 A  
BRANCH  19  28
HETATM   28  O   UNL     1      -6.459   6.549  67.613  1.00  0.00    -0.047 OA 
BRANCH  28  29
HETATM   29  C   UNL     1      -5.222   7.174  67.957  1.00  0.00    -0.020 C  
HETATM   30  C   UNL     1      -5.301   7.609  69.410  1.00  0.00    -0.019 C  
ENDBRANCH  28  29
ENDBRANCH  19  28
ENDBRANCH  15  18
ENDBRANCH  12  14
TORSDOF 4
ENDMDL
MODEL      191
REMARK 921   NORMALIZED FREE ENERGY PREDICTED BY IDOCK:    1.17 KCAL/MOL
REMARK 922        TOTAL FREE ENERGY PREDICTED BY IDOCK:    0.31 KCAL/MOL
REMARK 923 INTER-LIGAND FREE ENERGY PREDICTED BY IDOCK:   -1.53 KCAL/MOL
REMARK 924 INTRA-LIGAND FREE ENERGY PREDICTED BY IDOCK:    1.83 KCAL/MOL
REMARK 927      BINDING AFFINITY PREDICTED BY RF-SCORE:    0.00 PKD
ROOT
HETATM    1  C   UNL     1     -10.168   5.628  70.664  1.00  0.00    -0.227 C  
HETATM    2  S   UNL     1     -10.010   4.678  69.099  1.00  0.00    -0.074 SA 
HETATM    3  C   UNL     1      -8.463   3.800  69.621  1.00  0.00    -0.060 C  
HETATM    4  C   UNL     1      -8.415   2.406  68.992  1.00  0.00    -0.099 C  
HETATM    5  CA  UNL     1      -8.482   3.833  71.169  1.00  0.00    -0.072 C  
HETATM    6  C   UNL     1      -7.270   4.587  69.046  1.00  0.00    -0.052 C  
HETATM    7  N   UNL     1      -9.142   5.087  71.572  1.00  0.00    -0.138 N  
HETATM    8  C   UNL     1      -9.219   2.676  71.866  1.00  0.00    -0.095 C  
HETATM    9  OXT UNL     1      -9.015   1.490  71.662  1.00  0.00    -0.060 OA 
HETATM   10  O   UNL     1     -10.092   3.091  72.820  1.00  0.00    -0.136 OA 
HETATM   11  C   UNL     1      -8.401   6.243  71.592  1.00  0.00    -0.129 C  
HETATM   12  CA  UNL     1      -9.465   7.013  70.741  1.00  0.00    -0.161 C  
HETATM   13  O   UNL     1      -7.305   6.394  72.076  1.00  0.00    -0.089 OA 
ENDROOT
BRANCH  12  14
HETATM   14  N   UNL     1      -9.099   7.608  69.426  1.00  0.00    -0.143 N  
HETATM   15  C   UNL     1      -9.944   7.666  68.337  1.00  0.00    -0.176 C  
HETATM   16  H   UNL     1      -8.162   7.999  69.323  1.00  0.00     0.000 HD 
HETATM   17  O   UNL     1     -11.090   7.239  68.371  1.00  0.00    -0.029 OA 
BRANCH  15  18
HETATM   18  C   UNL     1      -9.388   8.285  67.087  1.00  0.00    -0.189 A  
HETATM   19  C   UNL     1     -10.047   9.399  66.514  1.00  0.00    -0.262 A  
HETATM   20  C   UNL     1      -9.495  10.014  65.391  1.00  0.00    -0.310 A  
HETATM   21  C   UNL     1      -6.201   6.293  66.448  1.00  0.00    -0.037 A  
HETATM   22  C   UNL     1      -8.291   9.564  64.858  1.00  0.00    -0.151 A  
HETATM   23  C   UNL     1      -8.159   7.794  66.532  1.00  0.00    -0.111 A  
HETATM   24  C   UNL     1      -7.430   6.670  67.002  1.00  0.00    -0.087 A  
HETATM   25  C   UNL     1      -7.610   8.479  65.418  1.00  0.00    -0.088 A  
HETATM   26  C   UNL     1      -6.377   8.090  64.870  1.00  0.00    -0.048 A  
HETATM   27  C   UNL     1      -5.666   7.014  65.392  1.00  0.00    -0.032 A  
BRANCH  19  28
HETATM   28  O   UNL     1     -11.208   9.829  67.112  1.00  0.00    -0.034 OA 
BRANCH  28  29
HETATM   29  C   UNL     1     -11.470  11.233  67.122  1.00  0.00    -0.137 C  
HETATM   30  C   UNL     1     -12.387  11.550  65.953  1.00  0.00     1.699 C  
ENDBRANCH  28  29
ENDBRANCH  19  28
ENDBRANCH  15  18
ENDBRANCH  12  14
TORSDOF 4
ENDMDL
MODEL      192
REMARK 921   NORMALIZED FREE ENERGY PREDICTED BY IDOCK:    1.25 KCAL/MOL
REMARK 922        TOTAL FREE ENERGY PREDICTED BY IDOCK:    0.41 KCAL/MOL
REMARK 923 INTER-LIGAND FREE ENERGY PREDICTED BY IDOCK:   -0.88 KCAL/MOL
REMARK 924 INTRA-LIGAND FREE ENERGY PREDICTED BY IDOCK:    1.28 KCAL/MOL
REMARK 927      BINDING AFFINITY PREDICTED BY RF-SCORE:    0.00 PKD
ROOT
HETATM    1  C   UNL     1      -7.863   4.179  66.584  1.00  0.00    -0.097 C  
HETATM    2  S   UNL     1      -9.210   4.835  67.647  1.00  0.00    -0.135 SA 
HETATM    3  C   UNL     1      -9.950   5.883  66.309  1.00  0.00    -0.058 C  
HETATM    4  C   UNL     1     -11.464   5.990  66.503  1.00  0.00     0.652 C  
HETATM    5  CA  UNL     1      -9.491   5.229  64.982  1.00  0.00     0.189 C  
HETATM    6  C   UNL     1      -9.382   7.306  66.472  1.00  0.00    -0.216 C  
HETATM    7  N   UNL     1      -8.159   4.647  65.219  1.00  0.00    -0.102 N  
HETATM    8  C   UNL     1     -10.393   4.112  64.427  1.00  0.00    -0.138 C  
HETATM    9  OXT UNL     1     -11.594   4.211  64.233  1.00  0.00    -0.059 OA 
HETATM   10  O   UNL     1      -9.710   2.992  64.080  1.00  0.00    -0.136 OA 
HETATM   11  C   UNL     1      -7.061   5.470  65.151  1.00  0.00    -0.065 C  
HETATM   12  CA  UNL     1      -6.528   4.976  66.538  1.00  0.00    -0.041 C  
HETATM   13  O   UNL     1      -6.811   6.275  64.287  1.00  0.00    -0.040 OA 
ENDROOT
BRANCH  12  14
HETATM   14  N   UNL     1      -6.328   5.935  67.659  1.00  0.00    -0.040 N  
HETATM   15  C   UNL     1      -5.649   7.131  67.546  1.00  0.00    -0.024 C  
HETATM   16  H   UNL     1      -6.718   5.692  68.569  1.00  0.00     0.000 HD 
HETATM   17  O   UNL     1      -5.162   7.513  66.491  1.00  0.00    -0.023 OA 
BRANCH  15  18
HETATM   18  C   UNL     1      -5.531   7.956  68.795  1.00  0.00    -0.027 A  
HETATM   19  C   UNL     1      -5.566   9.368  68.698  1.00  0.00    -0.040 A  
HETATM   20  C   UNL     1      -5.521  10.133  69.863  1.00  0.00    -0.039 A  
HETATM   21  C   UNL     1      -5.391   5.351  71.574  1.00  0.00    -0.009 A  
HETATM   22  C   UNL     1      -5.479   9.518  71.111  1.00  0.00    -0.060 A  
HETATM   23  C   UNL     1      -5.461   7.310  70.075  1.00  0.00    -0.023 A  
HETATM   24  C   UNL     1      -5.388   5.908  70.291  1.00  0.00    -0.012 A  
HETATM   25  C   UNL     1      -5.464   8.126  71.234  1.00  0.00    -0.033 A  
HETATM   26  C   UNL     1      -5.466   7.554  72.517  1.00  0.00    -0.037 A  
HETATM   27  C   UNL     1      -5.446   6.174  72.688  1.00  0.00    -0.032 A  
BRANCH  19  28
HETATM   28  O   UNL     1      -5.656   9.918  67.441  1.00  0.00    -0.042 OA 
BRANCH  28  29
HETATM   29  C   UNL     1      -6.957  10.241  66.949  1.00  0.00    -0.091 C  
HETATM   30  C   UNL     1      -7.968   9.905  68.031  1.00  0.00    -0.100 C  
ENDBRANCH  28  29
ENDBRANCH  19  28
ENDBRANCH  15  18
ENDBRANCH  12  14
TORSDOF 4
ENDMDL
MODEL      193
REMARK 921   NORMALIZED FREE ENERGY PREDICTED BY IDOCK:    2.79 KCAL/MOL
REMARK 922        TOTAL FREE ENERGY PREDICTED BY IDOCK:    2.30 KCAL/MOL
REMARK 923 INTER-LIGAND FREE ENERGY PREDICTED BY IDOCK:    3.40 KCAL/MOL
REMARK 924 INTRA-LIGAND FREE ENERGY PREDICTED BY IDOCK:   -1.09 KCAL/MOL
REMARK 927      BINDING AFFINITY PREDICTED BY RF-SCORE:    0.00 PKD
ROOT
HETATM    1  C   UNL     1      -7.584  13.194  69.620  1.00  0.00     0.882 C  
HETATM    2  S   UNL     1      -6.170  13.511  68.489  1.00  0.00    -0.101 SA 
HETATM    3  C   UNL     1      -7.088  14.746  67.456  1.00  0.00    -0.184 C  
HETATM    4  C   UNL     1      -6.118  15.799  66.913  1.00  0.00     0.476 C  
HETATM    5  CA  UNL     1      -8.213  15.285  68.372  1.00  0.00    -0.146 C  
HETATM    6  C   UNL     1      -7.653  13.995  66.235  1.00  0.00     2.355 C  
HETATM    7  N   UNL     1      -8.616  14.184  69.264  1.00  0.00     0.232 N  
HETATM    8  C   UNL     1      -7.851  16.490  69.259  1.00  0.00    -0.121 C  
HETATM    9  OXT UNL     1      -7.359  17.533  68.858  1.00  0.00    -0.257 OA 
HETATM   10  O   UNL     1      -8.209  16.328  70.558  1.00  0.00     1.890 OA 
HETATM   11  C   UNL     1      -9.500  13.245  68.790  1.00  0.00     0.092 C  
HETATM   12  CA  UNL     1      -8.576  12.061  69.233  1.00  0.00     0.733 C  
HETATM   13  O   UNL     1     -10.533  13.454  68.200  1.00  0.00    -0.231 OA 
ENDROOT
BRANCH  12  14
HETATM   14  N   UNL     1      -8.061  11.086  68.233  1.00  0.00    -0.121 N  
HETATM   15  C   UNL     1      -8.858  10.239  67.492  1.00  0.00    -0.128 C  
HETATM   16  H   UNL     1      -7.052  11.042  68.086  1.00  0.00     0.000 HD 
HETATM   17  O   UNL     1     -10.078  10.233  67.587  1.00  0.00    -0.175 OA 
BRANCH  15  18
HETATM   18  C   UNL     1      -8.152   9.309  66.547  1.00  0.00    -0.104 A  
HETATM   19  C   UNL     1      -7.298   8.308  67.070  1.00  0.00    -0.084 A  
HETATM   20  C   UNL     1      -6.693   7.404  66.197  1.00  0.00    -0.053 A  
HETATM   21  C   UNL     1      -9.475  10.343  63.125  1.00  0.00    -0.362 A  
HETATM   22  C   UNL     1      -6.953   7.458  64.831  1.00  0.00    -0.051 A  
HETATM   23  C   UNL     1      -8.409   9.392  65.137  1.00  0.00    -0.151 A  
HETATM   24  C   UNL     1      -9.218  10.369  64.500  1.00  0.00    -0.287 A  
HETATM   25  C   UNL     1      -7.809   8.423  64.293  1.00  0.00    -0.143 A  
HETATM   26  C   UNL     1      -8.073   8.409  62.913  1.00  0.00    -0.170 A  
HETATM   27  C   UNL     1      -8.915   9.353  62.333  1.00  0.00    -0.258 A  
BRANCH  19  28
HETATM   28  O   UNL     1      -7.116   8.273  68.432  1.00  0.00    -0.077 OA 
BRANCH  28  29
HETATM   29  C   UNL     1      -6.028   7.499  68.938  1.00  0.00    -0.030 C  
HETATM   30  C   UNL     1      -5.883   7.802  70.419  1.00  0.00    -0.026 C  
ENDBRANCH  28  29
ENDBRANCH  19  28
ENDBRANCH  15  18
ENDBRANCH  12  14
TORSDOF 4
ENDMDL
MODEL      194
REMARK 921   NORMALIZED FREE ENERGY PREDICTED BY IDOCK:    2.92 KCAL/MOL
REMARK 922        TOTAL FREE ENERGY PREDICTED BY IDOCK:    2.47 KCAL/MOL
REMARK 923 INTER-LIGAND FREE ENERGY PREDICTED BY IDOCK:    0.90 KCAL/MOL
REMARK 924 INTRA-LIGAND FREE ENERGY PREDICTED BY IDOCK:    1.57 KCAL/MOL
REMARK 927      BINDING AFFINITY PREDICTED BY RF-SCORE:    0.00 PKD
ROOT
HETATM    1  C   UNL     1     -10.586   9.155  67.032  1.00  0.00    -0.195 C  
HETATM    2  S   UNL     1      -8.933   8.835  67.767  1.00  0.00    -0.135 SA 
HETATM    3  C   UNL     1      -9.604   8.358  69.427  1.00  0.00    -0.170 C  
HETATM    4  C   UNL     1      -8.695   7.314  70.081  1.00  0.00    -0.140 C  
HETATM    5  CA  UNL     1     -11.059   7.902  69.160  1.00  0.00     0.185 C  
HETATM    6  C   UNL     1      -9.553   9.612  70.322  1.00  0.00    -0.307 C  
HETATM    7  N   UNL     1     -11.568   8.701  68.032  1.00  0.00     1.329 N  
HETATM    8  C   UNL     1     -11.253   6.418  68.800  1.00  0.00    -0.274 C  
HETATM    9  OXT UNL     1     -10.831   5.477  69.454  1.00  0.00    -0.298 OA 
HETATM   10  O   UNL     1     -12.026   6.227  67.701  1.00  0.00     1.224 OA 
HETATM   11  C   UNL     1     -12.049   9.963  68.285  1.00  0.00     1.968 C  
HETATM   12  CA  UNL     1     -11.164  10.593  67.158  1.00  0.00    -0.100 C  
HETATM   13  O   UNL     1     -12.815  10.286  69.161  1.00  0.00     0.337 OA 
ENDROOT
BRANCH  12  14
HETATM   14  N   UNL     1     -10.164  11.649  67.478  1.00  0.00    -0.193 N  
HETATM   15  C   UNL     1     -10.395  12.702  68.338  1.00  0.00    -0.235 C  
HETATM   16  H   UNL     1      -9.249  11.590  67.031  1.00  0.00     0.000 HD 
HETATM   17  O   UNL     1     -11.455  12.846  68.932  1.00  0.00    -0.263 OA 
BRANCH  15  18
HETATM   18  C   UNL     1      -9.270  13.680  68.519  1.00  0.00    -0.121 A  
HETATM   19  C   UNL     1      -9.529  14.926  69.141  1.00  0.00    -0.158 A  
HETATM   20  C   UNL     1      -8.473  15.808  69.366  1.00  0.00    -0.218 A  
HETATM   21  C   UNL     1      -6.233  11.801  67.188  1.00  0.00    -0.147 A  
HETATM   22  C   UNL     1      -7.172  15.456  69.019  1.00  0.00    -0.153 A  
HETATM   23  C   UNL     1      -7.937  13.316  68.131  1.00  0.00    -0.150 A  
HETATM   24  C   UNL     1      -7.566  12.114  67.473  1.00  0.00    -0.151 A  
HETATM   25  C   UNL     1      -6.888  14.225  68.422  1.00  0.00    -0.104 A  
HETATM   26  C   UNL     1      -5.553  13.899  68.129  1.00  0.00    -0.118 A  
HETATM   27  C   UNL     1      -5.224  12.687  67.531  1.00  0.00    -0.091 A  
BRANCH  19  28
HETATM   28  O   UNL     1     -10.826  15.198  69.507  1.00  0.00    -0.241 OA 
BRANCH  28  29
HETATM   29  C   UNL     1     -11.652  15.882  68.564  1.00  0.00    -0.349 C  
HETATM   30  C   UNL     1     -11.171  17.320  68.472  1.00  0.00     0.168 C  
ENDBRANCH  28  29
ENDBRANCH  19  28
ENDBRANCH  15  18
ENDBRANCH  12  14
TORSDOF 4
ENDMDL
MODEL      195
REMARK 921   NORMALIZED FREE ENERGY PREDICTED BY IDOCK:    4.26 KCAL/MOL
REMARK 922        TOTAL FREE ENERGY PREDICTED BY IDOCK:    4.12 KCAL/MOL
REMARK 923 INTER-LIGAND FREE ENERGY PREDICTED BY IDOCK:    3.86 KCAL/MOL
REMARK 924 INTRA-LIGAND FREE ENERGY PREDICTED BY IDOCK:    0.26 KCAL/MOL
REMARK 927      BINDING AFFINITY PREDICTED BY RF-SCORE:    0.00 PKD
ROOT
HETATM    1  C   UNL     1      -9.477   9.608  69.186  1.00  0.00    -0.171 C  
HETATM    2  S   UNL     1     -10.468  10.784  68.182  1.00  0.00    -0.200 SA 
HETATM    3  C   UNL     1     -10.108   9.938  66.574  1.00  0.00    -0.232 C  
HETATM    4  C   UNL     1     -11.297  10.093  65.622  1.00  0.00     1.607 C  
HETATM    5  CA  UNL     1      -9.745   8.482  66.954  1.00  0.00    -0.221 C  
HETATM    6  C   UNL     1      -8.921  10.672  65.922  1.00  0.00    -0.192 C  
HETATM    7  N   UNL     1      -9.080   8.527  68.268  1.00  0.00    -0.139 N  
HETATM    8  C   UNL     1     -10.919   7.493  67.064  1.00  0.00    -0.035 C  
HETATM    9  OXT UNL     1     -11.759   7.303  66.198  1.00  0.00     2.748 OA 
HETATM   10  O   UNL     1     -10.903   6.762  68.208  1.00  0.00    -0.234 OA 
HETATM   11  C   UNL     1      -7.742   8.835  68.316  1.00  0.00    -0.100 C  
HETATM   12  CA  UNL     1      -7.972   9.936  69.405  1.00  0.00    -0.135 C  
HETATM   13  O   UNL     1      -6.865   8.370  67.630  1.00  0.00    -0.065 OA 
ENDROOT
BRANCH  12  14
HETATM   14  N   UNL     1      -7.592  11.352  69.144  1.00  0.00    -0.300 N  
HETATM   15  C   UNL     1      -6.397  11.920  69.536  1.00  0.00    -0.122 C  
HETATM   16  H   UNL     1      -8.258  11.940  68.644  1.00  0.00     0.000 HD 
HETATM   17  O   UNL     1      -5.531  11.288  70.126  1.00  0.00    -0.074 OA 
BRANCH  15  18
HETATM   18  C   UNL     1      -6.203  13.371  69.202  1.00  0.00    -0.098 A  
HETATM   19  C   UNL     1      -6.397  13.807  67.869  1.00  0.00    -0.157 A  
HETATM   20  C   UNL     1      -6.279  15.164  67.571  1.00  0.00    -0.079 A  
HETATM   21  C   UNL     1      -5.429  14.966  72.577  1.00  0.00     0.139 A  
HETATM   22  C   UNL     1      -6.010  16.088  68.577  1.00  0.00    -0.105 A  
HETATM   23  C   UNL     1      -5.899  14.310  70.244  1.00  0.00    -0.146 A  
HETATM   24  C   UNL     1      -5.653  13.985  71.604  1.00  0.00    -0.235 A  
HETATM   25  C   UNL     1      -5.835  15.685  69.904  1.00  0.00    -0.151 A  
HETATM   26  C   UNL     1      -5.608  16.660  70.889  1.00  0.00     0.103 A  
HETATM   27  C   UNL     1      -5.423  16.306  72.221  1.00  0.00     0.968 A  
BRANCH  19  28
HETATM   28  O   UNL     1      -6.708  12.855  66.927  1.00  0.00    -0.020 OA 
BRANCH  28  29
HETATM   29  C   UNL     1      -5.789  11.779  66.741  1.00  0.00    -0.110 C  
HETATM   30  C   UNL     1      -5.277  11.836  65.312  1.00  0.00     1.614 C  
ENDBRANCH  28  29
ENDBRANCH  19  28
ENDBRANCH  15  18
ENDBRANCH  12  14
TORSDOF 4
ENDMDL
MODEL      196
REMARK 921   NORMALIZED FREE ENERGY PREDICTED BY IDOCK:    4.62 KCAL/MOL
REMARK 922        TOTAL FREE ENERGY PREDICTED BY IDOCK:    4.57 KCAL/MOL
REMARK 923 INTER-LIGAND FREE ENERGY PREDICTED BY IDOCK:   -2.01 KCAL/MOL
REMARK 924 INTRA-LIGAND FREE ENERGY PREDICTED BY IDOCK:    6.57 KCAL/MOL
REMARK 927      BINDING AFFINITY PREDICTED BY RF-SCORE:    0.00 PKD
ROOT
HETATM    1  C   UNL     1      -6.335  12.493  67.310  1.00  0.00    -0.123 C  
HETATM    2  S   UNL     1      -7.661  11.504  66.510  1.00  0.00     0.032 SA 
HETATM    3  C   UNL     1      -9.043  12.498  67.242  1.00  0.00    -0.189 C  
HETATM    4  C   UNL     1     -10.233  12.529  66.280  1.00  0.00    -0.265 C  
HETATM    5  CA  UNL     1      -8.419  13.875  67.575  1.00  0.00    -0.196 C  
HETATM    6  C   UNL     1      -9.518  11.763  68.510  1.00  0.00    -0.165 C  
HETATM    7  N   UNL     1      -7.011  13.641  67.940  1.00  0.00    -0.134 N  
HETATM    8  C   UNL     1      -8.436  14.922  66.446  1.00  0.00     0.134 C  
HETATM    9  OXT UNL     1      -9.428  15.262  65.820  1.00  0.00    -0.333 OA 
HETATM   10  O   UNL     1      -7.233  15.519  66.247  1.00  0.00     0.448 OA 
HETATM   11  C   UNL     1      -6.723  13.241  69.222  1.00  0.00    -0.066 C  
HETATM   12  CA  UNL     1      -5.850  12.043  68.718  1.00  0.00    -0.051 C  
HETATM   13  O   UNL     1      -7.150  13.719  70.245  1.00  0.00     0.384 OA 
ENDROOT
BRANCH  12  14
HETATM   14  N   UNL     1      -6.197  10.643  69.086  1.00  0.00    -0.041 N  
HETATM   15  C   UNL     1      -7.482  10.194  69.309  1.00  0.00    -0.111 C  
HETATM   16  H   UNL     1      -5.435   9.972  69.181  1.00  0.00     0.000 HD 
HETATM   17  O   UNL     1      -8.461  10.921  69.202  1.00  0.00    -0.137 OA 
BRANCH  15  18
HETATM   18  C   UNL     1      -7.632   8.750  69.693  1.00  0.00    -0.076 A  
HETATM   19  C   UNL     1      -8.452   7.905  68.906  1.00  0.00    -0.128 A  
HETATM   20  C   UNL     1      -8.540   6.551  69.225  1.00  0.00    -0.127 A  
HETATM   21  C   UNL     1      -5.314   8.383  72.696  1.00  0.00    -0.043 A  
HETATM   22  C   UNL     1      -7.803   6.024  70.282  1.00  0.00    -0.102 A  
HETATM   23  C   UNL     1      -6.887   8.225  70.802  1.00  0.00    -0.039 A  
HETATM   24  C   UNL     1      -6.063   8.980  71.676  1.00  0.00    -0.074 A  
HETATM   25  C   UNL     1      -6.972   6.833  71.061  1.00  0.00    -0.067 A  
HETATM   26  C   UNL     1      -6.215   6.245  72.089  1.00  0.00    -0.042 A  
HETATM   27  C   UNL     1      -5.378   7.012  72.892  1.00  0.00    -0.038 A  
BRANCH  19  28
HETATM   28  O   UNL     1      -9.118   8.472  67.846  1.00  0.00    -0.139 OA 
BRANCH  28  29
HETATM   29  C   UNL     1      -9.778   7.597  66.930  1.00  0.00    -0.213 C  
HETATM   30  C   UNL     1      -8.882   7.422  65.717  1.00  0.00    -0.106 C  
ENDBRANCH  28  29
ENDBRANCH  19  28
ENDBRANCH  15  18
ENDBRANCH  12  14
TORSDOF 4
ENDMDL
MODEL      197
REMARK 921   NORMALIZED FREE ENERGY PREDICTED BY IDOCK:    5.11 KCAL/MOL
REMARK 922        TOTAL FREE ENERGY PREDICTED BY IDOCK:    5.17 KCAL/MOL
REMARK 923 INTER-LIGAND FREE ENERGY PREDICTED BY IDOCK:    5.71 KCAL/MOL
REMARK 924 INTRA-LIGAND FREE ENERGY PREDICTED BY IDOCK:   -0.54 KCAL/MOL
REMARK 927      BINDING AFFINITY PREDICTED BY RF-SCORE:    0.00 PKD
ROOT
HETATM    1  C   UNL     1     -10.634  15.038  71.189  1.00  0.00     0.390 C  
HETATM    2  S   UNL     1     -11.706  16.520  71.018  1.00  0.00     0.358 SA 
HETATM    3  C   UNL     1     -13.263  15.624  71.474  1.00  0.00    -0.475 C  
HETATM    4  C   UNL     1     -14.224  16.575  72.191  1.00  0.00     2.225 C  
HETATM    5  CA  UNL     1     -12.799  14.398  72.298  1.00  0.00    -0.346 C  
HETATM    6  C   UNL     1     -13.953  15.203  70.162  1.00  0.00     1.203 C  
HETATM    7  N   UNL     1     -11.488  13.985  71.766  1.00  0.00     0.962 N  
HETATM    8  C   UNL     1     -12.636  14.618  73.812  1.00  0.00    -0.159 C  
HETATM    9  OXT UNL     1     -13.490  15.083  74.550  1.00  0.00     1.412 OA 
HETATM   10  O   UNL     1     -11.452  14.164  74.298  1.00  0.00     0.988 OA 
HETATM   11  C   UNL     1     -11.455  13.196  70.642  1.00  0.00     0.660 C  
HETATM   12  CA  UNL     1     -10.432  14.145  69.932  1.00  0.00     0.435 C  
HETATM   13  O   UNL     1     -12.112  12.206  70.430  1.00  0.00    -0.354 OA 
ENDROOT
BRANCH  12  14
HETATM   14  N   UNL     1     -10.772  14.795  68.636  1.00  0.00    -0.245 N  
HETATM   15  C   UNL     1     -10.095  14.573  67.455  1.00  0.00    -0.235 C  
HETATM   16  H   UNL     1     -11.556  15.447  68.622  1.00  0.00     0.000 HD 
HETATM   17  O   UNL     1      -9.154  13.796  67.372  1.00  0.00    -0.201 OA 
BRANCH  15  18
HETATM   18  C   UNL     1     -10.572  15.338  66.254  1.00  0.00    -0.312 A  
HETATM   19  C   UNL     1     -11.197  14.641  65.192  1.00  0.00    -0.374 A  
HETATM   20  C   UNL     1     -11.697  15.359  64.106  1.00  0.00    -0.109 A  
HETATM   21  C   UNL     1      -9.821  18.965  67.154  1.00  0.00    -0.368 A  
HETATM   22  C   UNL     1     -11.619  16.748  64.081  1.00  0.00     0.996 A  
HETATM   23  C   UNL     1     -10.461  16.769  66.228  1.00  0.00    -0.264 A  
HETATM   24  C   UNL     1      -9.829  17.568  67.217  1.00  0.00    -0.294 A  
HETATM   25  C   UNL     1     -11.025  17.461  65.126  1.00  0.00     0.211 A  
HETATM   26  C   UNL     1     -11.009  18.865  65.074  1.00  0.00     1.320 A  
HETATM   27  C   UNL     1     -10.426  19.615  66.089  1.00  0.00    -0.624 A  
BRANCH  19  28
HETATM   28  O   UNL     1     -11.288  13.273  65.294  1.00  0.00    -0.292 OA 
BRANCH  28  29
HETATM   29  C   UNL     1     -10.316  12.488  64.602  1.00  0.00    -0.317 C  
HETATM   30  C   UNL     1     -11.031  11.705  63.515  1.00  0.00    -0.485 C  
ENDBRANCH  28  29
ENDBRANCH  19  28
ENDBRANCH  15  18
ENDBRANCH  12  14
TORSDOF 4
ENDMDL
MODEL      198
REMARK 921   NORMALIZED FREE ENERGY PREDICTED BY IDOCK:    5.12 KCAL/MOL
REMARK 922        TOTAL FREE ENERGY PREDICTED BY IDOCK:    5.18 KCAL/MOL
REMARK 923 INTER-LIGAND FREE ENERGY PREDICTED BY IDOCK:    3.35 KCAL/MOL
REMARK 924 INTRA-LIGAND FREE ENERGY PREDICTED BY IDOCK:    1.82 KCAL/MOL
REMARK 927      BINDING AFFINITY PREDICTED BY RF-SCORE:    0.00 PKD
ROOT
HETATM    1  C   UNL     1      -7.547   8.352  69.435  1.00  0.00    -0.091 C  
HETATM    2  S   UNL     1      -9.155   7.876  70.185  1.00  0.00    -0.152 SA 
HETATM    3  C   UNL     1      -9.319   6.318  69.195  1.00  0.00    -0.131 C  
HETATM    4  C   UNL     1     -10.068   5.258  70.006  1.00  0.00    -0.336 C  
HETATM    5  CA  UNL     1      -7.873   5.946  68.784  1.00  0.00    -0.095 C  
HETATM    6  C   UNL     1     -10.197   6.640  67.970  1.00  0.00    -0.193 C  
HETATM    7  N   UNL     1      -7.130   7.205  68.610  1.00  0.00    -0.082 N  
HETATM    8  C   UNL     1      -7.085   5.076  69.781  1.00  0.00    -0.055 C  
HETATM    9  OXT UNL     1      -7.473   4.018  70.248  1.00  0.00    -0.044 OA 
HETATM   10  O   UNL     1      -5.843   5.556  70.048  1.00  0.00    -0.018 OA 
HETATM   11  C   UNL     1      -7.255   7.882  67.421  1.00  0.00    -0.088 C  
HETATM   12  CA  UNL     1      -7.581   9.228  68.151  1.00  0.00    -0.084 C  
HETATM   13  O   UNL     1      -7.183   7.416  66.310  1.00  0.00    -0.074 OA 
ENDROOT
BRANCH  12  14
HETATM   14  N   UNL     1      -8.868   9.933  67.903  1.00  0.00    -0.128 N  
HETATM   15  C   UNL     1      -9.056  10.886  66.923  1.00  0.00    -0.154 C  
HETATM   16  H   UNL     1      -9.663   9.697  68.497  1.00  0.00     0.000 HD 
HETATM   17  O   UNL     1      -8.166  11.221  66.153  1.00  0.00    -0.160 OA 
BRANCH  15  18
HETATM   18  C   UNL     1     -10.422  11.503  66.840  1.00  0.00    -0.270 A  
HETATM   19  C   UNL     1     -11.202  11.306  65.674  1.00  0.00    -0.004 A  
HETATM   20  C   UNL     1     -12.495  11.826  65.623  1.00  0.00     1.264 A  
HETATM   21  C   UNL     1     -10.866  13.147  70.250  1.00  0.00     1.253 A  
HETATM   22  C   UNL     1     -13.031  12.498  66.717  1.00  0.00     2.618 A  
HETATM   23  C   UNL     1     -10.953  12.218  67.966  1.00  0.00    -0.265 A  
HETATM   24  C   UNL     1     -10.256  12.502  69.169  1.00  0.00     0.224 A  
HETATM   25  C   UNL     1     -12.290  12.687  67.887  1.00  0.00     0.342 A  
HETATM   26  C   UNL     1     -12.890  13.335  68.979  1.00  0.00     1.185 A  
HETATM   27  C   UNL     1     -12.189  13.549  70.161  1.00  0.00    -0.400 A  
BRANCH  19  28
HETATM   28  O   UNL     1     -10.637  10.593  64.644  1.00  0.00    -0.296 OA 
BRANCH  28  29
HETATM   29  C   UNL     1      -9.397  11.061  64.113  1.00  0.00    -0.210 C  
HETATM   30  C   UNL     1      -8.623   9.861  63.595  1.00  0.00    -0.203 C  
ENDBRANCH  28  29
ENDBRANCH  19  28
ENDBRANCH  15  18
ENDBRANCH  12  14
TORSDOF 4
ENDMDL
MODEL      199
REMARK 921   NORMALIZED FREE ENERGY PREDICTED BY IDOCK:    5.43 KCAL/MOL
REMARK 922        TOTAL FREE ENERGY PREDICTED BY IDOCK:    5.56 KCAL/MOL
REMARK 923 INTER-LIGAND FREE ENERGY PREDICTED BY IDOCK:    6.58 KCAL/MOL
REMARK 924 INTRA-LIGAND FREE ENERGY PREDICTED BY IDOCK:   -1.02 KCAL/MOL
REMARK 927      BINDING AFFINITY PREDICTED BY RF-SCORE:    0.00 PKD
ROOT
HETATM    1  C   UNL     1      -6.716  10.858  65.534  1.00  0.00     0.102 C  
HETATM    2  S   UNL     1      -6.750  10.289  67.281  1.00  0.00    -0.074 SA 
HETATM    3  C   UNL     1      -7.634   8.706  66.899  1.00  0.00    -0.084 C  
HETATM    4  C   UNL     1      -7.198   7.613  67.878  1.00  0.00    -0.094 C  
HETATM    5  CA  UNL     1      -7.332   8.423  65.407  1.00  0.00    -0.084 C  
HETATM    6  C   UNL     1      -9.136   8.946  67.144  1.00  0.00    -0.160 C  
HETATM    7  N   UNL     1      -7.211   9.726  64.731  1.00  0.00    -0.124 N  
HETATM    8  C   UNL     1      -6.048   7.627  65.110  1.00  0.00    -0.038 C  
HETATM    9  OXT UNL     1      -5.757   6.553  65.613  1.00  0.00    -0.024 OA 
HETATM   10  O   UNL     1      -5.274   8.193  64.150  1.00  0.00    -0.039 OA 
HETATM   11  C   UNL     1      -8.359  10.372  64.340  1.00  0.00    -0.142 C  
HETATM   12  CA  UNL     1      -7.918  11.706  65.029  1.00  0.00     1.279 C  
HETATM   13  O   UNL     1      -9.296   9.892  63.749  1.00  0.00    -0.268 OA 
ENDROOT
BRANCH  12  14
HETATM   14  N   UNL     1      -8.751  12.319  66.100  1.00  0.00    -0.413 N  
HETATM   15  C   UNL     1      -8.841  13.675  66.334  1.00  0.00     0.129 C  
HETATM   16  H   UNL     1      -9.290  11.695  66.700  1.00  0.00     0.000 HD 
HETATM   17  O   UNL     1      -8.244  14.500  65.655  1.00  0.00     1.905 OA 
BRANCH  15  18
HETATM   18  C   UNL     1      -9.717  14.103  67.475  1.00  0.00    -0.234 A  
HETATM   19  C   UNL     1     -11.122  13.982  67.353  1.00  0.00    -0.303 A  
HETATM   20  C   UNL     1     -11.933  14.319  68.436  1.00  0.00    -0.344 A  
HETATM   21  C   UNL     1      -7.228  15.127  70.174  1.00  0.00     0.108 A  
HETATM   22  C   UNL     1     -11.369  14.735  69.639  1.00  0.00    -0.316 A  
HETATM   23  C   UNL     1      -9.124  14.556  68.701  1.00  0.00    -0.187 A  
HETATM   24  C   UNL     1      -7.735  14.747  68.927  1.00  0.00    -0.146 A  
HETATM   25  C   UNL     1      -9.984  14.843  69.791  1.00  0.00     0.018 A  
HETATM   26  C   UNL     1      -9.462  15.226  71.038  1.00  0.00     1.957 A  
HETATM   27  C   UNL     1      -8.091  15.352  71.235  1.00  0.00     3.552 A  
BRANCH  19  28
HETATM   28  O   UNL     1     -11.620  13.520  66.157  1.00  0.00    -0.321 OA 
BRANCH  28  29
HETATM   29  C   UNL     1     -11.970  14.486  65.165  1.00  0.00    -0.369 C  
HETATM   30  C   UNL     1     -13.427  14.272  64.793  1.00  0.00     1.289 C  
ENDBRANCH  28  29
ENDBRANCH  19  28
ENDBRANCH  15  18
ENDBRANCH  12  14
TORSDOF 4
ENDMDL
MODEL      200
REMARK 921   NORMALIZED FREE ENERGY PREDICTED BY IDOCK:    7.28 KCAL/MOL
REMARK 922        TOTAL FREE ENERGY PREDICTED BY IDOCK:    7.84 KCAL/MOL
REMARK 923 INTER-LIGAND FREE ENERGY PREDICTED BY IDOCK:    8.63 KCAL/MOL
REMARK 924 INTRA-LIGAND FREE ENERGY PREDICTED BY IDOCK:   -0.78 KCAL/MOL
REMARK 927      BINDING AFFINITY PREDICTED BY RF-SCORE:    0.00 PKD
ROOT
HETATM    1  C   UNL     1      -8.936   7.890  71.951  1.00  0.00    -0.136 C  
HETATM    2  S   UNL     1      -7.958   8.187  70.424  1.00  0.00    -0.102 SA 
HETATM    3  C   UNL     1      -9.391   8.865  69.465  1.00  0.00    -0.155 C  
HETATM    4  C   UNL     1      -8.903   9.915  68.465  1.00  0.00    -0.122 C  
HETATM    5  CA  UNL     1     -10.389   9.374  70.534  1.00  0.00    -0.281 C  
HETATM    6  C   UNL     1      -9.981   7.706  68.638  1.00  0.00    -0.181 C  
HETATM    7  N   UNL     1     -10.257   8.496  71.710  1.00  0.00    -0.254 N  
HETATM    8  C   UNL     1     -10.192  10.824  71.014  1.00  0.00     2.523 C  
HETATM    9  OXT UNL     1     -10.115  11.800  70.285  1.00  0.00     1.767 OA 
HETATM   10  O   UNL     1     -10.190  10.947  72.366  1.00  0.00     7.235 OA 
HETATM   11  C   UNL     1     -10.924   7.296  71.711  1.00  0.00    -0.227 C  
HETATM   12  CA  UNL     1      -9.631   6.507  72.104  1.00  0.00    -0.148 C  
HETATM   13  O   UNL     1     -12.078   7.107  71.411  1.00  0.00    -0.304 OA 
ENDROOT
BRANCH  12  14
HETATM   14  N   UNL     1      -9.099   5.433  71.221  1.00  0.00    -0.141 N  
HETATM   15  C   UNL     1      -9.882   4.500  70.574  1.00  0.00    -0.227 C  
HETATM   16  H   UNL     1      -8.089   5.384  71.085  1.00  0.00     0.000 HD 
HETATM   17  O   UNL     1     -11.103   4.491  70.663  1.00  0.00     0.925 OA 
BRANCH  15  18
HETATM   18  C   UNL     1      -9.161   3.479  69.741  1.00  0.00    -0.219 A  
HETATM   19  C   UNL     1      -8.411   2.466  70.385  1.00  0.00    -0.045 A  
HETATM   20  C   UNL     1      -7.794   1.480  69.615  1.00  0.00    -0.047 A  
HETATM   21  C   UNL     1     -10.149   4.382  66.172  1.00  0.00    -0.257 A  
HETATM   22  C   UNL     1      -7.943   1.468  68.231  1.00  0.00    -0.058 A  
HETATM   23  C   UNL     1      -9.301   3.494  68.313  1.00  0.00    -0.235 A  
HETATM   24  C   UNL     1     -10.000   4.474  67.560  1.00  0.00    -0.152 A  
HETATM   25  C   UNL     1      -8.696   2.445  67.574  1.00  0.00    -0.139 A  
HETATM   26  C   UNL     1      -8.852   2.365  66.180  1.00  0.00    -0.128 A  
HETATM   27  C   UNL     1      -9.588   3.318  65.484  1.00  0.00    -0.052 A  
BRANCH  19  28
HETATM   28  O   UNL     1      -8.338   2.501  71.757  1.00  0.00    -0.056 OA 
BRANCH  28  29
HETATM   29  C   UNL     1      -9.012   1.473  72.485  1.00  0.00    -0.061 C  
HETATM   30  C   UNL     1      -9.526   2.074  73.783  1.00  0.00    -0.096 C  
ENDBRANCH  28  29
ENDBRANCH  19  28
ENDBRANCH  15  18
ENDBRANCH  12  14
TORSDOF 4
ENDMDL
MODEL      201
REMARK 921   NORMALIZED FREE ENERGY PREDICTED BY IDOCK:    9.26 KCAL/MOL
REMARK 922        TOTAL FREE ENERGY PREDICTED BY IDOCK:   10.29 KCAL/MOL
REMARK 923 INTER-LIGAND FREE ENERGY PREDICTED BY IDOCK:   11.08 KCAL/MOL
REMARK 924 INTRA-LIGAND FREE ENERGY PREDICTED BY IDOCK:   -0.79 KCAL/MOL
REMARK 927      BINDING AFFINITY PREDICTED BY RF-SCORE:    0.00 PKD
ROOT
HETATM    1  C   UNL     1      -9.222   7.235  69.942  1.00  0.00    -0.141 C  
HETATM    2  S   UNL     1      -7.634   7.783  69.197  1.00  0.00    -0.101 SA 
HETATM    3  C   UNL     1      -8.171   9.546  68.998  1.00  0.00    -0.113 C  
HETATM    4  C   UNL     1      -6.966  10.479  69.141  1.00  0.00    -0.080 C  
HETATM    5  CA  UNL     1      -9.297   9.747  70.040  1.00  0.00    -0.235 C  
HETATM    6  C   UNL     1      -8.689   9.709  67.556  1.00  0.00    -0.126 C  
HETATM    7  N   UNL     1     -10.005   8.461  70.172  1.00  0.00    -0.185 N  
HETATM    8  C   UNL     1      -8.853  10.177  71.450  1.00  0.00     2.831 C  
HETATM    9  OXT UNL     1      -8.135  11.133  71.697  1.00  0.00     6.300 OA 
HETATM   10  O   UNL     1      -9.406   9.431  72.440  1.00  0.00     0.284 OA 
HETATM   11  C   UNL     1     -10.968   8.144  69.245  1.00  0.00     0.046 C  
HETATM   12  CA  UNL     1     -10.336   6.737  68.979  1.00  0.00    -0.195 C  
HETATM   13  O   UNL     1     -11.858   8.858  68.850  1.00  0.00     1.044 OA 
ENDROOT
BRANCH  12  14
HETATM   14  N   UNL     1      -9.870   6.360  67.616  1.00  0.00    -0.117 N  
HETATM   15  C   UNL     1      -9.389   5.113  67.277  1.00  0.00    -0.122 C  
HETATM   16  H   UNL     1      -9.908   7.071  66.886  1.00  0.00     0.000 HD 
HETATM   17  O   UNL     1      -9.322   4.193  68.082  1.00  0.00    -0.137 OA 
BRANCH  15  18
HETATM   18  C   UNL     1      -8.944   4.928  65.855  1.00  0.00    -0.134 A  
HETATM   19  C   UNL     1      -7.893   5.731  65.349  1.00  0.00    -0.107 A  
HETATM   20  C   UNL     1      -7.437   5.516  64.049  1.00  0.00    -0.062 A  
HETATM   21  C   UNL     1     -11.079   2.021  64.623  1.00  0.00     1.762 A  
HETATM   22  C   UNL     1      -7.979   4.501  63.268  1.00  0.00    -0.080 A  
HETATM   23  C   UNL     1      -9.530   3.895  65.051  1.00  0.00    -0.170 A  
HETATM   24  C   UNL     1     -10.606   3.054  65.440  1.00  0.00     1.371 A  
HETATM   25  C   UNL     1      -9.003   3.681  63.752  1.00  0.00    -0.098 A  
HETATM   26  C   UNL     1      -9.488   2.642  62.940  1.00  0.00    -0.093 A  
HETATM   27  C   UNL     1     -10.509   1.805  63.378  1.00  0.00    -0.142 A  
BRANCH  19  28
HETATM   28  O   UNL     1      -7.363   6.687  66.183  1.00  0.00    -0.073 OA 
BRANCH  28  29
HETATM   29  C   UNL     1      -6.059   7.184  65.880  1.00  0.00    -0.037 C  
HETATM   30  C   UNL     1      -5.130   6.796  67.017  1.00  0.00    -0.009 C  
ENDBRANCH  28  29
ENDBRANCH  19  28
ENDBRANCH  15  18
ENDBRANCH  12  14
TORSDOF 4
ENDMDL
MODEL      202
REMARK 921   NORMALIZED FREE ENERGY PREDICTED BY IDOCK:   10.04 KCAL/MOL
REMARK 922        TOTAL FREE ENERGY PREDICTED BY IDOCK:   11.25 KCAL/MOL
REMARK 923 INTER-LIGAND FREE ENERGY PREDICTED BY IDOCK:    9.61 KCAL/MOL
REMARK 924 INTRA-LIGAND FREE ENERGY PREDICTED BY IDOCK:    1.64 KCAL/MOL
REMARK 927      BINDING AFFINITY PREDICTED BY RF-SCORE:    0.00 PKD
ROOT
HETATM    1  C   UNL     1     -12.141  16.180  71.534  1.00  0.00    -0.381 C  
HETATM    2  S   UNL     1     -12.760  15.436  69.972  1.00  0.00    -0.037 SA 
HETATM    3  C   UNL     1     -12.103  13.745  70.349  1.00  0.00    -0.350 C  
HETATM    4  C   UNL     1     -13.015  12.679  69.734  1.00  0.00     0.991 C  
HETATM    5  CA  UNL     1     -11.968  13.697  71.890  1.00  0.00     0.782 C  
HETATM    6  C   UNL     1     -10.736  13.615  69.650  1.00  0.00     0.218 C  
HETATM    7  N   UNL     1     -11.632  15.058  72.342  1.00  0.00    -0.341 N  
HETATM    8  C   UNL     1     -13.215  13.244  72.670  1.00  0.00    -0.266 C  
HETATM    9  OXT UNL     1     -13.839  12.216  72.461  1.00  0.00    -0.107 OA 
HETATM   10  O   UNL     1     -13.534  14.068  73.701  1.00  0.00     0.138 OA 
HETATM   11  C   UNL     1     -10.323  15.468  72.276  1.00  0.00     2.377 C  
HETATM   12  CA  UNL     1     -10.709  16.786  71.525  1.00  0.00     1.679 C  
HETATM   13  O   UNL     1      -9.351  14.856  72.647  1.00  0.00     4.807 OA 
ENDROOT
BRANCH  12  14
HETATM   14  N   UNL     1     -10.157  17.080  70.174  1.00  0.00     0.551 N  
HETATM   15  C   UNL     1      -8.934  16.633  69.720  1.00  0.00     0.753 C  
HETATM   16  H   UNL     1     -10.721  17.650  69.543  1.00  0.00     0.000 HD 
HETATM   17  O   UNL     1      -8.198  15.930  70.400  1.00  0.00     0.992 OA 
BRANCH  15  18
HETATM   18  C   UNL     1      -8.538  17.051  68.334  1.00  0.00    -0.243 A  
HETATM   19  C   UNL     1      -8.660  16.124  67.270  1.00  0.00    -0.178 A  
HETATM   20  C   UNL     1      -8.353  16.532  65.972  1.00  0.00    -0.164 A  
HETATM   21  C   UNL     1      -7.580  20.717  68.748  1.00  0.00     0.517 A  
HETATM   22  C   UNL     1      -7.968  17.845  65.716  1.00  0.00     0.088 A  
HETATM   23  C   UNL     1      -8.117  18.400  68.087  1.00  0.00    -0.305 A  
HETATM   24  C   UNL     1      -7.929  19.402  69.076  1.00  0.00    -0.301 A  
HETATM   25  C   UNL     1      -7.860  18.783  66.746  1.00  0.00    -0.255 A  
HETATM   26  C   UNL     1      -7.509  20.106  66.430  1.00  0.00    -0.311 A  
HETATM   27  C   UNL     1      -7.386  21.073  67.423  1.00  0.00    -0.311 A  
BRANCH  19  28
HETATM   28  O   UNL     1      -9.091  14.856  67.576  1.00  0.00    -0.176 OA 
BRANCH  28  29
HETATM   29  C   UNL     1     -10.268  14.378  66.924  1.00  0.00    -0.265 C  
HETATM   30  C   UNL     1     -10.887  15.536  66.160  1.00  0.00    -0.295 C  
ENDBRANCH  28  29
ENDBRANCH  19  28
ENDBRANCH  15  18
ENDBRANCH  12  14
TORSDOF 4
ENDMDL
MODEL      203
REMARK 921   NORMALIZED FREE ENERGY PREDICTED BY IDOCK:   11.18 KCAL/MOL
REMARK 922        TOTAL FREE ENERGY PREDICTED BY IDOCK:   12.65 KCAL/MOL
REMARK 923 INTER-LIGAND FREE ENERGY PREDICTED BY IDOCK:    4.30 KCAL/MOL
REMARK 924 INTRA-LIGAND FREE ENERGY PREDICTED BY IDOCK:    8.36 KCAL/MOL
REMARK 927      BINDING AFFINITY PREDICTED BY RF-SCORE:    0.00 PKD
ROOT
HETATM    1  C   UNL     1     -11.135  14.819  67.046  1.00  0.00    -0.333 C  
HETATM    2  S   UNL     1     -11.464  13.748  68.502  1.00  0.00    -0.331 SA 
HETATM    3  C   UNL     1     -10.495  14.803  69.678  1.00  0.00    -0.111 C  
HETATM    4  C   UNL     1     -11.112  14.732  71.077  1.00  0.00    -0.024 C  
HETATM    5  CA  UNL     1     -10.468  16.210  69.032  1.00  0.00    -0.261 C  
HETATM    6  C   UNL     1      -9.083  14.196  69.786  1.00  0.00     1.088 C  
HETATM    7  N   UNL     1     -10.463  16.020  67.571  1.00  0.00    -0.291 N  
HETATM    8  C   UNL     1     -11.648  17.139  69.373  1.00  0.00     1.202 C  
HETATM    9  OXT UNL     1     -12.023  17.410  70.503  1.00  0.00     2.388 OA 
HETATM   10  O   UNL     1     -12.209  17.719  68.282  1.00  0.00     2.039 OA 
HETATM   11  C   UNL     1      -9.268  15.751  66.949  1.00  0.00    -0.229 C  
HETATM   12  CA  UNL     1      -9.866  14.514  66.199  1.00  0.00    -0.318 C  
HETATM   13  O   UNL     1      -8.220  16.327  67.111  1.00  0.00    -0.164 OA 
ENDROOT
BRANCH  12  14
HETATM   14  N   UNL     1      -9.289  13.155  66.396  1.00  0.00    -0.400 N  
HETATM   15  C   UNL     1      -8.249  12.870  67.256  1.00  0.00    -0.176 C  
HETATM   16  H   UNL     1      -9.689  12.385  65.860  1.00  0.00     0.000 HD 
HETATM   17  O   UNL     1      -7.718  13.726  67.952  1.00  0.00    -0.129 OA 
BRANCH  15  18
HETATM   18  C   UNL     1      -7.788  11.442  67.302  1.00  0.00    -0.149 A  
HETATM   19  C   UNL     1      -6.592  11.122  67.989  1.00  0.00    -0.058 A  
HETATM   20  C   UNL     1      -6.198   9.788  68.087  1.00  0.00    -0.055 A  
HETATM   21  C   UNL     1     -10.565   9.551  65.501  1.00  0.00     0.869 A  
HETATM   22  C   UNL     1      -6.987   8.776  67.548  1.00  0.00    -0.075 A  
HETATM   23  C   UNL     1      -8.598  10.411  66.719  1.00  0.00    -0.125 A  
HETATM   24  C   UNL     1      -9.793  10.615  65.981  1.00  0.00    -0.280 A  
HETATM   25  C   UNL     1      -8.182   9.065  66.883  1.00  0.00    -0.116 A  
HETATM   26  C   UNL     1      -8.965   8.005  66.394  1.00  0.00    -0.204 A  
HETATM   27  C   UNL     1     -10.158   8.245  65.721  1.00  0.00     0.701 A  
BRANCH  19  28
HETATM   28  O   UNL     1      -5.879  12.158  68.543  1.00  0.00    -0.052 OA 
BRANCH  28  29
HETATM   29  C   UNL     1      -5.205  13.051  67.654  1.00  0.00    -0.071 C  
HETATM   30  C   UNL     1      -5.992  14.349  67.603  1.00  0.00    -0.042 C  
ENDBRANCH  28  29
ENDBRANCH  19  28
ENDBRANCH  15  18
ENDBRANCH  12  14
TORSDOF 4
ENDMDL
MODEL      204
REMARK 921   NORMALIZED FREE ENERGY PREDICTED BY IDOCK:   11.94 KCAL/MOL
REMARK 922        TOTAL FREE ENERGY PREDICTED BY IDOCK:   13.60 KCAL/MOL
REMARK 923 INTER-LIGAND FREE ENERGY PREDICTED BY IDOCK:    6.82 KCAL/MOL
REMARK 924 INTRA-LIGAND FREE ENERGY PREDICTED BY IDOCK:    6.78 KCAL/MOL
REMARK 927      BINDING AFFINITY PREDICTED BY RF-SCORE:    0.00 PKD
ROOT
HETATM    1  C   UNL     1     -11.610   8.439  70.930  1.00  0.00    -0.262 C  
HETATM    2  S   UNL     1     -12.197   6.799  70.346  1.00  0.00     0.072 SA 
HETATM    3  C   UNL     1     -10.916   5.846  71.286  1.00  0.00    -0.259 C  
HETATM    4  C   UNL     1     -11.478   4.485  71.705  1.00  0.00     1.220 C  
HETATM    5  CA  UNL     1     -10.489   6.777  72.447  1.00  0.00    -0.204 C  
HETATM    6  C   UNL     1      -9.750   5.564  70.319  1.00  0.00    -0.242 C  
HETATM    7  N   UNL     1     -10.590   8.162  71.956  1.00  0.00    -0.247 N  
HETATM    8  C   UNL     1     -11.321   6.681  73.738  1.00  0.00     0.785 C  
HETATM    9  OXT UNL     1     -11.559   5.649  74.345  1.00  0.00     1.357 OA 
HETATM   10  O   UNL     1     -11.719   7.890  74.213  1.00  0.00     3.222 OA 
HETATM   11  C   UNL     1      -9.554   8.673  71.213  1.00  0.00    -0.225 C  
HETATM   12  CA  UNL     1     -10.522   9.159  70.083  1.00  0.00    -0.218 C  
HETATM   13  O   UNL     1      -8.376   8.603  71.467  1.00  0.00    -0.148 OA 
ENDROOT
BRANCH  12  14
HETATM   14  N   UNL     1     -10.374   8.657  68.689  1.00  0.00    -0.198 N  
HETATM   15  C   UNL     1      -9.247   8.025  68.206  1.00  0.00    -0.134 C  
HETATM   16  H   UNL     1     -11.158   8.790  68.049  1.00  0.00     0.000 HD 
HETATM   17  O   UNL     1      -8.266   7.807  68.904  1.00  0.00    -0.124 OA 
BRANCH  15  18
HETATM   18  C   UNL     1      -9.277   7.609  66.764  1.00  0.00    -0.197 A  
HETATM   19  C   UNL     1      -8.847   8.522  65.771  1.00  0.00    -0.190 A  
HETATM   20  C   UNL     1      -8.814   8.114  64.438  1.00  0.00     0.385 A  
HETATM   21  C   UNL     1     -10.436   3.981  66.907  1.00  0.00     0.809 A  
HETATM   22  C   UNL     1      -9.163   6.813  64.088  1.00  0.00     1.675 A  
HETATM   23  C   UNL     1      -9.665   6.272  66.414  1.00  0.00    -0.146 A  
HETATM   24  C   UNL     1     -10.141   5.286  67.316  1.00  0.00    -0.234 A  
HETATM   25  C   UNL     1      -9.571   5.887  65.052  1.00  0.00     0.749 A  
HETATM   26  C   UNL     1      -9.871   4.574  64.653  1.00  0.00    -0.023 A  
HETATM   27  C   UNL     1     -10.286   3.620  65.577  1.00  0.00     0.171 A  
BRANCH  19  28
HETATM   28  O   UNL     1      -8.468   9.778  66.182  1.00  0.00    -0.122 OA 
BRANCH  28  29
HETATM   29  C   UNL     1      -9.051  10.289  67.381  1.00  0.00    -0.138 C  
HETATM   30  C   UNL     1     -10.553  10.379  67.175  1.00  0.00    -0.319 C  
ENDBRANCH  28  29
ENDBRANCH  19  28
ENDBRANCH  15  18
ENDBRANCH  12  14
TORSDOF 4
ENDMDL
MODEL      205
REMARK 921   NORMALIZED FREE ENERGY PREDICTED BY IDOCK:   15.59 KCAL/MOL
REMARK 922        TOTAL FREE ENERGY PREDICTED BY IDOCK:   18.09 KCAL/MOL
REMARK 923 INTER-LIGAND FREE ENERGY PREDICTED BY IDOCK:   19.02 KCAL/MOL
REMARK 924 INTRA-LIGAND FREE ENERGY PREDICTED BY IDOCK:   -0.92 KCAL/MOL
REMARK 927      BINDING AFFINITY PREDICTED BY RF-SCORE:    0.00 PKD
ROOT
HETATM    1  C   UNL     1      -6.243  11.838  71.203  1.00  0.00     1.124 C  
HETATM    2  S   UNL     1      -5.193  12.220  69.745  1.00  0.00    -0.084 SA 
HETATM    3  C   UNL     1      -6.523  13.152  68.852  1.00  0.00    -0.097 C  
HETATM    4  C   UNL     1      -5.903  14.263  68.000  1.00  0.00    -0.138 C  
HETATM    5  CA  UNL     1      -7.499  13.624  69.957  1.00  0.00     1.058 C  
HETATM    6  C   UNL     1      -7.197  12.169  67.874  1.00  0.00    -0.102 C  
HETATM    7  N   UNL     1      -7.490  12.600  71.015  1.00  0.00     5.010 N  
HETATM    8  C   UNL     1      -7.176  14.976  70.618  1.00  0.00     0.746 C  
HETATM    9  OXT UNL     1      -6.981  16.022  70.019  1.00  0.00    -0.029 OA 
HETATM   10  O   UNL     1      -7.204  14.932  71.975  1.00  0.00     2.096 OA 
HETATM   11  C   UNL     1      -8.271  11.482  70.853  1.00  0.00     6.327 C  
HETATM   12  CA  UNL     1      -7.074  10.524  71.169  1.00  0.00     1.569 C  
HETATM   13  O   UNL     1      -9.428  11.448  70.510  1.00  0.00     2.596 OA 
ENDROOT
BRANCH  12  14
HETATM   14  N   UNL     1      -6.622   9.518  70.168  1.00  0.00    -0.063 N  
HETATM   15  C   UNL     1      -7.407   8.489  69.692  1.00  0.00    -0.060 C  
HETATM   16  H   UNL     1      -5.670   9.596  69.811  1.00  0.00     0.000 HD 
HETATM   17  O   UNL     1      -8.567   8.327  70.049  1.00  0.00    -0.125 OA 
BRANCH  15  18
HETATM   18  C   UNL     1      -6.768   7.561  68.700  1.00  0.00    -0.054 A  
HETATM   19  C   UNL     1      -5.804   6.625  69.148  1.00  0.00    -0.018 A  
HETATM   20  C   UNL     1      -5.258   5.720  68.238  1.00  0.00    -0.004 A  
HETATM   21  C   UNL     1      -8.539   8.395  65.429  1.00  0.00    -0.193 A  
HETATM   22  C   UNL     1      -5.680   5.709  66.912  1.00  0.00    -0.017 A  
HETATM   23  C   UNL     1      -7.193   7.577  67.329  1.00  0.00    -0.086 A  
HETATM   24  C   UNL     1      -8.124   8.486  66.762  1.00  0.00    -0.098 A  
HETATM   25  C   UNL     1      -6.645   6.608  66.450  1.00  0.00    -0.044 A  
HETATM   26  C   UNL     1      -7.069   6.528  65.113  1.00  0.00    -0.060 A  
HETATM   27  C   UNL     1      -8.023   7.405  64.608  1.00  0.00    -0.127 A  
BRANCH  19  28
HETATM   28  O   UNL     1      -5.462   6.652  70.479  1.00  0.00    -0.021 OA 
BRANCH  28  29
HETATM   29  C   UNL     1      -6.370   6.063  71.411  1.00  0.00    -0.048 C  
HETATM   30  C   UNL     1      -5.988   6.534  72.803  1.00  0.00    -0.042 C  
ENDBRANCH  28  29
ENDBRANCH  19  28
ENDBRANCH  15  18
ENDBRANCH  12  14
TORSDOF 4
ENDMDL
MODEL      206
REMARK 921   NORMALIZED FREE ENERGY PREDICTED BY IDOCK:   25.79 KCAL/MOL
REMARK 922        TOTAL FREE ENERGY PREDICTED BY IDOCK:   30.69 KCAL/MOL
REMARK 923 INTER-LIGAND FREE ENERGY PREDICTED BY IDOCK:   28.87 KCAL/MOL
REMARK 924 INTRA-LIGAND FREE ENERGY PREDICTED BY IDOCK:    1.81 KCAL/MOL
REMARK 927      BINDING AFFINITY PREDICTED BY RF-SCORE:    0.00 PKD
ROOT
HETATM    1  C   UNL     1      -9.048   5.794  67.512  1.00  0.00    -0.106 C  
HETATM    2  S   UNL     1      -8.727   5.442  69.286  1.00  0.00    -0.102 SA 
HETATM    3  C   UNL     1     -10.518   5.458  69.762  1.00  0.00    -0.307 C  
HETATM    4  C   UNL     1     -10.761   4.487  70.920  1.00  0.00     0.425 C  
HETATM    5  CA  UNL     1     -11.287   5.146  68.456  1.00  0.00     2.075 C  
HETATM    6  C   UNL     1     -10.840   6.869  70.293  1.00  0.00    -0.294 C  
HETATM    7  N   UNL     1     -10.510   5.718  67.343  1.00  0.00    -0.230 N  
HETATM    8  C   UNL     1     -11.518   3.657  68.141  1.00  0.00     9.139 C  
HETATM    9  OXT UNL     1     -12.021   2.848  68.905  1.00  0.00    13.511 OA 
HETATM   10  O   UNL     1     -11.181   3.317  66.871  1.00  0.00     4.657 OA 
HETATM   11  C   UNL     1     -10.651   7.056  67.064  1.00  0.00    -0.341 C  
HETATM   12  CA  UNL     1      -9.102   7.284  67.071  1.00  0.00    -0.135 C  
HETATM   13  O   UNL     1     -11.685   7.671  66.964  1.00  0.00     1.334 OA 
ENDROOT
BRANCH  12  14
HETATM   14  N   UNL     1      -8.481   8.246  68.023  1.00  0.00    -0.131 N  
HETATM   15  C   UNL     1      -7.249   8.065  68.616  1.00  0.00    -0.081 C  
HETATM   16  H   UNL     1      -9.001   9.093  68.251  1.00  0.00     0.000 HD 
HETATM   17  O   UNL     1      -6.547   7.089  68.389  1.00  0.00    -0.051 OA 
BRANCH  15  18
HETATM   18  C   UNL     1      -6.798   9.136  69.567  1.00  0.00    -0.048 A  
HETATM   19  C   UNL     1      -6.177   8.765  70.784  1.00  0.00    -0.039 A  
HETATM   20  C   UNL     1      -5.701   9.760  71.638  1.00  0.00     0.004 A  
HETATM   21  C   UNL     1      -7.590  12.369  67.708  1.00  0.00    -0.134 A  
HETATM   22  C   UNL     1      -5.800  11.102  71.284  1.00  0.00     0.289 A  
HETATM   23  C   UNL     1      -6.930  10.518  69.202  1.00  0.00    -0.080 A  
HETATM   24  C   UNL     1      -7.561  11.007  68.028  1.00  0.00    -0.092 A  
HETATM   25  C   UNL     1      -6.390  11.493  70.079  1.00  0.00    -0.116 A  
HETATM   26  C   UNL     1      -6.427  12.858  69.748  1.00  0.00    -0.003 A  
HETATM   27  C   UNL     1      -7.009  13.294  68.561  1.00  0.00    -0.103 A  
BRANCH  19  28
HETATM   28  O   UNL     1      -6.064   7.423  71.058  1.00  0.00    -0.035 OA 
BRANCH  28  29
HETATM   29  C   UNL     1      -7.144   6.792  71.749  1.00  0.00    -0.075 C  
HETATM   30  C   UNL     1      -6.655   5.449  72.261  1.00  0.00    -0.057 C  
ENDBRANCH  28  29
ENDBRANCH  19  28
ENDBRANCH  15  18
ENDBRANCH  12  14
TORSDOF 4
ENDMDL
MODEL      207
REMARK 921   NORMALIZED FREE ENERGY PREDICTED BY IDOCK:   28.31 KCAL/MOL
REMARK 922        TOTAL FREE ENERGY PREDICTED BY IDOCK:   33.79 KCAL/MOL
REMARK 923 INTER-LIGAND FREE ENERGY PREDICTED BY IDOCK:   32.50 KCAL/MOL
REMARK 924 INTRA-LIGAND FREE ENERGY PREDICTED BY IDOCK:    1.29 KCAL/MOL
REMARK 927      BINDING AFFINITY PREDICTED BY RF-SCORE:    0.00 PKD
ROOT
HETATM    1  C   UNL     1     -12.084  16.106  71.821  1.00  0.00    -0.451 C  
HETATM    2  S   UNL     1     -13.041  15.727  70.299  1.00  0.00     0.697 SA 
HETATM    3  C   UNL     1     -12.688  13.908  70.357  1.00  0.00    -0.220 C  
HETATM    4  C   UNL     1     -13.866  13.127  69.769  1.00  0.00     4.112 C  
HETATM    5  CA  UNL     1     -12.360  13.606  71.840  1.00  0.00     0.080 C  
HETATM    6  C   UNL     1     -11.479  13.644  69.438  1.00  0.00    -0.343 C  
HETATM    7  N   UNL     1     -11.705  14.803  72.395  1.00  0.00    -0.200 N  
HETATM    8  C   UNL     1     -13.557  13.271  72.747  1.00  0.00    -0.140 C  
HETATM    9  OXT UNL     1     -14.395  12.413  72.516  1.00  0.00     0.027 OA 
HETATM   10  O   UNL     1     -13.566  13.974  73.908  1.00  0.00     1.299 OA 
HETATM   11  C   UNL     1     -10.361  14.979  72.171  1.00  0.00     2.273 C  
HETATM   12  CA  UNL     1     -10.575  16.442  71.659  1.00  0.00     1.827 C  
HETATM   13  O   UNL     1      -9.489  14.155  72.306  1.00  0.00     6.104 OA 
ENDROOT
BRANCH  12  14
HETATM   14  N   UNL     1     -10.161  16.832  70.283  1.00  0.00     0.620 N  
HETATM   15  C   UNL     1      -9.255  16.130  69.515  1.00  0.00    -0.063 C  
HETATM   16  H   UNL     1     -10.574  17.674  69.882  1.00  0.00     0.000 HD 
HETATM   17  O   UNL     1      -8.721  15.100  69.906  1.00  0.00    -0.072 OA 
BRANCH  15  18
HETATM   18  C   UNL     1      -8.946  16.693  68.158  1.00  0.00    -0.210 A  
HETATM   19  C   UNL     1      -8.783  18.091  68.009  1.00  0.00    -0.261 A  
HETATM   20  C   UNL     1      -8.433  18.607  66.761  1.00  0.00    -0.292 A  
HETATM   21  C   UNL     1      -8.631  13.594  65.960  1.00  0.00     0.964 A  
HETATM   22  C   UNL     1      -8.210  17.758  65.682  1.00  0.00     0.451 A  
HETATM   23  C   UNL     1      -8.745  15.807  67.046  1.00  0.00    -0.251 A  
HETATM   24  C   UNL     1      -8.912  14.398  67.071  1.00  0.00    -0.257 A  
HETATM   25  C   UNL     1      -8.345  16.373  65.808  1.00  0.00     0.383 A  
HETATM   26  C   UNL     1      -8.068  15.555  64.701  1.00  0.00     9.005 A  
HETATM   27  C   UNL     1      -8.193  14.172  64.779  1.00  0.00     7.784 A  
BRANCH  19  28
HETATM   28  O   UNL     1      -8.969  18.876  69.121  1.00  0.00    -0.192 OA 
BRANCH  28  29
HETATM   29  C   UNL     1      -7.867  19.669  69.568  1.00  0.00     0.137 C  
HETATM   30  C   UNL     1      -6.642  19.268  68.764  1.00  0.00    -0.308 C  
ENDBRANCH  28  29
ENDBRANCH  19  28
ENDBRANCH  15  18
ENDBRANCH  12  14
TORSDOF 4
ENDMDL
MODEL      208
REMARK 921   NORMALIZED FREE ENERGY PREDICTED BY IDOCK:   29.14 KCAL/MOL
REMARK 922        TOTAL FREE ENERGY PREDICTED BY IDOCK:   34.81 KCAL/MOL
REMARK 923 INTER-LIGAND FREE ENERGY PREDICTED BY IDOCK:   24.03 KCAL/MOL
REMARK 924 INTRA-LIGAND FREE ENERGY PREDICTED BY IDOCK:   10.78 KCAL/MOL
REMARK 927      BINDING AFFINITY PREDICTED BY RF-SCORE:    0.00 PKD
ROOT
HETATM    1  C   UNL     1      -5.970  11.994  66.535  1.00  0.00     0.349 C  
HETATM    2  S   UNL     1      -7.424  11.579  65.491  1.00  0.00     1.087 SA 
HETATM    3  C   UNL     1      -8.476  12.950  66.161  1.00  0.00     0.703 C  
HETATM    4  C   UNL     1      -9.435  13.451  65.078  1.00  0.00     0.457 C  
HETATM    5  CA  UNL     1      -7.477  14.000  66.704  1.00  0.00     1.258 C  
HETATM    6  C   UNL     1      -9.348  12.355  67.284  1.00  0.00    -0.184 C  
HETATM    7  N   UNL     1      -6.299  13.267  67.200  1.00  0.00     0.188 N  
HETATM    8  C   UNL     1      -6.977  15.051  65.695  1.00  0.00     7.262 C  
HETATM    9  OXT UNL     1      -7.695  15.752  65.000  1.00  0.00     4.291 OA 
HETATM   10  O   UNL     1      -5.628  15.200  65.697  1.00  0.00     5.982 OA 
HETATM   11  C   UNL     1      -6.349  12.718  68.458  1.00  0.00    -0.075 C  
HETATM   12  CA  UNL     1      -5.872  11.322  67.934  1.00  0.00    -0.043 C  
HETATM   13  O   UNL     1      -6.730  13.255  69.470  1.00  0.00    -0.081 OA 
ENDROOT
BRANCH  12  14
HETATM   14  N   UNL     1      -6.722  10.113  68.113  1.00  0.00    -0.062 N  
HETATM   15  C   UNL     1      -7.788   9.785  67.301  1.00  0.00    -0.098 C  
HETATM   16  H   UNL     1      -6.501   9.486  68.887  1.00  0.00     0.000 HD 
HETATM   17  O   UNL     1      -8.115  10.467  66.340  1.00  0.00    -0.124 OA 
BRANCH  15  18
HETATM   18  C   UNL     1      -8.540   8.535  67.654  1.00  0.00    -0.133 A  
HETATM   19  C   UNL     1      -9.956   8.547  67.625  1.00  0.00    -0.198 A  
HETATM   20  C   UNL     1     -10.654   7.369  67.889  1.00  0.00    -0.255 A  
HETATM   21  C   UNL     1      -5.782   5.971  68.245  1.00  0.00    -0.012 A  
HETATM   22  C   UNL     1      -9.970   6.184  68.143  1.00  0.00    -0.158 A  
HETATM   23  C   UNL     1      -7.823   7.325  67.940  1.00  0.00    -0.118 A  
HETATM   24  C   UNL     1      -6.411   7.202  68.028  1.00  0.00    -0.048 A  
HETATM   25  C   UNL     1      -8.573   6.141  68.157  1.00  0.00    -0.115 A  
HETATM   26  C   UNL     1      -7.930   4.912  68.375  1.00  0.00    -0.085 A  
HETATM   27  C   UNL     1      -6.542   4.822  68.402  1.00  0.00    -0.046 A  
BRANCH  19  28
HETATM   28  O   UNL     1     -10.576   9.736  67.321  1.00  0.00    -0.258 OA 
BRANCH  28  29
HETATM   29  C   UNL     1     -11.835  10.005  67.938  1.00  0.00     1.387 C  
HETATM   30  C   UNL     1     -12.239   8.781  68.742  1.00  0.00     3.156 C  
ENDBRANCH  28  29
ENDBRANCH  19  28
ENDBRANCH  15  18
ENDBRANCH  12  14
TORSDOF 4
ENDMDL
MODEL      209
REMARK 921   NORMALIZED FREE ENERGY PREDICTED BY IDOCK:   43.15 KCAL/MOL
REMARK 922        TOTAL FREE ENERGY PREDICTED BY IDOCK:   52.10 KCAL/MOL
REMARK 923 INTER-LIGAND FREE ENERGY PREDICTED BY IDOCK:   49.51 KCAL/MOL
REMARK 924 INTRA-LIGAND FREE ENERGY PREDICTED BY IDOCK:    2.59 KCAL/MOL
REMARK 927      BINDING AFFINITY PREDICTED BY RF-SCORE:    0.00 PKD
ROOT
HETATM    1  C   UNL     1      -8.890  18.600  70.341  1.00  0.00     2.888 C  
HETATM    2  S   UNL     1      -7.551  17.550  69.649  1.00  0.00     0.844 SA 
HETATM    3  C   UNL     1      -8.142  17.700  67.899  1.00  0.00    -0.233 C  
HETATM    4  C   UNL     1      -6.953  17.644  66.937  1.00  0.00    -0.219 C  
HETATM    5  CA  UNL     1      -8.970  19.008  67.862  1.00  0.00    -0.300 C  
HETATM    6  C   UNL     1      -9.012  16.464  67.599  1.00  0.00    -0.198 C  
HETATM    7  N   UNL     1      -9.604  19.162  69.182  1.00  0.00    -0.316 N  
HETATM    8  C   UNL     1      -8.187  20.301  67.571  1.00  0.00    -0.310 C  
HETATM    9  OXT UNL     1      -7.441  20.471  66.619  1.00  0.00    -0.265 OA 
HETATM   10  O   UNL     1      -8.461  21.304  68.444  1.00  0.00     1.022 OA 
HETATM   11  C   UNL     1     -10.767  18.476  69.435  1.00  0.00     1.041 C  
HETATM   12  CA  UNL     1     -10.206  17.896  70.777  1.00  0.00     2.532 C  
HETATM   13  O   UNL     1     -11.737  18.403  68.720  1.00  0.00     2.137 OA 
ENDROOT
BRANCH  12  14
HETATM   14  N   UNL     1     -10.097  16.426  70.981  1.00  0.00     1.697 N  
HETATM   15  C   UNL     1     -10.826  15.487  70.281  1.00  0.00    -0.339 C  
HETATM   16  H   UNL     1      -9.439  16.090  71.686  1.00  0.00     0.000 HD 
HETATM   17  O   UNL     1     -11.625  15.795  69.406  1.00  0.00    -0.326 OA 
BRANCH  15  18
HETATM   18  C   UNL     1     -10.593  14.049  70.643  1.00  0.00     1.517 A  
HETATM   19  C   UNL     1     -11.691  13.154  70.664  1.00  0.00     0.180 A  
HETATM   20  C   UNL     1     -11.465  11.806  70.938  1.00  0.00     0.932 A  
HETATM   21  C   UNL     1      -6.815  13.846  71.105  1.00  0.00     1.462 A  
HETATM   22  C   UNL     1     -10.173  11.334  71.152  1.00  0.00     4.865 A  
HETATM   23  C   UNL     1      -9.259  13.581  70.889  1.00  0.00     7.172 A  
HETATM   24  C   UNL     1      -8.093  14.388  70.925  1.00  0.00     2.963 A  
HETATM   25  C   UNL     1      -9.072  12.193  71.117  1.00  0.00    11.796 A  
HETATM   26  C   UNL     1      -7.784  11.661  71.297  1.00  0.00     7.241 A  
HETATM   27  C   UNL     1      -6.659  12.479  71.274  1.00  0.00     2.720 A  
BRANCH  19  28
HETATM   28  O   UNL     1     -12.937  13.668  70.397  1.00  0.00    -0.124 OA 
BRANCH  28  29
HETATM   29  C   UNL     1     -13.482  14.606  71.327  1.00  0.00    -0.386 C  
HETATM   30  C   UNL     1     -12.845  14.351  72.682  1.00  0.00    -0.482 C  
ENDBRANCH  28  29
ENDBRANCH  19  28
ENDBRANCH  15  18
ENDBRANCH  12  14
TORSDOF 4
ENDMDL
MODEL      210
REMARK 921   NORMALIZED FREE ENERGY PREDICTED BY IDOCK:   56.30 KCAL/MOL
REMARK 922        TOTAL FREE ENERGY PREDICTED BY IDOCK:   68.33 KCAL/MOL
REMARK 923 INTER-LIGAND FREE ENERGY PREDICTED BY IDOCK:   66.84 KCAL/MOL
REMARK 924 INTRA-LIGAND FREE ENERGY PREDICTED BY IDOCK:    1.49 KCAL/MOL
REMARK 927      BINDING AFFINITY PREDICTED BY RF-SCORE:    0.00 PKD
ROOT
HETATM    1  C   UNL     1      -6.537  12.026  71.605  1.00  0.00     3.873 C  
HETATM    2  S   UNL     1      -5.915  13.202  70.338  1.00  0.00    -0.060 SA 
HETATM    3  C   UNL     1      -7.496  14.164  70.248  1.00  0.00     0.906 C  
HETATM    4  C   UNL     1      -7.199  15.631  69.926  1.00  0.00     0.013 C  
HETATM    5  CA  UNL     1      -8.203  13.909  71.601  1.00  0.00     7.881 C  
HETATM    6  C   UNL     1      -8.308  13.607  69.063  1.00  0.00     0.271 C  
HETATM    7  N   UNL     1      -7.849  12.544  72.028  1.00  0.00    12.568 N  
HETATM    8  C   UNL     1      -7.839  14.864  72.751  1.00  0.00     6.947 C  
HETATM    9  OXT UNL     1      -7.884  16.083  72.693  1.00  0.00    10.035 OA 
HETATM   10  O   UNL     1      -7.527  14.222  73.906  1.00  0.00     3.090 OA 
HETATM   11  C   UNL     1      -8.552  11.488  71.502  1.00  0.00    11.710 C  
HETATM   12  CA  UNL     1      -7.240  10.733  71.105  1.00  0.00     2.445 C  
HETATM   13  O   UNL     1      -9.752  11.394  71.399  1.00  0.00     6.209 OA 
ENDROOT
BRANCH  12  14
HETATM   14  N   UNL     1      -6.969  10.377  69.685  1.00  0.00    -0.110 N  
HETATM   15  C   UNL     1      -7.869   9.735  68.860  1.00  0.00    -0.087 C  
HETATM   16  H   UNL     1      -6.058  10.623  69.297  1.00  0.00     0.000 HD 
HETATM   17  O   UNL     1      -8.991   9.416  69.232  1.00  0.00    -0.142 OA 
BRANCH  15  18
HETATM   18  C   UNL     1      -7.406   9.440  67.462  1.00  0.00    -0.084 A  
HETATM   19  C   UNL     1      -6.667   8.259  67.213  1.00  0.00    -0.063 A  
HETATM   20  C   UNL     1      -6.292   7.953  65.905  1.00  0.00    -0.042 A  
HETATM   21  C   UNL     1      -8.879  12.298  65.414  1.00  0.00     0.644 A  
HETATM   22  C   UNL     1      -6.671   8.777  64.849  1.00  0.00    -0.069 A  
HETATM   23  C   UNL     1      -7.781  10.312  66.386  1.00  0.00    -0.116 A  
HETATM   24  C   UNL     1      -8.491  11.534  66.521  1.00  0.00    -0.160 A  
HETATM   25  C   UNL     1      -7.419   9.937  65.067  1.00  0.00    -0.134 A  
HETATM   26  C   UNL     1      -7.813  10.713  63.965  1.00  0.00     0.131 A  
HETATM   27  C   UNL     1      -8.554  11.878  64.134  1.00  0.00     1.253 A  
BRANCH  19  28
HETATM   28  O   UNL     1      -6.363   7.458  68.288  1.00  0.00    -0.038 OA 
BRANCH  28  29
HETATM   29  C   UNL     1      -5.876   6.142  68.021  1.00  0.00    -0.016 C  
HETATM   30  C   UNL     1      -5.863   5.941  66.516  1.00  0.00    -0.017 C  
ENDBRANCH  28  29
ENDBRANCH  19  28
ENDBRANCH  15  18
ENDBRANCH  12  14
TORSDOF 4
ENDMDL
MODEL      211
REMARK 921   NORMALIZED FREE ENERGY PREDICTED BY IDOCK:   59.87 KCAL/MOL
REMARK 922        TOTAL FREE ENERGY PREDICTED BY IDOCK:   72.73 KCAL/MOL
REMARK 923 INTER-LIGAND FREE ENERGY PREDICTED BY IDOCK:   56.21 KCAL/MOL
REMARK 924 INTRA-LIGAND FREE ENERGY PREDICTED BY IDOCK:   16.52 KCAL/MOL
REMARK 927      BINDING AFFINITY PREDICTED BY RF-SCORE:    0.00 PKD
ROOT
HETATM    1  C   UNL     1     -11.688   8.430  70.946  1.00  0.00    -0.246 C  
HETATM    2  S   UNL     1     -12.718   6.923  70.737  1.00  0.00     0.155 SA 
HETATM    3  C   UNL     1     -11.443   5.778  71.442  1.00  0.00    -0.025 C  
HETATM    4  C   UNL     1     -12.125   4.608  72.155  1.00  0.00     1.600 C  
HETATM    5  CA  UNL     1     -10.545   6.671  72.334  1.00  0.00    -0.214 C  
HETATM    6  C   UNL     1     -10.658   5.179  70.259  1.00  0.00    -0.230 C  
HETATM    7  N   UNL     1     -10.503   8.006  71.713  1.00  0.00    -0.219 N  
HETATM    8  C   UNL     1     -11.001   6.852  73.793  1.00  0.00     0.124 C  
HETATM    9  OXT UNL     1     -11.263   5.943  74.564  1.00  0.00     0.647 OA 
HETATM   10  O   UNL     1     -11.013   8.149  74.196  1.00  0.00     1.604 OA 
HETATM   11  C   UNL     1      -9.626   8.222  70.678  1.00  0.00    -0.171 C  
HETATM   12  CA  UNL     1     -10.749   8.830  69.772  1.00  0.00    -0.218 C  
HETATM   13  O   UNL     1      -8.460   7.912  70.638  1.00  0.00    -0.121 OA 
ENDROOT
BRANCH  12  14
HETATM   14  N   UNL     1     -11.083   8.212  68.460  1.00  0.00    -0.339 N  
HETATM   15  C   UNL     1     -10.316   7.249  67.837  1.00  0.00    -0.201 C  
HETATM   16  H   UNL     1     -11.935   8.520  67.990  1.00  0.00     0.000 HD 
HETATM   17  O   UNL     1      -9.289   6.805  68.332  1.00  0.00    -0.127 OA 
BRANCH  15  18
HETATM   18  C   UNL     1     -10.805   6.760  66.504  1.00  0.00     0.068 A  
HETATM   19  C   UNL     1     -11.971   7.334  65.941  1.00  0.00     7.077 A  
HETATM   20  C   UNL     1     -12.388   6.925  64.675  1.00  0.00    14.337 A  
HETATM   21  C   UNL     1      -8.164   4.215  65.466  1.00  0.00    -0.105 A  
HETATM   22  C   UNL     1     -11.649   5.992  63.953  1.00  0.00     8.670 A  
HETATM   23  C   UNL     1     -10.048   5.778  65.782  1.00  0.00     0.255 A  
HETATM   24  C   UNL     1      -8.887   5.114  66.258  1.00  0.00    -0.124 A  
HETATM   25  C   UNL     1     -10.484   5.427  64.478  1.00  0.00     1.793 A  
HETATM   26  C   UNL     1      -9.750   4.522  63.694  1.00  0.00     0.090 A  
HETATM   27  C   UNL     1      -8.587   3.931  64.177  1.00  0.00    -0.098 A  
BRANCH  19  28
HETATM   28  O   UNL     1     -12.633   8.285  66.680  1.00  0.00     8.052 OA 
BRANCH  28  29
HETATM   29  C   UNL     1     -12.483   8.247  68.099  1.00  0.00     6.623 C  
HETATM   30  C   UNL     1     -13.005   6.909  68.593  1.00  0.00     7.548 C  
ENDBRANCH  28  29
ENDBRANCH  19  28
ENDBRANCH  15  18
ENDBRANCH  12  14
TORSDOF 4
ENDMDL
MODEL      212
REMARK 921   NORMALIZED FREE ENERGY PREDICTED BY IDOCK:   68.69 KCAL/MOL
REMARK 922        TOTAL FREE ENERGY PREDICTED BY IDOCK:   83.61 KCAL/MOL
REMARK 923 INTER-LIGAND FREE ENERGY PREDICTED BY IDOCK:   80.17 KCAL/MOL
REMARK 924 INTRA-LIGAND FREE ENERGY PREDICTED BY IDOCK:    3.44 KCAL/MOL
REMARK 927      BINDING AFFINITY PREDICTED BY RF-SCORE:    0.00 PKD
ROOT
HETATM    1  C   UNL     1      -8.890  18.600  70.341  1.00  0.00     2.888 C  
HETATM    2  S   UNL     1      -7.562  17.549  69.629  1.00  0.00     0.844 SA 
HETATM    3  C   UNL     1      -8.167  17.717  67.885  1.00  0.00    -0.237 C  
HETATM    4  C   UNL     1      -6.985  17.664  66.913  1.00  0.00    -0.219 C  
HETATM    5  CA  UNL     1      -8.988  19.030  67.866  1.00  0.00    -0.300 C  
HETATM    6  C   UNL     1      -9.045  16.488  67.582  1.00  0.00    -0.199 C  
HETATM    7  N   UNL     1      -9.611  19.175  69.193  1.00  0.00    -0.316 N  
HETATM    8  C   UNL     1      -8.200  20.322  67.580  1.00  0.00    -0.310 C  
HETATM    9  OXT UNL     1      -7.462  20.496  66.624  1.00  0.00    -0.265 OA 
HETATM   10  O   UNL     1      -8.462  21.318  68.464  1.00  0.00     1.256 OA 
HETATM   11  C   UNL     1     -10.775  18.493  69.449  1.00  0.00     1.041 C  
HETATM   12  CA  UNL     1     -10.206  17.899  70.781  1.00  0.00     2.532 C  
HETATM   13  O   UNL     1     -11.751  18.432  68.741  1.00  0.00     2.137 OA 
ENDROOT
BRANCH  12  14
HETATM   14  N   UNL     1     -10.103  16.426  70.972  1.00  0.00     1.697 N  
HETATM   15  C   UNL     1     -10.842  15.498  70.269  1.00  0.00    -0.339 C  
HETATM   16  H   UNL     1      -9.441  16.081  71.668  1.00  0.00     0.000 HD 
HETATM   17  O   UNL     1     -11.646  15.817  69.404  1.00  0.00    -0.326 OA 
BRANCH  15  18
HETATM   18  C   UNL     1     -10.614  14.055  70.617  1.00  0.00     1.517 A  
HETATM   19  C   UNL     1      -9.663  13.725  71.614  1.00  0.00     8.644 A  
HETATM   20  C   UNL     1      -9.498  12.391  71.982  1.00  0.00    19.387 A  
HETATM   21  C   UNL     1     -13.155  12.206  68.460  1.00  0.00     3.383 A  
HETATM   22  C   UNL     1     -10.282  11.395  71.407  1.00  0.00     6.780 A  
HETATM   23  C   UNL     1     -11.411  13.036  69.997  1.00  0.00    -0.086 A  
HETATM   24  C   UNL     1     -12.367  13.245  68.969  1.00  0.00     0.020 A  
HETATM   25  C   UNL     1     -11.241  11.698  70.436  1.00  0.00     0.408 A  
HETATM   26  C   UNL     1     -12.037  10.664  69.917  1.00  0.00    -0.372 A  
HETATM   27  C   UNL     1     -13.001  10.917  68.947  1.00  0.00     1.927 A  
BRANCH  19  28
HETATM   28  O   UNL     1      -8.952  14.755  72.181  1.00  0.00     4.325 OA 
BRANCH  28  29
HETATM   29  C   UNL     1      -8.372  14.533  73.467  1.00  0.00     9.182 C  
HETATM   30  C   UNL     1      -8.527  13.061  73.806  1.00  0.00    15.168 C  
ENDBRANCH  28  29
ENDBRANCH  19  28
ENDBRANCH  15  18
ENDBRANCH  12  14
TORSDOF 4
ENDMDL
MODEL      213
REMARK 921   NORMALIZED FREE ENERGY PREDICTED BY IDOCK:   83.83 KCAL/MOL
REMARK 922        TOTAL FREE ENERGY PREDICTED BY IDOCK:  102.30 KCAL/MOL
REMARK 923 INTER-LIGAND FREE ENERGY PREDICTED BY IDOCK:   98.95 KCAL/MOL
REMARK 924 INTRA-LIGAND FREE ENERGY PREDICTED BY IDOCK:    3.34 KCAL/MOL
REMARK 927      BINDING AFFINITY PREDICTED BY RF-SCORE:    0.00 PKD
ROOT
HETATM    1  C   UNL     1      -9.712   4.569  67.401  1.00  0.00    -0.178 C  
HETATM    2  S   UNL     1      -9.902   3.944  69.118  1.00  0.00     0.191 SA 
HETATM    3  C   UNL     1     -11.754   3.987  69.082  1.00  0.00    10.226 C  
HETATM    4  C   UNL     1     -12.321   2.870  69.963  1.00  0.00    18.359 C  
HETATM    5  CA  UNL     1     -12.132   3.911  67.583  1.00  0.00    14.574 C  
HETATM    6  C   UNL     1     -12.197   5.319  69.717  1.00  0.00     5.778 C  
HETATM    7  N   UNL     1     -11.069   4.598  66.829  1.00  0.00     0.978 N  
HETATM    8  C   UNL     1     -12.282   2.498  66.989  1.00  0.00    19.435 C  
HETATM    9  OXT UNL     1     -12.987   1.614  67.451  1.00  0.00    17.479 OA 
HETATM   10  O   UNL     1     -11.607   2.330  65.823  1.00  0.00     6.135 OA 
HETATM   11  C   UNL     1     -11.113   5.967  66.733  1.00  0.00    -0.118 C  
HETATM   12  CA  UNL     1      -9.625   6.109  67.199  1.00  0.00    -0.124 C  
HETATM   13  O   UNL     1     -12.071   6.645  66.451  1.00  0.00     2.183 OA 
ENDROOT
BRANCH  12  14
HETATM   14  N   UNL     1      -9.284   6.886  68.422  1.00  0.00    -0.126 N  
HETATM   15  C   UNL     1     -10.207   7.308  69.357  1.00  0.00    -0.192 C  
HETATM   16  H   UNL     1      -8.304   7.122  68.579  1.00  0.00     0.000 HD 
HETATM   17  O   UNL     1     -11.401   7.058  69.262  1.00  0.00    -0.120 OA 
BRANCH  15  18
HETATM   18  C   UNL     1      -9.674   8.101  70.516  1.00  0.00    -0.181 A  
HETATM   19  C   UNL     1     -10.072   9.451  70.673  1.00  0.00    -0.291 A  
HETATM   20  C   UNL     1      -9.629  10.168  71.783  1.00  0.00     3.588 A  
HETATM   21  C   UNL     1      -7.582   5.564  72.445  1.00  0.00    -0.101 A  
HETATM   22  C   UNL     1      -8.833   9.556  72.748  1.00  0.00     2.939 A  
HETATM   23  C   UNL     1      -8.832   7.466  71.489  1.00  0.00    -0.131 A  
HETATM   24  C   UNL     1      -8.345   6.135  71.419  1.00  0.00    -0.123 A  
HETATM   25  C   UNL     1      -8.443   8.220  72.626  1.00  0.00    -0.248 A  
HETATM   26  C   UNL     1      -7.676   7.636  73.648  1.00  0.00    -0.164 A  
HETATM   27  C   UNL     1      -7.261   6.311  73.567  1.00  0.00    -0.083 A  
BRANCH  19  28
HETATM   28  O   UNL     1     -10.898   9.987  69.713  1.00  0.00    -0.236 OA 
BRANCH  28  29
HETATM   29  C   UNL     1     -10.855  11.400  69.514  1.00  0.00    -0.108 C  
HETATM   30  C   UNL     1     -11.541  11.712  68.195  1.00  0.00    -0.389 C  
ENDBRANCH  28  29
ENDBRANCH  19  28
ENDBRANCH  15  18
ENDBRANCH  12  14
TORSDOF 4
ENDMDL
MODEL      214
REMARK 921   NORMALIZED FREE ENERGY PREDICTED BY IDOCK:   92.37 KCAL/MOL
REMARK 922        TOTAL FREE ENERGY PREDICTED BY IDOCK:  112.84 KCAL/MOL
REMARK 923 INTER-LIGAND FREE ENERGY PREDICTED BY IDOCK:   99.00 KCAL/MOL
REMARK 924 INTRA-LIGAND FREE ENERGY PREDICTED BY IDOCK:   13.84 KCAL/MOL
REMARK 927      BINDING AFFINITY PREDICTED BY RF-SCORE:    0.00 PKD
ROOT
HETATM    1  C   UNL     1      -9.712   4.569  67.401  1.00  0.00    -0.178 C  
HETATM    2  S   UNL     1      -9.893   3.966  69.127  1.00  0.00     0.191 SA 
HETATM    3  C   UNL     1     -11.745   4.007  69.100  1.00  0.00    10.226 C  
HETATM    4  C   UNL     1     -12.307   2.902  69.997  1.00  0.00    18.359 C  
HETATM    5  CA  UNL     1     -12.131   3.912  67.604  1.00  0.00    14.574 C  
HETATM    6  C   UNL     1     -12.185   5.347  69.721  1.00  0.00     4.965 C  
HETATM    7  N   UNL     1     -11.072   4.590  66.836  1.00  0.00     1.339 N  
HETATM    8  C   UNL     1     -12.284   2.492  67.028  1.00  0.00    19.435 C  
HETATM    9  OXT UNL     1     -12.985   1.614  67.505  1.00  0.00    17.083 OA 
HETATM   10  O   UNL     1     -11.615   2.310  65.861  1.00  0.00     6.707 OA 
HETATM   11  C   UNL     1     -11.117   5.958  66.723  1.00  0.00    -0.069 C  
HETATM   12  CA  UNL     1      -9.627   6.106  67.180  1.00  0.00    -0.124 C  
HETATM   13  O   UNL     1     -12.077   6.632  66.437  1.00  0.00     2.183 OA 
ENDROOT
BRANCH  12  14
HETATM   14  N   UNL     1      -9.280   6.898  68.391  1.00  0.00    -0.126 N  
HETATM   15  C   UNL     1      -9.922   6.782  69.607  1.00  0.00    -0.173 C  
HETATM   16  H   UNL     1      -8.517   7.572  68.318  1.00  0.00     0.000 HD 
HETATM   17  O   UNL     1     -10.835   5.989  69.794  1.00  0.00    -0.294 OA 
BRANCH  15  18
HETATM   18  C   UNL     1      -9.443   7.683  70.708  1.00  0.00    -0.162 A  
HETATM   19  C   UNL     1      -9.675   7.314  72.055  1.00  0.00    -0.157 A  
HETATM   20  C   UNL     1      -9.175   8.118  73.078  1.00  0.00    -0.343 A  
HETATM   21  C   UNL     1      -7.630  10.474  68.851  1.00  0.00    -0.108 A  
HETATM   22  C   UNL     1      -8.424   9.252  72.784  1.00  0.00     1.557 A  
HETATM   23  C   UNL     1      -8.693   8.865  70.390  1.00  0.00    -0.200 A  
HETATM   24  C   UNL     1      -8.428   9.348  69.082  1.00  0.00    -0.134 A  
HETATM   25  C   UNL     1      -8.165   9.627  71.463  1.00  0.00     1.053 A  
HETATM   26  C   UNL     1      -7.366  10.756  71.217  1.00  0.00     3.085 A  
HETATM   27  C   UNL     1      -7.085  11.169  69.919  1.00  0.00     0.076 A  
BRANCH  19  28
HETATM   28  O   UNL     1     -10.382   6.157  72.286  1.00  0.00    -0.188 OA 
BRANCH  28  29
HETATM   29  C   UNL     1     -11.737   6.106  71.840  1.00  0.00    -0.279 C  
HETATM   30  C   UNL     1     -12.580   6.931  72.798  1.00  0.00     0.704 C  
ENDBRANCH  28  29
ENDBRANCH  19  28
ENDBRANCH  15  18
ENDBRANCH  12  14
TORSDOF 4
ENDMDL
