MODEL        1
REMARK 921   NORMALIZED FREE ENERGY PREDICTED BY IDOCK:   -6.68 KCAL/MOL
REMARK 922        TOTAL FREE ENERGY PREDICTED BY IDOCK:   -9.94 KCAL/MOL
REMARK 923 INTER-LIGAND FREE ENERGY PREDICTED BY IDOCK:   -8.64 KCAL/MOL
REMARK 924 INTRA-LIGAND FREE ENERGY PREDICTED BY IDOCK:   -1.31 KCAL/MOL
REMARK 927      BINDING AFFINITY PREDICTED BY RF-SCORE:    0.00 PKD
ROOT
HETATM    1  C   UNL     1     -11.288  14.991  64.883  1.00  0.00    -0.417 C  
HETATM    2  N   UNL     1     -10.929  14.452  66.198  1.00  0.00    -0.315 NA 
ENDROOT
BRANCH   2   3
HETATM    3  C   UNL     1     -11.936  13.479  66.677  1.00  0.00    -0.404 C  
BRANCH   3   4
HETATM    4  C   UNL     1     -11.381  12.086  66.946  1.00  0.00    -0.400 A  
HETATM    5  C   UNL     1     -11.448  11.464  68.228  1.00  0.00    -0.369 A  
HETATM    6  C   UNL     1     -10.761  11.415  65.876  1.00  0.00    -0.311 A  
HETATM    7  C   UNL     1     -12.074  12.044  69.357  1.00  0.00    -0.261 A  
HETATM    8  C   UNL     1     -12.054  11.430  70.611  1.00  0.00    -0.469 A  
HETATM    9  C   UNL     1     -10.186  10.165  66.059  1.00  0.00    -0.288 A  
HETATM   10  C   UNL     1     -11.422  10.205  70.768  1.00  0.00    -0.442 A  
HETATM   11  C   UNL     1     -10.218   9.563  67.314  1.00  0.00    -0.295 A  
HETATM   12  C   UNL     1     -10.833  10.199  68.402  1.00  0.00    -0.284 A  
HETATM   13  C   UNL     1     -10.828   9.588  69.667  1.00  0.00    -0.255 A  
ENDBRANCH   3   4
ENDBRANCH   2   3
BRANCH   2  14
HETATM   14  C   UNL     1     -10.736  15.556  67.148  1.00  0.00    -0.315 C  
BRANCH  14  15
HETATM   15  C   UNL     1     -11.655  15.459  68.333  1.00  0.00    -0.368 C  
HETATM   16  C   UNL     1     -11.257  15.681  69.597  1.00  0.00    -0.310 C  
BRANCH  16  17
HETATM   17  C   UNL     1     -12.150  15.695  70.765  1.00  0.00    -0.454 A  
HETATM   18  C   UNL     1     -13.425  15.119  70.754  1.00  0.00    -0.345 A  
HETATM   19  C   UNL     1     -12.501  16.330  73.087  1.00  0.00    -0.559 A  
HETATM   20  C   UNL     1     -11.690  16.286  71.950  1.00  0.00    -0.518 A  
HETATM   21  C   UNL     1     -13.776  15.774  73.055  1.00  0.00    -0.583 A  
HETATM   22  C   UNL     1     -14.237  15.164  71.890  1.00  0.00    -0.676 A  
ENDBRANCH  16  17
ENDBRANCH  14  15
ENDBRANCH   2  14
TORSDOF 5
ENDMDL
MODEL        2
REMARK 921   NORMALIZED FREE ENERGY PREDICTED BY IDOCK:   -6.59 KCAL/MOL
REMARK 922        TOTAL FREE ENERGY PREDICTED BY IDOCK:   -9.83 KCAL/MOL
REMARK 923 INTER-LIGAND FREE ENERGY PREDICTED BY IDOCK:   -8.72 KCAL/MOL
REMARK 924 INTRA-LIGAND FREE ENERGY PREDICTED BY IDOCK:   -1.11 KCAL/MOL
REMARK 927      BINDING AFFINITY PREDICTED BY RF-SCORE:    0.00 PKD
ROOT
HETATM    1  C   UNL     1     -12.135  14.423  64.871  1.00  0.00    -0.436 C  
HETATM    2  N   UNL     1     -11.321  14.741  66.048  1.00  0.00    -0.343 NA 
ENDROOT
BRANCH   2   3
HETATM    3  C   UNL     1      -9.958  15.169  65.663  1.00  0.00    -0.354 C  
BRANCH   3   4
HETATM    4  C   UNL     1      -9.264  16.050  66.694  1.00  0.00    -0.276 A  
HETATM    5  C   UNL     1      -9.522  17.448  66.812  1.00  0.00    -0.282 A  
HETATM    6  C   UNL     1      -8.315  15.442  67.537  1.00  0.00    -0.190 A  
HETATM    7  C   UNL     1     -10.475  18.145  66.031  1.00  0.00    -0.346 A  
HETATM    8  C   UNL     1     -10.644  19.527  66.132  1.00  0.00    -0.585 A  
HETATM    9  C   UNL     1      -7.604  16.192  68.464  1.00  0.00    -0.170 A  
HETATM   10  C   UNL     1      -9.877  20.252  67.032  1.00  0.00    -0.607 A  
HETATM   11  C   UNL     1      -7.827  17.563  68.565  1.00  0.00    -0.274 A  
HETATM   12  C   UNL     1      -8.768  18.202  67.746  1.00  0.00    -0.259 A  
HETATM   13  C   UNL     1      -8.956  19.591  67.843  1.00  0.00    -0.378 A  
ENDBRANCH   3   4
ENDBRANCH   2   3
BRANCH   2  14
HETATM   14  C   UNL     1     -11.299  13.589  66.959  1.00  0.00    -0.324 C  
BRANCH  14  15
HETATM   15  C   UNL     1     -11.920  13.900  68.291  1.00  0.00    -0.392 C  
HETATM   16  C   UNL     1     -11.206  14.246  69.376  1.00  0.00    -0.313 C  
BRANCH  16  17
HETATM   17  C   UNL     1     -11.787  14.656  70.663  1.00  0.00    -0.367 A  
HETATM   18  C   UNL     1     -11.460  15.861  71.296  1.00  0.00    -0.489 A  
HETATM   19  C   UNL     1     -13.311  14.157  72.493  1.00  0.00    -0.616 A  
HETATM   20  C   UNL     1     -12.733  13.816  71.267  1.00  0.00    -0.450 A  
HETATM   21  C   UNL     1     -12.959  15.347  73.122  1.00  0.00    -0.628 A  
HETATM   22  C   UNL     1     -12.037  16.202  72.521  1.00  0.00    -0.644 A  
ENDBRANCH  16  17
ENDBRANCH  14  15
ENDBRANCH   2  14
TORSDOF 5
ENDMDL
MODEL        3
REMARK 921   NORMALIZED FREE ENERGY PREDICTED BY IDOCK:   -6.55 KCAL/MOL
REMARK 922        TOTAL FREE ENERGY PREDICTED BY IDOCK:   -9.77 KCAL/MOL
REMARK 923 INTER-LIGAND FREE ENERGY PREDICTED BY IDOCK:   -8.03 KCAL/MOL
REMARK 924 INTRA-LIGAND FREE ENERGY PREDICTED BY IDOCK:   -1.74 KCAL/MOL
REMARK 927      BINDING AFFINITY PREDICTED BY RF-SCORE:    0.00 PKD
ROOT
HETATM    1  C   UNL     1      -7.919  17.961  68.005  1.00  0.00    -0.250 C  
HETATM    2  N   UNL     1      -8.835  16.817  68.037  1.00  0.00    -0.212 NA 
ENDROOT
BRANCH   2   3
HETATM    3  C   UNL     1      -8.724  16.001  66.807  1.00  0.00    -0.253 C  
BRANCH   3   4
HETATM    4  C   UNL     1      -9.335  14.610  66.921  1.00  0.00    -0.258 A  
HETATM    5  C   UNL     1     -10.375  14.151  66.060  1.00  0.00    -0.316 A  
HETATM    6  C   UNL     1      -8.853  13.770  67.943  1.00  0.00    -0.186 A  
HETATM    7  C   UNL     1     -10.905  14.909  64.988  1.00  0.00    -0.439 A  
HETATM    8  C   UNL     1     -11.972  14.448  64.214  1.00  0.00    -0.433 A  
HETATM    9  C   UNL     1      -9.399  12.509  68.142  1.00  0.00    -0.210 A  
HETATM   10  C   UNL     1     -12.528  13.204  64.478  1.00  0.00    -0.406 A  
HETATM   11  C   UNL     1     -10.436  12.065  67.326  1.00  0.00    -0.241 A  
HETATM   12  C   UNL     1     -10.937  12.871  66.294  1.00  0.00    -0.305 A  
HETATM   13  C   UNL     1     -12.003  12.416  65.501  1.00  0.00    -0.453 A  
ENDBRANCH   3   4
ENDBRANCH   2   3
BRANCH   2  14
HETATM   14  C   UNL     1     -10.208  17.290  68.259  1.00  0.00    -0.348 C  
BRANCH  14  15
HETATM   15  C   UNL     1     -10.889  16.562  69.384  1.00  0.00    -0.311 C  
HETATM   16  C   UNL     1     -11.874  15.667  69.196  1.00  0.00    -0.378 C  
BRANCH  16  17
HETATM   17  C   UNL     1     -12.489  14.864  70.262  1.00  0.00    -0.386 A  
HETATM   18  C   UNL     1     -13.291  15.419  71.266  1.00  0.00    -0.598 A  
HETATM   19  C   UNL     1     -12.845  12.668  71.248  1.00  0.00    -0.344 A  
HETATM   20  C   UNL     1     -12.286  13.476  70.255  1.00  0.00    -0.417 A  
HETATM   21  C   UNL     1     -13.621  13.236  72.253  1.00  0.00    -0.703 A  
HETATM   22  C   UNL     1     -13.849  14.611  72.260  1.00  0.00    -0.583 A  
ENDBRANCH  16  17
ENDBRANCH  14  15
ENDBRANCH   2  14
TORSDOF 5
ENDMDL
MODEL        4
REMARK 921   NORMALIZED FREE ENERGY PREDICTED BY IDOCK:   -6.54 KCAL/MOL
REMARK 922        TOTAL FREE ENERGY PREDICTED BY IDOCK:   -9.77 KCAL/MOL
REMARK 923 INTER-LIGAND FREE ENERGY PREDICTED BY IDOCK:   -8.08 KCAL/MOL
REMARK 924 INTRA-LIGAND FREE ENERGY PREDICTED BY IDOCK:   -1.69 KCAL/MOL
REMARK 927      BINDING AFFINITY PREDICTED BY RF-SCORE:    0.00 PKD
ROOT
HETATM    1  C   UNL     1      -7.839  17.407  67.651  1.00  0.00    -0.191 C  
HETATM    2  N   UNL     1      -9.008  16.535  67.501  1.00  0.00    -0.195 NA 
ENDROOT
BRANCH   2   3
HETATM    3  C   UNL     1      -9.176  16.092  66.100  1.00  0.00    -0.352 C  
BRANCH   3   4
HETATM    4  C   UNL     1     -10.261  15.041  65.901  1.00  0.00    -0.335 A  
HETATM    5  C   UNL     1     -10.274  13.803  66.609  1.00  0.00    -0.276 A  
HETATM    6  C   UNL     1     -11.268  15.316  64.956  1.00  0.00    -0.409 A  
HETATM    7  C   UNL     1      -9.324  13.447  67.596  1.00  0.00    -0.217 A  
HETATM    8  C   UNL     1      -9.335  12.194  68.214  1.00  0.00    -0.198 A  
HETATM    9  C   UNL     1     -12.259  14.383  64.684  1.00  0.00    -0.479 A  
HETATM   10  C   UNL     1     -10.309  11.267  67.876  1.00  0.00    -0.205 A  
HETATM   11  C   UNL     1     -12.262  13.159  65.347  1.00  0.00    -0.510 A  
HETATM   12  C   UNL     1     -11.280  12.853  66.299  1.00  0.00    -0.337 A  
HETATM   13  C   UNL     1     -11.283  11.600  66.935  1.00  0.00    -0.376 A  
ENDBRANCH   3   4
ENDBRANCH   2   3
BRANCH   2  14
HETATM   14  C   UNL     1     -10.204  17.224  68.006  1.00  0.00    -0.332 C  
BRANCH  14  15
HETATM   15  C   UNL     1     -10.821  16.513  69.178  1.00  0.00    -0.334 C  
HETATM   16  C   UNL     1     -11.895  15.713  69.076  1.00  0.00    -0.379 C  
BRANCH  16  17
HETATM   17  C   UNL     1     -12.459  14.924  70.181  1.00  0.00    -0.353 A  
HETATM   18  C   UNL     1     -13.267  15.482  71.178  1.00  0.00    -0.576 A  
HETATM   19  C   UNL     1     -12.709  12.753  71.250  1.00  0.00    -0.364 A  
HETATM   20  C   UNL     1     -12.200  13.547  70.219  1.00  0.00    -0.417 A  
HETATM   21  C   UNL     1     -13.491  13.325  72.248  1.00  0.00    -0.679 A  
HETATM   22  C   UNL     1     -13.775  14.689  72.210  1.00  0.00    -0.565 A  
ENDBRANCH  16  17
ENDBRANCH  14  15
ENDBRANCH   2  14
TORSDOF 5
ENDMDL
MODEL        5
REMARK 921   NORMALIZED FREE ENERGY PREDICTED BY IDOCK:   -6.51 KCAL/MOL
REMARK 922        TOTAL FREE ENERGY PREDICTED BY IDOCK:   -9.72 KCAL/MOL
REMARK 923 INTER-LIGAND FREE ENERGY PREDICTED BY IDOCK:   -8.46 KCAL/MOL
REMARK 924 INTRA-LIGAND FREE ENERGY PREDICTED BY IDOCK:   -1.25 KCAL/MOL
REMARK 927      BINDING AFFINITY PREDICTED BY RF-SCORE:    0.00 PKD
ROOT
HETATM    1  C   UNL     1     -11.345  16.222  64.666  1.00  0.00    -0.232 C  
HETATM    2  N   UNL     1     -10.836  15.169  65.549  1.00  0.00    -0.343 NA 
ENDROOT
BRANCH   2   3
HETATM    3  C   UNL     1     -11.759  14.013  65.600  1.00  0.00    -0.354 C  
BRANCH   3   4
HETATM    4  C   UNL     1     -11.129  12.690  65.183  1.00  0.00    -0.329 A  
HETATM    5  C   UNL     1     -10.933  11.609  66.092  1.00  0.00    -0.339 A  
HETATM    6  C   UNL     1     -10.708  12.563  63.846  1.00  0.00    -0.473 A  
HETATM    7  C   UNL     1     -11.346  11.629  67.446  1.00  0.00    -0.367 A  
HETATM    8  C   UNL     1     -11.071  10.574  68.319  1.00  0.00    -0.340 A  
HETATM    9  C   UNL     1     -10.077  11.407  63.407  1.00  0.00    -0.444 A  
HETATM   10  C   UNL     1     -10.390   9.458  67.857  1.00  0.00    -0.276 A  
HETATM   11  C   UNL     1      -9.854  10.358  64.295  1.00  0.00    -0.388 A  
HETATM   12  C   UNL     1     -10.265  10.446  65.632  1.00  0.00    -0.308 A  
HETATM   13  C   UNL     1     -10.003   9.389  66.519  1.00  0.00    -0.339 A  
ENDBRANCH   3   4
ENDBRANCH   2   3
BRANCH   2  14
HETATM   14  C   UNL     1     -10.579  15.726  66.884  1.00  0.00    -0.317 C  
BRANCH  14  15
HETATM   15  C   UNL     1     -11.558  15.230  67.910  1.00  0.00    -0.301 C  
HETATM   16  C   UNL     1     -11.228  14.983  69.189  1.00  0.00    -0.293 C  
BRANCH  16  17
HETATM   17  C   UNL     1     -12.181  14.597  70.239  1.00  0.00    -0.389 A  
HETATM   18  C   UNL     1     -13.047  15.509  70.853  1.00  0.00    -0.508 A  
HETATM   19  C   UNL     1     -13.129  12.830  71.618  1.00  0.00    -0.428 A  
HETATM   20  C   UNL     1     -12.244  13.249  70.621  1.00  0.00    -0.417 A  
HETATM   21  C   UNL     1     -13.968  13.752  72.236  1.00  0.00    -0.672 A  
HETATM   22  C   UNL     1     -13.932  15.090  71.850  1.00  0.00    -0.604 A  
ENDBRANCH  16  17
ENDBRANCH  14  15
ENDBRANCH   2  14
TORSDOF 5
ENDMDL
MODEL        6
REMARK 921   NORMALIZED FREE ENERGY PREDICTED BY IDOCK:   -6.48 KCAL/MOL
REMARK 922        TOTAL FREE ENERGY PREDICTED BY IDOCK:   -9.68 KCAL/MOL
REMARK 923 INTER-LIGAND FREE ENERGY PREDICTED BY IDOCK:   -9.01 KCAL/MOL
REMARK 924 INTRA-LIGAND FREE ENERGY PREDICTED BY IDOCK:   -0.67 KCAL/MOL
REMARK 927      BINDING AFFINITY PREDICTED BY RF-SCORE:    0.00 PKD
ROOT
HETATM    1  C   UNL     1     -12.401  13.624  66.486  1.00  0.00    -0.361 C  
HETATM    2  N   UNL     1     -11.011  13.302  66.825  1.00  0.00    -0.284 NA 
ENDROOT
BRANCH   2   3
HETATM    3  C   UNL     1     -10.693  13.681  68.219  1.00  0.00    -0.254 C  
BRANCH   3   4
HETATM    4  C   UNL     1     -11.414  12.852  69.274  1.00  0.00    -0.341 A  
HETATM    5  C   UNL     1     -12.254  13.431  70.270  1.00  0.00    -0.405 A  
HETATM    6  C   UNL     1     -11.207  11.459  69.259  1.00  0.00    -0.342 A  
HETATM    7  C   UNL     1     -12.546  14.814  70.351  1.00  0.00    -0.399 A  
HETATM    8  C   UNL     1     -13.317  15.347  71.386  1.00  0.00    -0.601 A  
HETATM    9  C   UNL     1     -11.789  10.644  70.221  1.00  0.00    -0.430 A  
HETATM   10  C   UNL     1     -13.837  14.509  72.361  1.00  0.00    -0.587 A  
HETATM   11  C   UNL     1     -12.585  11.206  71.216  1.00  0.00    -0.503 A  
HETATM   12  C   UNL     1     -12.819  12.587  71.259  1.00  0.00    -0.337 A  
HETATM   13  C   UNL     1     -13.601  13.136  72.289  1.00  0.00    -0.677 A  
ENDBRANCH   3   4
ENDBRANCH   2   3
BRANCH   2  14
HETATM   14  C   UNL     1     -10.107  13.943  65.861  1.00  0.00    -0.317 C  
BRANCH  14  15
HETATM   15  C   UNL     1      -9.669  15.309  66.308  1.00  0.00    -0.325 C  
HETATM   16  C   UNL     1     -10.262  16.445  65.904  1.00  0.00    -0.379 C  
BRANCH  16  17
HETATM   17  C   UNL     1      -9.926  17.787  66.401  1.00  0.00    -0.345 A  
HETATM   18  C   UNL     1     -10.571  18.947  65.956  1.00  0.00    -0.470 A  
HETATM   19  C   UNL     1      -8.576  19.159  67.889  1.00  0.00    -0.340 A  
HETATM   20  C   UNL     1      -8.935  17.906  67.386  1.00  0.00    -0.245 A  
HETATM   21  C   UNL     1      -9.209  20.306  67.421  1.00  0.00    -0.507 A  
HETATM   22  C   UNL     1     -10.210  20.200  66.458  1.00  0.00    -0.558 A  
ENDBRANCH  16  17
ENDBRANCH  14  15
ENDBRANCH   2  14
TORSDOF 5
ENDMDL
MODEL        7
REMARK 921   NORMALIZED FREE ENERGY PREDICTED BY IDOCK:   -6.47 KCAL/MOL
REMARK 922        TOTAL FREE ENERGY PREDICTED BY IDOCK:   -9.67 KCAL/MOL
REMARK 923 INTER-LIGAND FREE ENERGY PREDICTED BY IDOCK:   -8.68 KCAL/MOL
REMARK 924 INTRA-LIGAND FREE ENERGY PREDICTED BY IDOCK:   -0.99 KCAL/MOL
REMARK 927      BINDING AFFINITY PREDICTED BY RF-SCORE:    0.00 PKD
ROOT
HETATM    1  C   UNL     1     -10.286   8.043  67.705  1.00  0.00    -0.246 C  
HETATM    2  N   UNL     1     -10.770   9.413  67.903  1.00  0.00    -0.238 NA 
ENDROOT
BRANCH   2   3
HETATM    3  C   UNL     1      -9.795  10.408  67.405  1.00  0.00    -0.178 C  
BRANCH   3   4
HETATM    4  C   UNL     1     -10.078  10.911  65.995  1.00  0.00    -0.303 A  
HETATM    5  C   UNL     1     -10.913  12.036  65.730  1.00  0.00    -0.351 A  
HETATM    6  C   UNL     1      -9.499  10.203  64.925  1.00  0.00    -0.349 A  
HETATM    7  C   UNL     1     -11.517  12.827  66.737  1.00  0.00    -0.399 A  
HETATM    8  C   UNL     1     -12.385  13.877  66.430  1.00  0.00    -0.468 A  
HETATM    9  C   UNL     1      -9.754  10.571  63.610  1.00  0.00    -0.375 A  
HETATM   10  C   UNL     1     -12.659  14.180  65.105  1.00  0.00    -0.426 A  
HETATM   11  C   UNL     1     -10.593  11.648  63.341  1.00  0.00    -0.472 A  
HETATM   12  C   UNL     1     -11.183  12.380  64.382  1.00  0.00    -0.384 A  
HETATM   13  C   UNL     1     -12.050  13.445  64.088  1.00  0.00    -0.491 A  
ENDBRANCH   3   4
ENDBRANCH   2   3
BRANCH   2  14
HETATM   14  C   UNL     1     -11.094   9.621  69.321  1.00  0.00    -0.118 C  
BRANCH  14  15
HETATM   15  C   UNL     1     -11.727  10.961  69.573  1.00  0.00    -0.400 C  
HETATM   16  C   UNL     1     -12.105  11.382  70.791  1.00  0.00    -0.433 C  
BRANCH  16  17
HETATM   17  C   UNL     1     -12.630  12.723  71.086  1.00  0.00    -0.365 A  
HETATM   18  C   UNL     1     -13.536  12.974  72.123  1.00  0.00    -0.638 A  
HETATM   19  C   UNL     1     -12.652  15.096  70.549  1.00  0.00    -0.429 A  
HETATM   20  C   UNL     1     -12.180  13.803  70.312  1.00  0.00    -0.429 A  
HETATM   21  C   UNL     1     -13.570  15.327  71.569  1.00  0.00    -0.593 A  
HETATM   22  C   UNL     1     -14.009  14.267  72.360  1.00  0.00    -0.597 A  
ENDBRANCH  16  17
ENDBRANCH  14  15
ENDBRANCH   2  14
TORSDOF 5
ENDMDL
MODEL        8
REMARK 921   NORMALIZED FREE ENERGY PREDICTED BY IDOCK:   -6.42 KCAL/MOL
REMARK 922        TOTAL FREE ENERGY PREDICTED BY IDOCK:   -9.60 KCAL/MOL
REMARK 923 INTER-LIGAND FREE ENERGY PREDICTED BY IDOCK:   -8.51 KCAL/MOL
REMARK 924 INTRA-LIGAND FREE ENERGY PREDICTED BY IDOCK:   -1.09 KCAL/MOL
REMARK 927      BINDING AFFINITY PREDICTED BY RF-SCORE:    0.00 PKD
ROOT
HETATM    1  C   UNL     1      -8.794  11.625  68.451  1.00  0.00    -0.161 C  
HETATM    2  N   UNL     1      -9.714  12.739  68.198  1.00  0.00    -0.220 NA 
ENDROOT
BRANCH   2   3
HETATM    3  C   UNL     1     -11.113  12.270  68.085  1.00  0.00    -0.240 C  
BRANCH   3   4
HETATM    4  C   UNL     1     -11.842  12.152  69.417  1.00  0.00    -0.370 A  
HETATM    5  C   UNL     1     -12.230  13.287  70.188  1.00  0.00    -0.376 A  
HETATM    6  C   UNL     1     -12.113  10.856  69.898  1.00  0.00    -0.428 A  
HETATM    7  C   UNL     1     -12.027  14.627  69.779  1.00  0.00    -0.378 A  
HETATM    8  C   UNL     1     -12.359  15.708  70.598  1.00  0.00    -0.457 A  
HETATM    9  C   UNL     1     -12.728  10.670  71.129  1.00  0.00    -0.522 A  
HETATM   10  C   UNL     1     -12.921  15.481  71.846  1.00  0.00    -0.522 A  
HETATM   11  C   UNL     1     -13.080  11.772  71.902  1.00  0.00    -0.482 A  
HETATM   12  C   UNL     1     -12.832  13.076  71.454  1.00  0.00    -0.385 A  
HETATM   13  C   UNL     1     -13.169  14.174  72.263  1.00  0.00    -0.540 A  
ENDBRANCH   3   4
ENDBRANCH   2   3
BRANCH   2  14
HETATM   14  C   UNL     1      -9.282  13.473  67.001  1.00  0.00    -0.246 C  
BRANCH  14  15
HETATM   15  C   UNL     1      -9.239  14.958  67.225  1.00  0.00    -0.212 C  
HETATM   16  C   UNL     1     -10.176  15.803  66.762  1.00  0.00    -0.284 C  
BRANCH  16  17
HETATM   17  C   UNL     1     -10.219  17.244  67.050  1.00  0.00    -0.320 A  
HETATM   18  C   UNL     1     -10.052  17.767  68.337  1.00  0.00    -0.376 A  
HETATM   19  C   UNL     1     -10.459  19.512  66.203  1.00  0.00    -0.613 A  
HETATM   20  C   UNL     1     -10.406  18.133  65.982  1.00  0.00    -0.360 A  
HETATM   21  C   UNL     1     -10.314  20.017  67.491  1.00  0.00    -0.519 A  
HETATM   22  C   UNL     1     -10.105  19.146  68.558  1.00  0.00    -0.499 A  
ENDBRANCH  16  17
ENDBRANCH  14  15
ENDBRANCH   2  14
TORSDOF 5
ENDMDL
MODEL        9
REMARK 921   NORMALIZED FREE ENERGY PREDICTED BY IDOCK:   -6.41 KCAL/MOL
REMARK 922        TOTAL FREE ENERGY PREDICTED BY IDOCK:   -9.59 KCAL/MOL
REMARK 923 INTER-LIGAND FREE ENERGY PREDICTED BY IDOCK:   -8.49 KCAL/MOL
REMARK 924 INTRA-LIGAND FREE ENERGY PREDICTED BY IDOCK:   -1.11 KCAL/MOL
REMARK 927      BINDING AFFINITY PREDICTED BY RF-SCORE:    0.00 PKD
ROOT
HETATM    1  C   UNL     1     -11.686   9.527  71.641  1.00  0.00    -0.390 C  
HETATM    2  N   UNL     1     -11.411  10.568  70.647  1.00  0.00    -0.336 NA 
ENDROOT
BRANCH   2   3
HETATM    3  C   UNL     1     -12.631  11.337  70.317  1.00  0.00    -0.177 C  
BRANCH   3   4
HETATM    4  C   UNL     1     -12.686  12.724  70.945  1.00  0.00    -0.277 A  
HETATM    5  C   UNL     1     -12.031  13.855  70.375  1.00  0.00    -0.393 A  
HETATM    6  C   UNL     1     -13.400  12.864  72.150  1.00  0.00    -0.615 A  
HETATM    7  C   UNL     1     -11.314  13.822  69.155  1.00  0.00    -0.329 A  
HETATM    8  C   UNL     1     -10.628  14.938  68.670  1.00  0.00    -0.251 A  
HETATM    9  C   UNL     1     -13.450  14.086  72.808  1.00  0.00    -0.576 A  
HETATM   10  C   UNL     1     -10.655  16.127  69.383  1.00  0.00    -0.300 A  
HETATM   11  C   UNL     1     -12.786  15.188  72.276  1.00  0.00    -0.428 A  
HETATM   12  C   UNL     1     -12.071  15.088  71.074  1.00  0.00    -0.381 A  
HETATM   13  C   UNL     1     -11.384  16.205  70.570  1.00  0.00    -0.392 A  
ENDBRANCH   3   4
ENDBRANCH   2   3
BRANCH   2  14
HETATM   14  C   UNL     1     -10.804   9.962  69.454  1.00  0.00    -0.237 C  
BRANCH  14  15
HETATM   15  C   UNL     1     -11.286  10.598  68.181  1.00  0.00    -0.366 C  
HETATM   16  C   UNL     1     -10.466  10.966  67.182  1.00  0.00    -0.281 C  
BRANCH  16  17
HETATM   17  C   UNL     1     -10.913  11.494  65.885  1.00  0.00    -0.301 A  
HETATM   18  C   UNL     1     -10.411  11.033  64.662  1.00  0.00    -0.398 A  
HETATM   19  C   UNL     1     -12.363  13.021  64.666  1.00  0.00    -0.480 A  
HETATM   20  C   UNL     1     -11.907  12.483  65.873  1.00  0.00    -0.489 A  
HETATM   21  C   UNL     1     -11.839  12.569  63.459  1.00  0.00    -0.616 A  
HETATM   22  C   UNL     1     -10.867  11.572  63.456  1.00  0.00    -0.473 A  
ENDBRANCH  16  17
ENDBRANCH  14  15
ENDBRANCH   2  14
TORSDOF 5
ENDMDL
MODEL       10
REMARK 921   NORMALIZED FREE ENERGY PREDICTED BY IDOCK:   -6.37 KCAL/MOL
REMARK 922        TOTAL FREE ENERGY PREDICTED BY IDOCK:   -9.54 KCAL/MOL
REMARK 923 INTER-LIGAND FREE ENERGY PREDICTED BY IDOCK:   -8.58 KCAL/MOL
REMARK 924 INTRA-LIGAND FREE ENERGY PREDICTED BY IDOCK:   -0.97 KCAL/MOL
REMARK 927      BINDING AFFINITY PREDICTED BY RF-SCORE:    0.00 PKD
ROOT
HETATM    1  C   UNL     1     -12.277  13.724  70.035  1.00  0.00    -0.342 C  
HETATM    2  N   UNL     1     -11.686  13.775  68.694  1.00  0.00    -0.334 NA 
ENDROOT
BRANCH   2   3
HETATM    3  C   UNL     1     -11.900  12.508  67.960  1.00  0.00    -0.325 C  
BRANCH   3   4
HETATM    4  C   UNL     1     -11.779  12.633  66.447  1.00  0.00    -0.466 A  
HETATM    5  C   UNL     1     -10.985  11.747  65.661  1.00  0.00    -0.348 A  
HETATM    6  C   UNL     1     -12.470  13.691  65.825  1.00  0.00    -0.524 A  
HETATM    7  C   UNL     1     -10.278  10.641  66.188  1.00  0.00    -0.308 A  
HETATM    8  C   UNL     1      -9.455   9.841  65.391  1.00  0.00    -0.333 A  
HETATM    9  C   UNL     1     -12.365  13.900  64.456  1.00  0.00    -0.408 A  
HETATM   10  C   UNL     1      -9.332  10.114  64.037  1.00  0.00    -0.339 A  
HETATM   11  C   UNL     1     -11.566  13.059  63.685  1.00  0.00    -0.507 A  
HETATM   12  C   UNL     1     -10.869  11.992  64.269  1.00  0.00    -0.389 A  
HETATM   13  C   UNL     1     -10.046  11.174  63.478  1.00  0.00    -0.437 A  
ENDBRANCH   3   4
ENDBRANCH   2   3
BRANCH   2  14
HETATM   14  C   UNL     1     -10.260  14.115  68.797  1.00  0.00    -0.215 C  
BRANCH  14  15
HETATM   15  C   UNL     1     -10.009  15.587  68.624  1.00  0.00    -0.208 C  
HETATM   16  C   UNL     1     -10.390  16.278  67.536  1.00  0.00    -0.288 C  
BRANCH  16  17
HETATM   17  C   UNL     1     -10.252  17.734  67.380  1.00  0.00    -0.353 A  
HETATM   18  C   UNL     1     -10.443  18.389  66.158  1.00  0.00    -0.422 A  
HETATM   19  C   UNL     1      -9.800  19.887  68.418  1.00  0.00    -0.489 A  
HETATM   20  C   UNL     1      -9.946  18.501  68.513  1.00  0.00    -0.419 A  
HETATM   21  C   UNL     1      -9.969  20.523  67.192  1.00  0.00    -0.512 A  
HETATM   22  C   UNL     1     -10.296  19.775  66.062  1.00  0.00    -0.612 A  
ENDBRANCH  16  17
ENDBRANCH  14  15
ENDBRANCH   2  14
TORSDOF 5
ENDMDL
MODEL       11
REMARK 921   NORMALIZED FREE ENERGY PREDICTED BY IDOCK:   -6.34 KCAL/MOL
REMARK 922        TOTAL FREE ENERGY PREDICTED BY IDOCK:   -9.50 KCAL/MOL
REMARK 923 INTER-LIGAND FREE ENERGY PREDICTED BY IDOCK:   -8.80 KCAL/MOL
REMARK 924 INTRA-LIGAND FREE ENERGY PREDICTED BY IDOCK:   -0.70 KCAL/MOL
REMARK 927      BINDING AFFINITY PREDICTED BY RF-SCORE:    0.00 PKD
ROOT
HETATM    1  C   UNL     1     -11.158  14.974  64.831  1.00  0.00    -0.415 C  
HETATM    2  N   UNL     1     -10.835  15.569  66.132  1.00  0.00    -0.317 NA 
ENDROOT
BRANCH   2   3
HETATM    3  C   UNL     1      -9.511  16.229  66.110  1.00  0.00    -0.339 C  
BRANCH   3   4
HETATM    4  C   UNL     1      -9.537  17.698  66.514  1.00  0.00    -0.301 A  
HETATM    5  C   UNL     1      -8.367  18.512  66.539  1.00  0.00    -0.297 A  
HETATM    6  C   UNL     1     -10.777  18.245  66.898  1.00  0.00    -0.272 A  
HETATM    7  C   UNL     1      -7.083  18.064  66.146  1.00  0.00    -0.330 A  
HETATM    8  C   UNL     1      -5.952  18.875  66.254  1.00  0.00    -0.189 A  
HETATM    9  C   UNL     1     -10.869  19.561  67.328  1.00  0.00    -0.557 A  
HETATM   10  C   UNL     1      -6.074  20.168  66.741  1.00  0.00    -0.200 A  
HETATM   11  C   UNL     1      -9.726  20.354  67.386  1.00  0.00    -0.597 A  
HETATM   12  C   UNL     1      -8.476  19.846  67.006  1.00  0.00    -0.380 A  
HETATM   13  C   UNL     1      -7.331  20.654  67.100  1.00  0.00    -0.389 A  
ENDBRANCH   3   4
ENDBRANCH   2   3
BRANCH   2  14
HETATM   14  C   UNL     1     -10.919  14.542  67.179  1.00  0.00    -0.304 C  
BRANCH  14  15
HETATM   15  C   UNL     1     -11.605  15.043  68.418  1.00  0.00    -0.352 C  
HETATM   16  C   UNL     1     -11.605  14.376  69.585  1.00  0.00    -0.343 C  
BRANCH  16  17
HETATM   17  C   UNL     1     -12.176  14.885  70.840  1.00  0.00    -0.389 A  
HETATM   18  C   UNL     1     -13.551  14.900  71.098  1.00  0.00    -0.467 A  
HETATM   19  C   UNL     1     -11.793  15.847  73.042  1.00  0.00    -0.535 A  
HETATM   20  C   UNL     1     -11.301  15.349  71.832  1.00  0.00    -0.466 A  
HETATM   21  C   UNL     1     -13.164  15.877  73.276  1.00  0.00    -0.698 A  
HETATM   22  C   UNL     1     -14.044  15.400  72.307  1.00  0.00    -0.660 A  
ENDBRANCH  16  17
ENDBRANCH  14  15
ENDBRANCH   2  14
TORSDOF 5
ENDMDL
MODEL       12
REMARK 921   NORMALIZED FREE ENERGY PREDICTED BY IDOCK:   -6.32 KCAL/MOL
REMARK 922        TOTAL FREE ENERGY PREDICTED BY IDOCK:   -9.47 KCAL/MOL
REMARK 923 INTER-LIGAND FREE ENERGY PREDICTED BY IDOCK:   -8.11 KCAL/MOL
REMARK 924 INTRA-LIGAND FREE ENERGY PREDICTED BY IDOCK:   -1.36 KCAL/MOL
REMARK 927      BINDING AFFINITY PREDICTED BY RF-SCORE:    0.00 PKD
ROOT
HETATM    1  C   UNL     1     -10.787  13.350  65.195  1.00  0.00    -0.313 C  
HETATM    2  N   UNL     1     -10.823  13.375  66.660  1.00  0.00    -0.281 NA 
ENDROOT
BRANCH   2   3
HETATM    3  C   UNL     1     -11.556  12.210  67.203  1.00  0.00    -0.335 C  
BRANCH   3   4
HETATM    4  C   UNL     1     -10.704  11.275  68.051  1.00  0.00    -0.245 A  
HETATM    5  C   UNL     1     -11.179  10.679  69.256  1.00  0.00    -0.332 A  
HETATM    6  C   UNL     1      -9.387  11.024  67.619  1.00  0.00    -0.162 A  
HETATM    7  C   UNL     1     -12.492  10.847  69.757  1.00  0.00    -0.250 A  
HETATM    8  C   UNL     1     -12.892  10.301  70.979  1.00  0.00    -0.490 A  
HETATM    9  C   UNL     1      -8.535  10.224  68.369  1.00  0.00    -0.124 A  
HETATM   10  C   UNL     1     -11.995   9.553  71.727  1.00  0.00    -0.443 A  
HETATM   11  C   UNL     1      -8.980   9.663  69.563  1.00  0.00    -0.203 A  
HETATM   12  C   UNL     1     -10.286   9.886  70.021  1.00  0.00    -0.319 A  
HETATM   13  C   UNL     1     -10.705   9.335  71.243  1.00  0.00    -0.422 A  
ENDBRANCH   3   4
ENDBRANCH   2   3
BRANCH   2  14
HETATM   14  C   UNL     1     -11.399  14.648  67.117  1.00  0.00    -0.356 C  
BRANCH  14  15
HETATM   15  C   UNL     1     -11.976  14.551  68.501  1.00  0.00    -0.321 C  
HETATM   16  C   UNL     1     -11.344  14.998  69.599  1.00  0.00    -0.309 C  
BRANCH  16  17
HETATM   17  C   UNL     1     -11.922  15.012  70.950  1.00  0.00    -0.374 A  
HETATM   18  C   UNL     1     -12.800  14.024  71.412  1.00  0.00    -0.434 A  
HETATM   19  C   UNL     1     -12.079  16.106  73.118  1.00  0.00    -0.621 A  
HETATM   20  C   UNL     1     -11.554  16.045  71.824  1.00  0.00    -0.534 A  
HETATM   21  C   UNL     1     -12.969  15.130  73.555  1.00  0.00    -0.601 A  
HETATM   22  C   UNL     1     -13.326  14.086  72.705  1.00  0.00    -0.643 A  
ENDBRANCH  16  17
ENDBRANCH  14  15
ENDBRANCH   2  14
TORSDOF 5
ENDMDL
MODEL       13
REMARK 921   NORMALIZED FREE ENERGY PREDICTED BY IDOCK:   -6.28 KCAL/MOL
REMARK 922        TOTAL FREE ENERGY PREDICTED BY IDOCK:   -9.42 KCAL/MOL
REMARK 923 INTER-LIGAND FREE ENERGY PREDICTED BY IDOCK:   -8.74 KCAL/MOL
REMARK 924 INTRA-LIGAND FREE ENERGY PREDICTED BY IDOCK:   -0.68 KCAL/MOL
REMARK 927      BINDING AFFINITY PREDICTED BY RF-SCORE:    0.00 PKD
ROOT
HETATM    1  C   UNL     1      -9.945  15.620  69.953  1.00  0.00    -0.228 C  
HETATM    2  N   UNL     1     -10.924  16.314  69.111  1.00  0.00    -0.306 NA 
ENDROOT
BRANCH   2   3
HETATM    3  C   UNL     1     -12.158  15.513  68.945  1.00  0.00    -0.194 C  
BRANCH   3   4
HETATM    4  C   UNL     1     -12.600  14.777  70.203  1.00  0.00    -0.319 A  
HETATM    5  C   UNL     1     -12.476  13.364  70.354  1.00  0.00    -0.322 A  
HETATM    6  C   UNL     1     -13.173  15.542  71.237  1.00  0.00    -0.588 A  
HETATM    7  C   UNL     1     -11.890  12.514  69.385  1.00  0.00    -0.368 A  
HETATM    8  C   UNL     1     -11.855  11.127  69.544  1.00  0.00    -0.423 A  
HETATM    9  C   UNL     1     -13.647  14.933  72.392  1.00  0.00    -0.554 A  
HETATM   10  C   UNL     1     -12.388  10.550  70.687  1.00  0.00    -0.449 A  
HETATM   11  C   UNL     1     -13.560  13.551  72.533  1.00  0.00    -0.674 A  
HETATM   12  C   UNL     1     -12.990  12.758  71.528  1.00  0.00    -0.388 A  
HETATM   13  C   UNL     1     -12.939  11.362  71.678  1.00  0.00    -0.523 A  
ENDBRANCH   3   4
ENDBRANCH   2   3
BRANCH   2  14
HETATM   14  C   UNL     1     -10.311  16.653  67.819  1.00  0.00    -0.306 C  
BRANCH  14  15
HETATM   15  C   UNL     1     -10.776  15.751  66.711  1.00  0.00    -0.293 C  
HETATM   16  C   UNL     1     -10.161  14.601  66.386  1.00  0.00    -0.296 C  
BRANCH  16  17
HETATM   17  C   UNL     1     -10.648  13.647  65.379  1.00  0.00    -0.322 A  
HETATM   18  C   UNL     1     -10.194  12.326  65.300  1.00  0.00    -0.305 A  
HETATM   19  C   UNL     1     -12.127  13.208  63.497  1.00  0.00    -0.585 A  
HETATM   20  C   UNL     1     -11.633  14.074  64.476  1.00  0.00    -0.403 A  
HETATM   21  C   UNL     1     -11.649  11.903  63.416  1.00  0.00    -0.477 A  
HETATM   22  C   UNL     1     -10.686  11.460  64.320  1.00  0.00    -0.420 A  
ENDBRANCH  16  17
ENDBRANCH  14  15
ENDBRANCH   2  14
TORSDOF 5
ENDMDL
MODEL       14
REMARK 921   NORMALIZED FREE ENERGY PREDICTED BY IDOCK:   -6.27 KCAL/MOL
REMARK 922        TOTAL FREE ENERGY PREDICTED BY IDOCK:   -9.41 KCAL/MOL
REMARK 923 INTER-LIGAND FREE ENERGY PREDICTED BY IDOCK:   -7.81 KCAL/MOL
REMARK 924 INTRA-LIGAND FREE ENERGY PREDICTED BY IDOCK:   -1.60 KCAL/MOL
REMARK 927      BINDING AFFINITY PREDICTED BY RF-SCORE:    0.00 PKD
ROOT
HETATM    1  C   UNL     1     -10.424  17.218  68.438  1.00  0.00    -0.381 C  
HETATM    2  N   UNL     1     -10.483  15.798  68.080  1.00  0.00    -0.263 NA 
ENDROOT
BRANCH   2   3
HETATM    3  C   UNL     1     -10.075  15.577  66.675  1.00  0.00    -0.267 C  
BRANCH   3   4
HETATM    4  C   UNL     1      -9.822  14.117  66.319  1.00  0.00    -0.321 A  
HETATM    5  C   UNL     1     -10.543  13.437  65.294  1.00  0.00    -0.333 A  
HETATM    6  C   UNL     1      -8.847  13.426  67.064  1.00  0.00    -0.217 A  
HETATM    7  C   UNL     1     -11.519  14.051  64.473  1.00  0.00    -0.380 A  
HETATM    8  C   UNL     1     -12.251  13.328  63.529  1.00  0.00    -0.513 A  
HETATM    9  C   UNL     1      -8.599  12.080  66.832  1.00  0.00    -0.189 A  
HETATM   10  C   UNL     1     -12.014  11.972  63.363  1.00  0.00    -0.571 A  
HETATM   11  C   UNL     1      -9.320  11.400  65.854  1.00  0.00    -0.247 A  
HETATM   12  C   UNL     1     -10.294  12.056  65.089  1.00  0.00    -0.313 A  
HETATM   13  C   UNL     1     -11.031  11.344  64.128  1.00  0.00    -0.411 A  
ENDBRANCH   3   4
ENDBRANCH   2   3
BRANCH   2  14
HETATM   14  C   UNL     1     -11.830  15.278  68.349  1.00  0.00    -0.260 C  
BRANCH  14  15
HETATM   15  C   UNL     1     -11.812  14.092  69.273  1.00  0.00    -0.381 C  
HETATM   16  C   UNL     1     -11.917  12.822  68.848  1.00  0.00    -0.286 C  
BRANCH  16  17
HETATM   17  C   UNL     1     -11.800  11.638  69.712  1.00  0.00    -0.428 A  
HETATM   18  C   UNL     1     -10.869  10.619  69.482  1.00  0.00    -0.303 A  
HETATM   19  C   UNL     1     -12.569  10.437  71.683  1.00  0.00    -0.521 A  
HETATM   20  C   UNL     1     -12.638  11.544  70.832  1.00  0.00    -0.438 A  
HETATM   21  C   UNL     1     -11.655   9.419  71.429  1.00  0.00    -0.451 A  
HETATM   22  C   UNL     1     -10.801   9.511  70.332  1.00  0.00    -0.338 A  
ENDBRANCH  16  17
ENDBRANCH  14  15
ENDBRANCH   2  14
TORSDOF 5
ENDMDL
MODEL       15
REMARK 921   NORMALIZED FREE ENERGY PREDICTED BY IDOCK:   -6.27 KCAL/MOL
REMARK 922        TOTAL FREE ENERGY PREDICTED BY IDOCK:   -9.41 KCAL/MOL
REMARK 923 INTER-LIGAND FREE ENERGY PREDICTED BY IDOCK:   -8.17 KCAL/MOL
REMARK 924 INTRA-LIGAND FREE ENERGY PREDICTED BY IDOCK:   -1.24 KCAL/MOL
REMARK 927      BINDING AFFINITY PREDICTED BY RF-SCORE:    0.00 PKD
ROOT
HETATM    1  C   UNL     1     -10.574  16.230  67.215  1.00  0.00    -0.298 C  
HETATM    2  N   UNL     1     -11.545  15.426  67.963  1.00  0.00    -0.331 NA 
ENDROOT
BRANCH   2   3
HETATM    3  C   UNL     1     -10.925  14.795  69.149  1.00  0.00    -0.267 C  
BRANCH   3   4
HETATM    4  C   UNL     1     -11.908  14.454  70.262  1.00  0.00    -0.382 A  
HETATM    5  C   UNL     1     -12.187  13.114  70.661  1.00  0.00    -0.402 A  
HETATM    6  C   UNL     1     -12.575  15.523  70.891  1.00  0.00    -0.512 A  
HETATM    7  C   UNL     1     -11.550  11.976  70.110  1.00  0.00    -0.228 A  
HETATM    8  C   UNL     1     -11.906  10.678  70.481  1.00  0.00    -0.453 A  
HETATM    9  C   UNL     1     -13.523  15.287  71.877  1.00  0.00    -0.547 A  
HETATM   10  C   UNL     1     -12.898  10.479  71.430  1.00  0.00    -0.551 A  
HETATM   11  C   UNL     1     -13.825  13.980  72.251  1.00  0.00    -0.655 A  
HETATM   12  C   UNL     1     -13.177  12.891  71.651  1.00  0.00    -0.416 A  
HETATM   13  C   UNL     1     -13.518  11.579  72.021  1.00  0.00    -0.298 A  
ENDBRANCH   3   4
ENDBRANCH   2   3
BRANCH   2  14
HETATM   14  C   UNL     1     -12.156  14.434  67.068  1.00  0.00    -0.342 C  
BRANCH  14  15
HETATM   15  C   UNL     1     -11.191  13.354  66.666  1.00  0.00    -0.330 C  
HETATM   16  C   UNL     1     -11.543  12.067  66.511  1.00  0.00    -0.384 C  
BRANCH  16  17
HETATM   17  C   UNL     1     -10.649  11.008  66.020  1.00  0.00    -0.275 A  
HETATM   18  C   UNL     1     -10.284   9.902  66.795  1.00  0.00    -0.301 A  
HETATM   19  C   UNL     1      -9.310  10.120  64.194  1.00  0.00    -0.340 A  
HETATM   20  C   UNL     1     -10.166  11.098  64.707  1.00  0.00    -0.365 A  
HETATM   21  C   UNL     1      -8.936   9.037  64.983  1.00  0.00    -0.198 A  
HETATM   22  C   UNL     1      -9.427   8.924  66.282  1.00  0.00    -0.304 A  
ENDBRANCH  16  17
ENDBRANCH  14  15
ENDBRANCH   2  14
TORSDOF 5
ENDMDL
MODEL       16
REMARK 921   NORMALIZED FREE ENERGY PREDICTED BY IDOCK:   -6.23 KCAL/MOL
REMARK 922        TOTAL FREE ENERGY PREDICTED BY IDOCK:   -9.35 KCAL/MOL
REMARK 923 INTER-LIGAND FREE ENERGY PREDICTED BY IDOCK:   -7.59 KCAL/MOL
REMARK 924 INTRA-LIGAND FREE ENERGY PREDICTED BY IDOCK:   -1.76 KCAL/MOL
REMARK 927      BINDING AFFINITY PREDICTED BY RF-SCORE:    0.00 PKD
ROOT
HETATM    1  C   UNL     1     -10.315   8.690  66.867  1.00  0.00    -0.285 C  
HETATM    2  N   UNL     1     -10.839   9.992  67.289  1.00  0.00    -0.253 NA 
ENDROOT
BRANCH   2   3
HETATM    3  C   UNL     1      -9.921  11.092  66.919  1.00  0.00    -0.196 C  
BRANCH   3   4
HETATM    4  C   UNL     1     -10.620  12.352  66.426  1.00  0.00    -0.271 A  
HETATM    5  C   UNL     1     -10.319  13.650  66.933  1.00  0.00    -0.262 A  
HETATM    6  C   UNL     1     -11.619  12.200  65.445  1.00  0.00    -0.383 A  
HETATM    7  C   UNL     1      -9.315  13.908  67.897  1.00  0.00    -0.208 A  
HETATM    8  C   UNL     1      -9.102  15.186  68.418  1.00  0.00    -0.185 A  
HETATM    9  C   UNL     1     -12.336  13.297  64.986  1.00  0.00    -0.499 A  
HETATM   10  C   UNL     1      -9.875  16.249  67.975  1.00  0.00    -0.236 A  
HETATM   11  C   UNL     1     -12.070  14.564  65.499  1.00  0.00    -0.299 A  
HETATM   12  C   UNL     1     -11.079  14.754  66.472  1.00  0.00    -0.334 A  
HETATM   13  C   UNL     1     -10.847  16.036  66.998  1.00  0.00    -0.227 A  
ENDBRANCH   3   4
ENDBRANCH   2   3
BRANCH   2  14
HETATM   14  C   UNL     1     -11.113   9.968  68.733  1.00  0.00    -0.173 C  
BRANCH  14  15
HETATM   15  C   UNL     1     -11.926  11.150  69.181  1.00  0.00    -0.413 C  
HETATM   16  C   UNL     1     -11.802  11.715  70.394  1.00  0.00    -0.385 C  
BRANCH  16  17
HETATM   17  C   UNL     1     -12.506  12.932  70.825  1.00  0.00    -0.370 A  
HETATM   18  C   UNL     1     -13.404  12.951  71.898  1.00  0.00    -0.530 A  
HETATM   19  C   UNL     1     -12.886  15.315  70.518  1.00  0.00    -0.421 A  
HETATM   20  C   UNL     1     -12.241  14.132  70.149  1.00  0.00    -0.415 A  
HETATM   21  C   UNL     1     -13.794  15.315  71.572  1.00  0.00    -0.617 A  
HETATM   22  C   UNL     1     -14.050  14.134  72.266  1.00  0.00    -0.630 A  
ENDBRANCH  16  17
ENDBRANCH  14  15
ENDBRANCH   2  14
TORSDOF 5
ENDMDL
MODEL       17
REMARK 921   NORMALIZED FREE ENERGY PREDICTED BY IDOCK:   -6.16 KCAL/MOL
REMARK 922        TOTAL FREE ENERGY PREDICTED BY IDOCK:   -9.27 KCAL/MOL
REMARK 923 INTER-LIGAND FREE ENERGY PREDICTED BY IDOCK:   -8.38 KCAL/MOL
REMARK 924 INTRA-LIGAND FREE ENERGY PREDICTED BY IDOCK:   -0.88 KCAL/MOL
REMARK 927      BINDING AFFINITY PREDICTED BY RF-SCORE:    0.00 PKD
ROOT
HETATM    1  C   UNL     1     -11.676  14.708  64.980  1.00  0.00    -0.385 C  
HETATM    2  N   UNL     1     -11.107  15.189  66.243  1.00  0.00    -0.333 NA 
ENDROOT
BRANCH   2   3
HETATM    3  C   UNL     1      -9.772  15.794  66.039  1.00  0.00    -0.345 C  
BRANCH   3   4
HETATM    4  C   UNL     1      -9.651  17.226  66.543  1.00  0.00    -0.286 A  
HETATM    5  C   UNL     1      -8.588  17.658  67.391  1.00  0.00    -0.229 A  
HETATM    6  C   UNL     1     -10.655  18.137  66.163  1.00  0.00    -0.289 A  
HETATM    7  C   UNL     1      -7.520  16.827  67.804  1.00  0.00    -0.176 A  
HETATM    8  C   UNL     1      -6.538  17.273  68.693  1.00  0.00    -0.186 A  
HETATM    9  C   UNL     1     -10.639  19.446  66.627  1.00  0.00    -0.566 A  
HETATM   10  C   UNL     1      -6.586  18.571  69.179  1.00  0.00    -0.281 A  
HETATM   11  C   UNL     1      -9.623  19.867  67.481  1.00  0.00    -0.493 A  
HETATM   12  C   UNL     1      -8.603  18.990  67.875  1.00  0.00    -0.333 A  
HETATM   13  C   UNL     1      -7.604  19.428  68.761  1.00  0.00    -0.398 A  
ENDBRANCH   3   4
ENDBRANCH   2   3
BRANCH   2  14
HETATM   14  C   UNL     1     -11.069  14.089  67.217  1.00  0.00    -0.302 C  
BRANCH  14  15
HETATM   15  C   UNL     1     -11.880  14.385  68.446  1.00  0.00    -0.354 C  
HETATM   16  C   UNL     1     -11.335  14.683  69.638  1.00  0.00    -0.317 C  
BRANCH  16  17
HETATM   17  C   UNL     1     -12.097  15.077  70.832  1.00  0.00    -0.380 A  
HETATM   18  C   UNL     1     -11.489  15.546  72.001  1.00  0.00    -0.515 A  
HETATM   19  C   UNL     1     -14.267  15.368  71.892  1.00  0.00    -0.640 A  
HETATM   20  C   UNL     1     -13.497  15.008  70.783  1.00  0.00    -0.316 A  
HETATM   21  C   UNL     1     -13.648  15.810  73.057  1.00  0.00    -0.638 A  
HETATM   22  C   UNL     1     -12.259  15.904  73.111  1.00  0.00    -0.622 A  
ENDBRANCH  16  17
ENDBRANCH  14  15
ENDBRANCH   2  14
TORSDOF 5
ENDMDL
MODEL       18
REMARK 921   NORMALIZED FREE ENERGY PREDICTED BY IDOCK:   -6.15 KCAL/MOL
REMARK 922        TOTAL FREE ENERGY PREDICTED BY IDOCK:   -9.26 KCAL/MOL
REMARK 923 INTER-LIGAND FREE ENERGY PREDICTED BY IDOCK:   -8.19 KCAL/MOL
REMARK 924 INTRA-LIGAND FREE ENERGY PREDICTED BY IDOCK:   -1.07 KCAL/MOL
REMARK 927      BINDING AFFINITY PREDICTED BY RF-SCORE:    0.00 PKD
ROOT
HETATM    1  C   UNL     1      -9.702  11.684  66.439  1.00  0.00    -0.214 C  
HETATM    2  N   UNL     1     -10.144  13.016  66.861  1.00  0.00    -0.239 NA 
ENDROOT
BRANCH   2   3
HETATM    3  C   UNL     1     -11.586  13.027  67.194  1.00  0.00    -0.358 C  
BRANCH   3   4
HETATM    4  C   UNL     1     -11.891  13.390  68.642  1.00  0.00    -0.397 A  
HETATM    5  C   UNL     1     -12.156  12.410  69.643  1.00  0.00    -0.271 A  
HETATM    6  C   UNL     1     -11.930  14.757  68.975  1.00  0.00    -0.308 A  
HETATM    7  C   UNL     1     -12.113  11.014  69.414  1.00  0.00    -0.389 A  
HETATM    8  C   UNL     1     -12.450  10.091  70.407  1.00  0.00    -0.179 A  
HETATM    9  C   UNL     1     -12.254  15.166  70.262  1.00  0.00    -0.395 A  
HETATM   10  C   UNL     1     -12.821  10.539  71.667  1.00  0.00    -0.581 A  
HETATM   11  C   UNL     1     -12.545  14.217  71.238  1.00  0.00    -0.438 A  
HETATM   12  C   UNL     1     -12.510  12.847  70.945  1.00  0.00    -0.383 A  
HETATM   13  C   UNL     1     -12.837  11.907  71.937  1.00  0.00    -0.341 A  
ENDBRANCH   3   4
ENDBRANCH   2   3
BRANCH   2  14
HETATM   14  C   UNL     1      -9.814  13.998  65.819  1.00  0.00    -0.256 C  
BRANCH  14  15
HETATM   15  C   UNL     1      -9.575  15.371  66.381  1.00  0.00    -0.319 C  
HETATM   16  C   UNL     1     -10.404  16.408  66.176  1.00  0.00    -0.354 C  
BRANCH  16  17
HETATM   17  C   UNL     1     -10.254  17.733  66.794  1.00  0.00    -0.351 A  
HETATM   18  C   UNL     1     -10.052  17.913  68.167  1.00  0.00    -0.368 A  
HETATM   19  C   UNL     1     -10.153  20.147  66.504  1.00  0.00    -0.577 A  
HETATM   20  C   UNL     1     -10.286  18.864  65.966  1.00  0.00    -0.485 A  
HETATM   21  C   UNL     1      -9.976  20.312  67.875  1.00  0.00    -0.492 A  
HETATM   22  C   UNL     1      -9.920  19.196  68.706  1.00  0.00    -0.493 A  
ENDBRANCH  16  17
ENDBRANCH  14  15
ENDBRANCH   2  14
TORSDOF 5
ENDMDL
MODEL       19
REMARK 921   NORMALIZED FREE ENERGY PREDICTED BY IDOCK:   -6.12 KCAL/MOL
REMARK 922        TOTAL FREE ENERGY PREDICTED BY IDOCK:   -9.22 KCAL/MOL
REMARK 923 INTER-LIGAND FREE ENERGY PREDICTED BY IDOCK:   -8.75 KCAL/MOL
REMARK 924 INTRA-LIGAND FREE ENERGY PREDICTED BY IDOCK:   -0.47 KCAL/MOL
REMARK 927      BINDING AFFINITY PREDICTED BY RF-SCORE:    0.00 PKD
ROOT
HETATM    1  C   UNL     1      -9.487  15.579  69.380  1.00  0.00    -0.278 C  
HETATM    2  N   UNL     1     -10.803  16.115  69.019  1.00  0.00    -0.277 NA 
ENDROOT
BRANCH   2   3
HETATM    3  C   UNL     1     -11.791  15.032  68.816  1.00  0.00    -0.301 C  
BRANCH   3   4
HETATM    4  C   UNL     1     -12.429  14.518  70.100  1.00  0.00    -0.375 A  
HETATM    5  C   UNL     1     -12.364  13.151  70.500  1.00  0.00    -0.380 A  
HETATM    6  C   UNL     1     -13.127  15.446  70.896  1.00  0.00    -0.528 A  
HETATM    7  C   UNL     1     -11.665  12.150  69.784  1.00  0.00    -0.381 A  
HETATM    8  C   UNL     1     -11.687  10.809  70.175  1.00  0.00    -0.425 A  
HETATM    9  C   UNL     1     -13.778  15.041  72.053  1.00  0.00    -0.550 A  
HETATM   10  C   UNL     1     -12.395  10.433  71.307  1.00  0.00    -0.507 A  
HETATM   11  C   UNL     1     -13.747  13.702  72.435  1.00  0.00    -0.697 A  
HETATM   12  C   UNL     1     -13.057  12.751  71.671  1.00  0.00    -0.428 A  
HETATM   13  C   UNL     1     -13.063  11.400  72.057  1.00  0.00    -0.423 A  
ENDBRANCH   3   4
ENDBRANCH   2   3
BRANCH   2  14
HETATM   14  C   UNL     1     -10.677  16.973  67.833  1.00  0.00    -0.348 C  
BRANCH  14  15
HETATM   15  C   UNL     1      -9.375  17.723  67.805  1.00  0.00    -0.257 C  
HETATM   16  C   UNL     1      -9.262  19.019  68.138  1.00  0.00    -0.371 C  
BRANCH  16  17
HETATM   17  C   UNL     1      -7.990  19.754  68.220  1.00  0.00    -0.330 A  
HETATM   18  C   UNL     1      -7.118  19.643  69.308  1.00  0.00    -0.366 A  
HETATM   19  C   UNL     1      -6.429  21.300  67.177  1.00  0.00    -0.411 A  
HETATM   20  C   UNL     1      -7.624  20.578  67.146  1.00  0.00    -0.372 A  
HETATM   21  C   UNL     1      -5.581  21.199  68.276  1.00  0.00    -0.365 A  
HETATM   22  C   UNL     1      -5.923  20.366  69.340  1.00  0.00    -0.379 A  
ENDBRANCH  16  17
ENDBRANCH  14  15
ENDBRANCH   2  14
TORSDOF 5
ENDMDL
MODEL       20
REMARK 921   NORMALIZED FREE ENERGY PREDICTED BY IDOCK:   -6.12 KCAL/MOL
REMARK 922        TOTAL FREE ENERGY PREDICTED BY IDOCK:   -9.22 KCAL/MOL
REMARK 923 INTER-LIGAND FREE ENERGY PREDICTED BY IDOCK:   -8.10 KCAL/MOL
REMARK 924 INTRA-LIGAND FREE ENERGY PREDICTED BY IDOCK:   -1.12 KCAL/MOL
REMARK 927      BINDING AFFINITY PREDICTED BY RF-SCORE:    0.00 PKD
ROOT
HETATM    1  C   UNL     1     -11.999  15.056  64.938  1.00  0.00    -0.255 C  
HETATM    2  N   UNL     1     -11.195  14.160  65.774  1.00  0.00    -0.307 NA 
ENDROOT
BRANCH   2   3
HETATM    3  C   UNL     1     -11.974  12.978  66.204  1.00  0.00    -0.427 C  
BRANCH   3   4
HETATM    4  C   UNL     1     -11.189  11.672  66.191  1.00  0.00    -0.314 A  
HETATM    5  C   UNL     1     -11.008  10.870  67.356  1.00  0.00    -0.353 A  
HETATM    6  C   UNL     1     -10.607  11.275  64.972  1.00  0.00    -0.353 A  
HETATM    7  C   UNL     1     -11.575  11.169  68.618  1.00  0.00    -0.383 A  
HETATM    8  C   UNL     1     -11.313  10.392  69.749  1.00  0.00    -0.353 A  
HETATM    9  C   UNL     1      -9.834  10.125  64.896  1.00  0.00    -0.390 A  
HETATM   10  C   UNL     1     -10.490   9.280  69.646  1.00  0.00    -0.234 A  
HETATM   11  C   UNL     1      -9.625   9.352  66.036  1.00  0.00    -0.328 A  
HETATM   12  C   UNL     1     -10.194   9.712  67.265  1.00  0.00    -0.292 A  
HETATM   13  C   UNL     1      -9.947   8.935  68.409  1.00  0.00    -0.198 A  
ENDBRANCH   3   4
ENDBRANCH   2   3
BRANCH   2  14
HETATM   14  C   UNL     1     -10.652  14.906  66.917  1.00  0.00    -0.300 C  
BRANCH  14  15
HETATM   15  C   UNL     1     -11.390  14.615  68.193  1.00  0.00    -0.321 C  
HETATM   16  C   UNL     1     -11.106  15.209  69.364  1.00  0.00    -0.283 C  
BRANCH  16  17
HETATM   17  C   UNL     1     -11.873  15.024  70.604  1.00  0.00    -0.364 A  
HETATM   18  C   UNL     1     -12.021  16.032  71.564  1.00  0.00    -0.539 A  
HETATM   19  C   UNL     1     -13.246  13.564  71.984  1.00  0.00    -0.529 A  
HETATM   20  C   UNL     1     -12.508  13.793  70.819  1.00  0.00    -0.441 A  
HETATM   21  C   UNL     1     -13.365  14.567  72.941  1.00  0.00    -0.579 A  
HETATM   22  C   UNL     1     -12.758  15.803  72.729  1.00  0.00    -0.553 A  
ENDBRANCH  16  17
ENDBRANCH  14  15
ENDBRANCH   2  14
TORSDOF 5
ENDMDL
MODEL       21
REMARK 921   NORMALIZED FREE ENERGY PREDICTED BY IDOCK:   -6.10 KCAL/MOL
REMARK 922        TOTAL FREE ENERGY PREDICTED BY IDOCK:   -9.19 KCAL/MOL
REMARK 923 INTER-LIGAND FREE ENERGY PREDICTED BY IDOCK:   -8.12 KCAL/MOL
REMARK 924 INTRA-LIGAND FREE ENERGY PREDICTED BY IDOCK:   -1.07 KCAL/MOL
REMARK 927      BINDING AFFINITY PREDICTED BY RF-SCORE:    0.00 PKD
ROOT
HETATM    1  C   UNL     1     -12.377   8.117  71.959  1.00  0.00    -0.338 C  
HETATM    2  N   UNL     1     -12.562   9.266  71.067  1.00  0.00    -0.238 NA 
ENDROOT
BRANCH   2   3
HETATM    3  C   UNL     1     -11.267   9.884  70.706  1.00  0.00    -0.353 C  
BRANCH   3   4
HETATM    4  C   UNL     1     -10.949   9.845  69.217  1.00  0.00    -0.244 A  
HETATM    5  C   UNL     1     -11.166  10.958  68.352  1.00  0.00    -0.347 A  
HETATM    6  C   UNL     1     -10.444   8.641  68.691  1.00  0.00    -0.208 A  
HETATM    7  C   UNL     1     -11.643  12.217  68.789  1.00  0.00    -0.380 A  
HETATM    8  C   UNL     1     -11.908  13.258  67.896  1.00  0.00    -0.388 A  
HETATM    9  C   UNL     1     -10.180   8.514  67.334  1.00  0.00    -0.329 A  
HETATM   10  C   UNL     1     -11.685  13.075  66.539  1.00  0.00    -0.437 A  
HETATM   11  C   UNL     1     -10.419   9.585  66.477  1.00  0.00    -0.201 A  
HETATM   12  C   UNL     1     -10.916  10.801  66.966  1.00  0.00    -0.292 A  
HETATM   13  C   UNL     1     -11.178  11.860  66.080  1.00  0.00    -0.387 A  
ENDBRANCH   3   4
ENDBRANCH   2   3
BRANCH   2  14
HETATM   14  C   UNL     1     -13.477  10.231  71.690  1.00  0.00    -0.265 C  
BRANCH  14  15
HETATM   15  C   UNL     1     -12.852  11.588  71.856  1.00  0.00    -0.372 C  
HETATM   16  C   UNL     1     -13.565  12.721  71.969  1.00  0.00    -0.460 C  
BRANCH  16  17
HETATM   17  C   UNL     1     -12.989  14.048  72.235  1.00  0.00    -0.463 A  
HETATM   18  C   UNL     1     -13.005  14.644  73.501  1.00  0.00    -0.335 A  
HETATM   19  C   UNL     1     -11.813  15.997  71.377  1.00  0.00    -0.531 A  
HETATM   20  C   UNL     1     -12.372  14.732  71.178  1.00  0.00    -0.397 A  
HETATM   21  C   UNL     1     -11.857  16.588  72.636  1.00  0.00    -0.445 A  
HETATM   22  C   UNL     1     -12.448  15.909  73.700  1.00  0.00    -0.711 A  
ENDBRANCH  16  17
ENDBRANCH  14  15
ENDBRANCH   2  14
TORSDOF 5
ENDMDL
MODEL       22
REMARK 921   NORMALIZED FREE ENERGY PREDICTED BY IDOCK:   -6.09 KCAL/MOL
REMARK 922        TOTAL FREE ENERGY PREDICTED BY IDOCK:   -9.18 KCAL/MOL
REMARK 923 INTER-LIGAND FREE ENERGY PREDICTED BY IDOCK:   -8.08 KCAL/MOL
REMARK 924 INTRA-LIGAND FREE ENERGY PREDICTED BY IDOCK:   -1.10 KCAL/MOL
REMARK 927      BINDING AFFINITY PREDICTED BY RF-SCORE:    0.00 PKD
ROOT
HETATM    1  C   UNL     1      -9.684   7.925  69.801  1.00  0.00    -0.176 C  
HETATM    2  N   UNL     1     -10.585   8.994  69.359  1.00  0.00    -0.228 NA 
ENDROOT
BRANCH   2   3
HETATM    3  C   UNL     1      -9.831  10.148  68.821  1.00  0.00    -0.175 C  
BRANCH   3   4
HETATM    4  C   UNL     1      -9.912  10.297  67.307  1.00  0.00    -0.233 A  
HETATM    5  C   UNL     1     -10.655  11.336  66.673  1.00  0.00    -0.309 A  
HETATM    6  C   UNL     1      -9.237   9.343  66.522  1.00  0.00    -0.202 A  
HETATM    7  C   UNL     1     -11.343  12.356  67.373  1.00  0.00    -0.381 A  
HETATM    8  C   UNL     1     -12.117  13.312  66.712  1.00  0.00    -0.403 A  
HETATM    9  C   UNL     1      -9.309   9.383  65.136  1.00  0.00    -0.288 A  
HETATM   10  C   UNL     1     -12.211  13.288  65.329  1.00  0.00    -0.492 A  
HETATM   11  C   UNL     1     -10.059  10.375  64.509  1.00  0.00    -0.365 A  
HETATM   12  C   UNL     1     -10.739  11.346  65.258  1.00  0.00    -0.326 A  
HETATM   13  C   UNL     1     -11.514  12.320  64.606  1.00  0.00    -0.392 A  
ENDBRANCH   3   4
ENDBRANCH   2   3
BRANCH   2  14
HETATM   14  C   UNL     1     -11.468   9.384  70.467  1.00  0.00    -0.262 C  
BRANCH  14  15
HETATM   15  C   UNL     1     -11.622  10.875  70.579  1.00  0.00    -0.397 C  
HETATM   16  C   UNL     1     -12.700  11.468  71.119  1.00  0.00    -0.458 C  
BRANCH  16  17
HETATM   17  C   UNL     1     -12.836  12.916  71.337  1.00  0.00    -0.377 A  
HETATM   18  C   UNL     1     -12.182  13.868  70.548  1.00  0.00    -0.443 A  
HETATM   19  C   UNL     1     -13.844  14.724  72.615  1.00  0.00    -0.506 A  
HETATM   20  C   UNL     1     -13.682  13.359  72.363  1.00  0.00    -0.698 A  
HETATM   21  C   UNL     1     -13.169  15.660  71.837  1.00  0.00    -0.537 A  
HETATM   22  C   UNL     1     -12.342  15.234  70.800  1.00  0.00    -0.433 A  
ENDBRANCH  16  17
ENDBRANCH  14  15
ENDBRANCH   2  14
TORSDOF 5
ENDMDL
MODEL       23
REMARK 921   NORMALIZED FREE ENERGY PREDICTED BY IDOCK:   -6.06 KCAL/MOL
REMARK 922        TOTAL FREE ENERGY PREDICTED BY IDOCK:   -9.14 KCAL/MOL
REMARK 923 INTER-LIGAND FREE ENERGY PREDICTED BY IDOCK:   -8.51 KCAL/MOL
REMARK 924 INTRA-LIGAND FREE ENERGY PREDICTED BY IDOCK:   -0.63 KCAL/MOL
REMARK 927      BINDING AFFINITY PREDICTED BY RF-SCORE:    0.00 PKD
ROOT
HETATM    1  C   UNL     1     -11.279  14.956  64.833  1.00  0.00    -0.410 C  
HETATM    2  N   UNL     1     -10.980  14.407  66.159  1.00  0.00    -0.315 NA 
ENDROOT
BRANCH   2   3
HETATM    3  C   UNL     1     -12.044  13.487  66.616  1.00  0.00    -0.396 C  
BRANCH   3   4
HETATM    4  C   UNL     1     -11.530  12.194  67.237  1.00  0.00    -0.413 A  
HETATM    5  C   UNL     1     -10.779  11.231  66.501  1.00  0.00    -0.323 A  
HETATM    6  C   UNL     1     -11.843  11.952  68.588  1.00  0.00    -0.365 A  
HETATM    7  C   UNL     1     -10.391  11.395  65.150  1.00  0.00    -0.344 A  
HETATM    8  C   UNL     1      -9.717  10.393  64.448  1.00  0.00    -0.396 A  
HETATM    9  C   UNL     1     -11.454  10.771  69.207  1.00  0.00    -0.369 A  
HETATM   10  C   UNL     1      -9.393   9.204  65.084  1.00  0.00    -0.180 A  
HETATM   11  C   UNL     1     -10.748   9.811  68.487  1.00  0.00    -0.252 A  
HETATM   12  C   UNL     1     -10.413  10.020  67.142  1.00  0.00    -0.305 A  
HETATM   13  C   UNL     1      -9.726   9.026  66.426  1.00  0.00    -0.337 A  
ENDBRANCH   3   4
ENDBRANCH   2   3
BRANCH   2  14
HETATM   14  C   UNL     1     -10.757  15.506  67.109  1.00  0.00    -0.315 C  
BRANCH  14  15
HETATM   15  C   UNL     1     -11.666  15.423  68.303  1.00  0.00    -0.313 C  
HETATM   16  C   UNL     1     -11.231  15.512  69.571  1.00  0.00    -0.300 C  
BRANCH  16  17
HETATM   17  C   UNL     1     -12.103  15.538  70.754  1.00  0.00    -0.435 A  
HETATM   18  C   UNL     1     -13.452  15.167  70.714  1.00  0.00    -0.345 A  
HETATM   19  C   UNL     1     -12.336  15.971  73.137  1.00  0.00    -0.637 A  
HETATM   20  C   UNL     1     -11.549  15.925  71.983  1.00  0.00    -0.525 A  
HETATM   21  C   UNL     1     -13.681  15.620  73.077  1.00  0.00    -0.560 A  
HETATM   22  C   UNL     1     -14.239  15.213  71.867  1.00  0.00    -0.676 A  
ENDBRANCH  16  17
ENDBRANCH  14  15
ENDBRANCH   2  14
TORSDOF 5
ENDMDL
MODEL       24
REMARK 921   NORMALIZED FREE ENERGY PREDICTED BY IDOCK:   -6.04 KCAL/MOL
REMARK 922        TOTAL FREE ENERGY PREDICTED BY IDOCK:   -9.11 KCAL/MOL
REMARK 923 INTER-LIGAND FREE ENERGY PREDICTED BY IDOCK:   -8.57 KCAL/MOL
REMARK 924 INTRA-LIGAND FREE ENERGY PREDICTED BY IDOCK:   -0.54 KCAL/MOL
REMARK 927      BINDING AFFINITY PREDICTED BY RF-SCORE:    0.00 PKD
ROOT
HETATM    1  C   UNL     1     -12.122  13.908  70.118  1.00  0.00    -0.349 C  
HETATM    2  N   UNL     1     -11.629  13.529  68.790  1.00  0.00    -0.300 NA 
ENDROOT
BRANCH   2   3
HETATM    3  C   UNL     1     -11.889  12.101  68.503  1.00  0.00    -0.310 C  
BRANCH   3   4
HETATM    4  C   UNL     1     -11.197  11.578  67.251  1.00  0.00    -0.365 A  
HETATM    5  C   UNL     1     -11.385  12.163  65.964  1.00  0.00    -0.410 A  
HETATM    6  C   UNL     1     -10.360  10.455  67.392  1.00  0.00    -0.275 A  
HETATM    7  C   UNL     1     -12.183  13.308  65.725  1.00  0.00    -0.510 A  
HETATM    8  C   UNL     1     -12.396  13.804  64.437  1.00  0.00    -0.389 A  
HETATM    9  C   UNL     1      -9.738   9.890  66.287  1.00  0.00    -0.281 A  
HETATM   10  C   UNL     1     -11.801  13.180  63.351  1.00  0.00    -0.490 A  
HETATM   11  C   UNL     1      -9.941  10.435  65.022  1.00  0.00    -0.399 A  
HETATM   12  C   UNL     1     -10.762  11.557  64.844  1.00  0.00    -0.357 A  
HETATM   13  C   UNL     1     -10.978  12.072  63.555  1.00  0.00    -0.514 A  
ENDBRANCH   3   4
ENDBRANCH   2   3
BRANCH   2  14
HETATM   14  C   UNL     1     -10.201  13.861  68.681  1.00  0.00    -0.218 C  
BRANCH  14  15
HETATM   15  C   UNL     1      -9.966  15.338  68.538  1.00  0.00    -0.222 C  
HETATM   16  C   UNL     1     -10.477  16.075  67.538  1.00  0.00    -0.297 C  
BRANCH  16  17
HETATM   17  C   UNL     1     -10.351  17.535  67.426  1.00  0.00    -0.351 A  
HETATM   18  C   UNL     1     -10.160  18.369  68.533  1.00  0.00    -0.413 A  
HETATM   19  C   UNL     1     -10.286  19.497  65.989  1.00  0.00    -0.604 A  
HETATM   20  C   UNL     1     -10.396  18.114  66.149  1.00  0.00    -0.394 A  
HETATM   21  C   UNL     1     -10.120  20.316  67.101  1.00  0.00    -0.556 A  
HETATM   22  C   UNL     1     -10.051  19.753  68.373  1.00  0.00    -0.568 A  
ENDBRANCH  16  17
ENDBRANCH  14  15
ENDBRANCH   2  14
TORSDOF 5
ENDMDL
MODEL       25
REMARK 921   NORMALIZED FREE ENERGY PREDICTED BY IDOCK:   -6.00 KCAL/MOL
REMARK 922        TOTAL FREE ENERGY PREDICTED BY IDOCK:   -9.06 KCAL/MOL
REMARK 923 INTER-LIGAND FREE ENERGY PREDICTED BY IDOCK:   -7.96 KCAL/MOL
REMARK 924 INTRA-LIGAND FREE ENERGY PREDICTED BY IDOCK:   -1.10 KCAL/MOL
REMARK 927      BINDING AFFINITY PREDICTED BY RF-SCORE:    0.00 PKD
ROOT
HETATM    1  C   UNL     1     -11.020   7.825  72.869  1.00  0.00    -0.407 C  
HETATM    2  N   UNL     1     -11.562   8.365  71.619  1.00  0.00    -0.272 NA 
ENDROOT
BRANCH   2   3
HETATM    3  C   UNL     1     -10.565   9.198  70.912  1.00  0.00    -0.273 C  
BRANCH   3   4
HETATM    4  C   UNL     1     -10.392   8.852  69.438  1.00  0.00    -0.217 A  
HETATM    5  C   UNL     1     -10.409   9.837  68.408  1.00  0.00    -0.230 A  
HETATM    6  C   UNL     1     -10.234   7.494  69.103  1.00  0.00    -0.202 A  
HETATM    7  C   UNL     1     -10.533  11.227  68.644  1.00  0.00    -0.226 A  
HETATM    8  C   UNL     1     -10.617  12.150  67.600  1.00  0.00    -0.236 A  
HETATM    9  C   UNL     1     -10.124   7.097  67.777  1.00  0.00    -0.215 A  
HETATM   10  C   UNL     1     -10.558  11.711  66.285  1.00  0.00    -0.301 A  
HETATM   11  C   UNL     1     -10.172   8.049  66.762  1.00  0.00    -0.367 A  
HETATM   12  C   UNL     1     -10.321   9.411  67.058  1.00  0.00    -0.322 A  
HETATM   13  C   UNL     1     -10.397  10.352  66.018  1.00  0.00    -0.262 A  
ENDBRANCH   3   4
ENDBRANCH   2   3
BRANCH   2  14
HETATM   14  C   UNL     1     -12.799   9.106  71.898  1.00  0.00    -0.393 C  
BRANCH  14  15
HETATM   15  C   UNL     1     -12.721  10.539  71.450  1.00  0.00    -0.547 C  
HETATM   16  C   UNL     1     -13.376  11.541  72.060  1.00  0.00    -0.397 C  
BRANCH  16  17
HETATM   17  C   UNL     1     -13.240  12.963  71.712  1.00  0.00    -0.479 A  
HETATM   18  C   UNL     1     -12.303  13.433  70.786  1.00  0.00    -0.433 A  
HETATM   19  C   UNL     1     -14.020  15.247  72.021  1.00  0.00    -0.645 A  
HETATM   20  C   UNL     1     -14.110  13.883  72.315  1.00  0.00    -0.632 A  
HETATM   21  C   UNL     1     -13.067  15.703  71.116  1.00  0.00    -0.523 A  
HETATM   22  C   UNL     1     -12.212  14.796  70.494  1.00  0.00    -0.385 A  
ENDBRANCH  16  17
ENDBRANCH  14  15
ENDBRANCH   2  14
TORSDOF 5
ENDMDL
MODEL       26
REMARK 921   NORMALIZED FREE ENERGY PREDICTED BY IDOCK:   -5.99 KCAL/MOL
REMARK 922        TOTAL FREE ENERGY PREDICTED BY IDOCK:   -9.05 KCAL/MOL
REMARK 923 INTER-LIGAND FREE ENERGY PREDICTED BY IDOCK:   -7.94 KCAL/MOL
REMARK 924 INTRA-LIGAND FREE ENERGY PREDICTED BY IDOCK:   -1.11 KCAL/MOL
REMARK 927      BINDING AFFINITY PREDICTED BY RF-SCORE:    0.00 PKD
ROOT
HETATM    1  C   UNL     1     -10.662  15.971  70.107  1.00  0.00    -0.312 C  
HETATM    2  N   UNL     1     -11.057  14.692  69.508  1.00  0.00    -0.262 NA 
ENDROOT
BRANCH   2   3
HETATM    3  C   UNL     1     -11.009  14.750  68.030  1.00  0.00    -0.271 C  
BRANCH   3   4
HETATM    4  C   UNL     1     -10.554  13.456  67.367  1.00  0.00    -0.254 A  
HETATM    5  C   UNL     1     -10.979  13.066  66.063  1.00  0.00    -0.296 A  
HETATM    6  C   UNL     1      -9.696  12.616  68.103  1.00  0.00    -0.219 A  
HETATM    7  C   UNL     1     -11.816  13.854  65.236  1.00  0.00    -0.365 A  
HETATM    8  C   UNL     1     -12.266  13.400  63.994  1.00  0.00    -0.466 A  
HETATM    9  C   UNL     1      -9.282  11.396  67.585  1.00  0.00    -0.158 A  
HETATM   10  C   UNL     1     -11.875  12.151  63.534  1.00  0.00    -0.597 A  
HETATM   11  C   UNL     1      -9.718  10.993  66.326  1.00  0.00    -0.244 A  
HETATM   12  C   UNL     1     -10.567  11.806  65.562  1.00  0.00    -0.323 A  
HETATM   13  C   UNL     1     -11.019  11.367  64.307  1.00  0.00    -0.390 A  
ENDBRANCH   3   4
ENDBRANCH   2   3
BRANCH   2  14
HETATM   14  C   UNL     1     -12.386  14.307  70.000  1.00  0.00    -0.346 C  
BRANCH  14  15
HETATM   15  C   UNL     1     -12.364  13.002  70.745  1.00  0.00    -0.394 C  
HETATM   16  C   UNL     1     -12.183  11.812  70.148  1.00  0.00    -0.342 C  
BRANCH  16  17
HETATM   17  C   UNL     1     -12.054  10.531  70.857  1.00  0.00    -0.487 A  
HETATM   18  C   UNL     1     -10.891   9.754  70.817  1.00  0.00    -0.403 A  
HETATM   19  C   UNL     1     -13.064   8.871  72.321  1.00  0.00    -0.491 A  
HETATM   20  C   UNL     1     -13.134  10.084  71.631  1.00  0.00    -0.547 A  
HETATM   21  C   UNL     1     -11.909   8.097  72.254  1.00  0.00    -0.441 A  
HETATM   22  C   UNL     1     -10.821   8.540  71.506  1.00  0.00    -0.332 A  
ENDBRANCH  16  17
ENDBRANCH  14  15
ENDBRANCH   2  14
TORSDOF 5
ENDMDL
MODEL       27
REMARK 921   NORMALIZED FREE ENERGY PREDICTED BY IDOCK:   -5.98 KCAL/MOL
REMARK 922        TOTAL FREE ENERGY PREDICTED BY IDOCK:   -9.04 KCAL/MOL
REMARK 923 INTER-LIGAND FREE ENERGY PREDICTED BY IDOCK:   -7.98 KCAL/MOL
REMARK 924 INTRA-LIGAND FREE ENERGY PREDICTED BY IDOCK:   -1.06 KCAL/MOL
REMARK 927      BINDING AFFINITY PREDICTED BY RF-SCORE:    0.00 PKD
ROOT
HETATM    1  C   UNL     1     -11.114  15.518  67.466  1.00  0.00    -0.305 C  
HETATM    2  N   UNL     1     -11.412  14.141  67.871  1.00  0.00    -0.294 NA 
ENDROOT
BRANCH   2   3
HETATM    3  C   UNL     1     -12.371  13.500  66.944  1.00  0.00    -0.238 C  
BRANCH   3   4
HETATM    4  C   UNL     1     -11.718  12.714  65.814  1.00  0.00    -0.466 A  
HETATM    5  C   UNL     1     -11.030  11.484  66.028  1.00  0.00    -0.316 A  
HETATM    6  C   UNL     1     -11.791  13.258  64.518  1.00  0.00    -0.433 A  
HETATM    7  C   UNL     1     -10.926  10.844  67.286  1.00  0.00    -0.355 A  
HETATM    8  C   UNL     1     -10.181   9.676  67.462  1.00  0.00    -0.274 A  
HETATM    9  C   UNL     1     -11.174  12.625  63.447  1.00  0.00    -0.404 A  
HETATM   10  C   UNL     1      -9.533   9.101  66.378  1.00  0.00    -0.288 A  
HETATM   11  C   UNL     1     -10.473  11.440  63.651  1.00  0.00    -0.472 A  
HETATM   12  C   UNL     1     -10.385  10.865  64.927  1.00  0.00    -0.371 A  
HETATM   13  C   UNL     1      -9.647   9.685  65.117  1.00  0.00    -0.324 A  
ENDBRANCH   3   4
ENDBRANCH   2   3
BRANCH   2  14
HETATM   14  C   UNL     1     -11.897  14.130  69.258  1.00  0.00    -0.338 C  
BRANCH  14  15
HETATM   15  C   UNL     1     -11.661  12.809  69.936  1.00  0.00    -0.321 C  
HETATM   16  C   UNL     1     -12.630  12.112  70.553  1.00  0.00    -0.184 C  
BRANCH  16  17
HETATM   17  C   UNL     1     -12.456  10.773  71.134  1.00  0.00    -0.519 A  
HETATM   18  C   UNL     1     -13.461  10.122  71.859  1.00  0.00    -0.426 A  
HETATM   19  C   UNL     1     -11.022   8.835  71.461  1.00  0.00    -0.377 A  
HETATM   20  C   UNL     1     -11.239  10.107  70.926  1.00  0.00    -0.383 A  
HETATM   21  C   UNL     1     -12.021   8.209  72.200  1.00  0.00    -0.413 A  
HETATM   22  C   UNL     1     -13.243   8.850  72.395  1.00  0.00    -0.482 A  
ENDBRANCH  16  17
ENDBRANCH  14  15
ENDBRANCH   2  14
TORSDOF 5
ENDMDL
MODEL       28
REMARK 921   NORMALIZED FREE ENERGY PREDICTED BY IDOCK:   -5.95 KCAL/MOL
REMARK 922        TOTAL FREE ENERGY PREDICTED BY IDOCK:   -9.00 KCAL/MOL
REMARK 923 INTER-LIGAND FREE ENERGY PREDICTED BY IDOCK:   -7.73 KCAL/MOL
REMARK 924 INTRA-LIGAND FREE ENERGY PREDICTED BY IDOCK:   -1.27 KCAL/MOL
REMARK 927      BINDING AFFINITY PREDICTED BY RF-SCORE:    0.00 PKD
ROOT
HETATM    1  C   UNL     1     -10.467  16.603  68.061  1.00  0.00    -0.320 C  
HETATM    2  N   UNL     1     -10.537  15.254  67.490  1.00  0.00    -0.267 NA 
ENDROOT
BRANCH   2   3
HETATM    3  C   UNL     1     -10.202  15.259  66.049  1.00  0.00    -0.317 C  
BRANCH   3   4
HETATM    4  C   UNL     1     -10.705  14.041  65.285  1.00  0.00    -0.367 A  
HETATM    5  C   UNL     1     -10.140  12.741  65.448  1.00  0.00    -0.274 A  
HETATM    6  C   UNL     1     -11.755  14.236  64.369  1.00  0.00    -0.405 A  
HETATM    7  C   UNL     1      -9.102  12.439  66.362  1.00  0.00    -0.149 A  
HETATM    8  C   UNL     1      -8.531  11.167  66.437  1.00  0.00    -0.167 A  
HETATM    9  C   UNL     1     -12.231  13.183  63.599  1.00  0.00    -0.553 A  
HETATM   10  C   UNL     1      -8.995  10.153  65.612  1.00  0.00    -0.199 A  
HETATM   11  C   UNL     1     -11.664  11.918  63.728  1.00  0.00    -0.554 A  
HETATM   12  C   UNL     1     -10.621  11.684  64.634  1.00  0.00    -0.366 A  
HETATM   13  C   UNL     1     -10.043  10.407  64.728  1.00  0.00    -0.387 A  
ENDBRANCH   3   4
ENDBRANCH   2   3
BRANCH   2  14
HETATM   14  C   UNL     1     -11.865  14.680  67.744  1.00  0.00    -0.329 C  
BRANCH  14  15
HETATM   15  C   UNL     1     -11.833  13.605  68.794  1.00  0.00    -0.395 C  
HETATM   16  C   UNL     1     -11.870  12.293  68.510  1.00  0.00    -0.359 C  
BRANCH  16  17
HETATM   17  C   UNL     1     -11.736  11.218  69.504  1.00  0.00    -0.415 A  
HETATM   18  C   UNL     1     -10.854  10.143  69.348  1.00  0.00    -0.274 A  
HETATM   19  C   UNL     1     -12.420  10.292  71.647  1.00  0.00    -0.491 A  
HETATM   20  C   UNL     1     -12.507  11.290  70.673  1.00  0.00    -0.439 A  
HETATM   21  C   UNL     1     -11.556   9.217  71.468  1.00  0.00    -0.439 A  
HETATM   22  C   UNL     1     -10.768   9.144  70.321  1.00  0.00    -0.268 A  
ENDBRANCH  16  17
ENDBRANCH  14  15
ENDBRANCH   2  14
TORSDOF 5
ENDMDL
MODEL       29
REMARK 921   NORMALIZED FREE ENERGY PREDICTED BY IDOCK:   -5.94 KCAL/MOL
REMARK 922        TOTAL FREE ENERGY PREDICTED BY IDOCK:   -8.99 KCAL/MOL
REMARK 923 INTER-LIGAND FREE ENERGY PREDICTED BY IDOCK:   -8.02 KCAL/MOL
REMARK 924 INTRA-LIGAND FREE ENERGY PREDICTED BY IDOCK:   -0.97 KCAL/MOL
REMARK 927      BINDING AFFINITY PREDICTED BY RF-SCORE:    0.00 PKD
ROOT
HETATM    1  C   UNL     1     -11.955  16.155  72.523  1.00  0.00    -0.561 C  
HETATM    2  N   UNL     1     -12.397  15.123  71.580  1.00  0.00    -0.321 NA 
ENDROOT
BRANCH   2   3
HETATM    3  C   UNL     1     -12.636  15.687  70.233  1.00  0.00    -0.280 C  
BRANCH   3   4
HETATM    4  C   UNL     1     -11.415  15.674  69.323  1.00  0.00    -0.368 A  
HETATM    5  C   UNL     1     -11.151  14.618  68.401  1.00  0.00    -0.270 A  
HETATM    6  C   UNL     1     -10.510  16.747  69.433  1.00  0.00    -0.312 A  
HETATM    7  C   UNL     1     -12.012  13.513  68.198  1.00  0.00    -0.376 A  
HETATM    8  C   UNL     1     -11.680  12.466  67.335  1.00  0.00    -0.417 A  
HETATM    9  C   UNL     1      -9.348  16.776  68.674  1.00  0.00    -0.252 A  
HETATM   10  C   UNL     1     -10.483  12.504  66.634  1.00  0.00    -0.252 A  
HETATM   11  C   UNL     1      -9.067  15.735  67.794  1.00  0.00    -0.188 A  
HETATM   12  C   UNL     1      -9.947  14.653  67.653  1.00  0.00    -0.227 A  
HETATM   13  C   UNL     1      -9.631  13.598  66.781  1.00  0.00    -0.277 A  
ENDBRANCH   3   4
ENDBRANCH   2   3
BRANCH   2  14
HETATM   14  C   UNL     1     -13.587  14.446  72.112  1.00  0.00    -0.435 C  
BRANCH  14  15
HETATM   15  C   UNL     1     -13.431  12.952  72.143  1.00  0.00    -0.619 C  
HETATM   16  C   UNL     1     -12.748  12.261  71.215  1.00  0.00    -0.351 C  
BRANCH  16  17
HETATM   17  C   UNL     1     -12.490  10.815  71.270  1.00  0.00    -0.504 A  
HETATM   18  C   UNL     1     -11.395  10.213  70.639  1.00  0.00    -0.433 A  
HETATM   19  C   UNL     1     -13.164   8.627  72.096  1.00  0.00    -0.420 A  
HETATM   20  C   UNL     1     -13.363  10.008  72.014  1.00  0.00    -0.513 A  
HETATM   21  C   UNL     1     -12.085   8.040  71.444  1.00  0.00    -0.332 A  
HETATM   22  C   UNL     1     -11.197   8.832  70.720  1.00  0.00    -0.309 A  
ENDBRANCH  16  17
ENDBRANCH  14  15
ENDBRANCH   2  14
TORSDOF 5
ENDMDL
MODEL       30
REMARK 921   NORMALIZED FREE ENERGY PREDICTED BY IDOCK:   -5.91 KCAL/MOL
REMARK 922        TOTAL FREE ENERGY PREDICTED BY IDOCK:   -8.95 KCAL/MOL
REMARK 923 INTER-LIGAND FREE ENERGY PREDICTED BY IDOCK:   -7.92 KCAL/MOL
REMARK 924 INTRA-LIGAND FREE ENERGY PREDICTED BY IDOCK:   -1.03 KCAL/MOL
REMARK 927      BINDING AFFINITY PREDICTED BY RF-SCORE:    0.00 PKD
ROOT
HETATM    1  C   UNL     1     -11.162   9.708  71.315  1.00  0.00    -0.376 C  
HETATM    2  N   UNL     1     -10.886  10.258  69.984  1.00  0.00    -0.292 NA 
ENDROOT
BRANCH   2   3
HETATM    3  C   UNL     1     -12.058  10.981  69.444  1.00  0.00    -0.318 C  
BRANCH   3   4
HETATM    4  C   UNL     1     -11.898  12.496  69.407  1.00  0.00    -0.368 A  
HETATM    5  C   UNL     1     -12.412  13.351  70.426  1.00  0.00    -0.322 A  
HETATM    6  C   UNL     1     -11.231  13.052  68.299  1.00  0.00    -0.309 A  
HETATM    7  C   UNL     1     -13.070  12.886  71.590  1.00  0.00    -0.430 A  
HETATM    8  C   UNL     1     -13.621  13.763  72.527  1.00  0.00    -0.680 A  
HETATM    9  C   UNL     1     -11.093  14.428  68.171  1.00  0.00    -0.279 A  
HETATM   10  C   UNL     1     -13.511  15.133  72.337  1.00  0.00    -0.551 A  
HETATM   11  C   UNL     1     -11.620  15.272  69.145  1.00  0.00    -0.349 A  
HETATM   12  C   UNL     1     -12.284  14.753  70.265  1.00  0.00    -0.394 A  
HETATM   13  C   UNL     1     -12.834  15.624  71.221  1.00  0.00    -0.550 A  
ENDBRANCH   3   4
ENDBRANCH   2   3
BRANCH   2  14
HETATM   14  C   UNL     1     -10.443   9.182  69.088  1.00  0.00    -0.217 C  
BRANCH  14  15
HETATM   15  C   UNL     1     -10.563   9.559  67.638  1.00  0.00    -0.329 C  
HETATM   16  C   UNL     1      -9.562  10.112  66.932  1.00  0.00    -0.219 C  
BRANCH  16  17
HETATM   17  C   UNL     1      -9.612  10.396  65.491  1.00  0.00    -0.290 A  
HETATM   18  C   UNL     1      -9.074   9.537  64.527  1.00  0.00    -0.250 A  
HETATM   19  C   UNL     1     -10.327  11.886  63.705  1.00  0.00    -0.477 A  
HETATM   20  C   UNL     1     -10.255  11.567  65.063  1.00  0.00    -0.328 A  
HETATM   21  C   UNL     1      -9.766  11.033  62.759  1.00  0.00    -0.303 A  
HETATM   22  C   UNL     1      -9.144   9.856  63.168  1.00  0.00    -0.290 A  
ENDBRANCH  16  17
ENDBRANCH  14  15
ENDBRANCH   2  14
TORSDOF 5
ENDMDL
MODEL       31
REMARK 921   NORMALIZED FREE ENERGY PREDICTED BY IDOCK:   -5.91 KCAL/MOL
REMARK 922        TOTAL FREE ENERGY PREDICTED BY IDOCK:   -8.95 KCAL/MOL
REMARK 923 INTER-LIGAND FREE ENERGY PREDICTED BY IDOCK:   -8.17 KCAL/MOL
REMARK 924 INTRA-LIGAND FREE ENERGY PREDICTED BY IDOCK:   -0.78 KCAL/MOL
REMARK 927      BINDING AFFINITY PREDICTED BY RF-SCORE:    0.00 PKD
ROOT
HETATM    1  C   UNL     1     -11.543  15.262  72.387  1.00  0.00    -0.417 C  
HETATM    2  N   UNL     1     -12.212  14.488  71.337  1.00  0.00    -0.346 NA 
ENDROOT
BRANCH   2   3
HETATM    3  C   UNL     1     -12.501  15.324  70.151  1.00  0.00    -0.334 C  
BRANCH   3   4
HETATM    4  C   UNL     1     -11.727  14.926  68.901  1.00  0.00    -0.343 A  
HETATM    5  C   UNL     1     -10.955  15.855  68.143  1.00  0.00    -0.335 A  
HETATM    6  C   UNL     1     -11.812  13.584  68.483  1.00  0.00    -0.398 A  
HETATM    7  C   UNL     1     -10.785  17.215  68.496  1.00  0.00    -0.326 A  
HETATM    8  C   UNL     1     -10.078  18.107  67.686  1.00  0.00    -0.367 A  
HETATM    9  C   UNL     1     -11.176  13.160  67.323  1.00  0.00    -0.319 A  
HETATM   10  C   UNL     1      -9.503  17.658  66.506  1.00  0.00    -0.294 A  
HETATM   11  C   UNL     1     -10.447  14.067  66.560  1.00  0.00    -0.281 A  
HETATM   12  C   UNL     1     -10.334  15.410  66.949  1.00  0.00    -0.277 A  
HETATM   13  C   UNL     1      -9.618  16.315  66.149  1.00  0.00    -0.362 A  
ENDBRANCH   3   4
ENDBRANCH   2   3
BRANCH   2  14
HETATM   14  C   UNL     1     -13.427  13.866  71.881  1.00  0.00    -0.427 C  
BRANCH  14  15
HETATM   15  C   UNL     1     -13.302  12.373  71.998  1.00  0.00    -0.511 C  
HETATM   16  C   UNL     1     -12.540  11.628  71.180  1.00  0.00    -0.439 C  
BRANCH  16  17
HETATM   17  C   UNL     1     -12.316  10.183  71.331  1.00  0.00    -0.515 A  
HETATM   18  C   UNL     1     -11.041   9.606  71.318  1.00  0.00    -0.426 A  
HETATM   19  C   UNL     1     -13.269   7.971  71.670  1.00  0.00    -0.358 A  
HETATM   20  C   UNL     1     -13.428   9.351  71.526  1.00  0.00    -0.445 A  
HETATM   21  C   UNL     1     -11.997   7.408  71.632  1.00  0.00    -0.339 A  
HETATM   22  C   UNL     1     -10.882   8.225  71.461  1.00  0.00    -0.308 A  
ENDBRANCH  16  17
ENDBRANCH  14  15
ENDBRANCH   2  14
TORSDOF 5
ENDMDL
MODEL       32
REMARK 921   NORMALIZED FREE ENERGY PREDICTED BY IDOCK:   -5.91 KCAL/MOL
REMARK 922        TOTAL FREE ENERGY PREDICTED BY IDOCK:   -8.94 KCAL/MOL
REMARK 923 INTER-LIGAND FREE ENERGY PREDICTED BY IDOCK:   -8.02 KCAL/MOL
REMARK 924 INTRA-LIGAND FREE ENERGY PREDICTED BY IDOCK:   -0.92 KCAL/MOL
REMARK 927      BINDING AFFINITY PREDICTED BY RF-SCORE:    0.00 PKD
ROOT
HETATM    1  C   UNL     1     -10.324   8.646  66.992  1.00  0.00    -0.298 C  
HETATM    2  N   UNL     1     -10.678   9.991  67.456  1.00  0.00    -0.275 NA 
ENDROOT
BRANCH   2   3
HETATM    3  C   UNL     1      -9.570  10.947  67.240  1.00  0.00    -0.164 C  
BRANCH   3   4
HETATM    4  C   UNL     1     -10.021  12.367  66.921  1.00  0.00    -0.223 A  
HETATM    5  C   UNL     1     -10.810  12.687  65.778  1.00  0.00    -0.304 A  
HETATM    6  C   UNL     1      -9.608  13.392  67.794  1.00  0.00    -0.213 A  
HETATM    7  C   UNL     1     -11.297  11.727  64.859  1.00  0.00    -0.299 A  
HETATM    8  C   UNL     1     -12.007  12.093  63.713  1.00  0.00    -0.607 A  
HETATM    9  C   UNL     1      -9.937  14.717  67.540  1.00  0.00    -0.223 A  
HETATM   10  C   UNL     1     -12.269  13.432  63.463  1.00  0.00    -0.468 A  
HETATM   11  C   UNL     1     -10.680  15.042  66.408  1.00  0.00    -0.322 A  
HETATM   12  C   UNL     1     -11.114  14.048  65.520  1.00  0.00    -0.309 A  
HETATM   13  C   UNL     1     -11.837  14.401  64.369  1.00  0.00    -0.433 A  
ENDBRANCH   3   4
ENDBRANCH   2   3
BRANCH   2  14
HETATM   14  C   UNL     1     -11.088   9.935  68.866  1.00  0.00    -0.140 C  
BRANCH  14  15
HETATM   15  C   UNL     1     -11.893  11.135  69.276  1.00  0.00    -0.422 C  
HETATM   16  C   UNL     1     -11.879  11.644  70.520  1.00  0.00    -0.328 C  
BRANCH  16  17
HETATM   17  C   UNL     1     -12.573  12.875  70.927  1.00  0.00    -0.355 A  
HETATM   18  C   UNL     1     -12.393  14.100  70.276  1.00  0.00    -0.421 A  
HETATM   19  C   UNL     1     -14.157  13.952  72.427  1.00  0.00    -0.586 A  
HETATM   20  C   UNL     1     -13.476  12.810  71.998  1.00  0.00    -0.540 A  
HETATM   21  C   UNL     1     -13.951  15.168  71.785  1.00  0.00    -0.627 A  
HETATM   22  C   UNL     1     -13.073  15.243  70.706  1.00  0.00    -0.468 A  
ENDBRANCH  16  17
ENDBRANCH  14  15
ENDBRANCH   2  14
TORSDOF 5
ENDMDL
MODEL       33
REMARK 921   NORMALIZED FREE ENERGY PREDICTED BY IDOCK:   -5.89 KCAL/MOL
REMARK 922        TOTAL FREE ENERGY PREDICTED BY IDOCK:   -8.92 KCAL/MOL
REMARK 923 INTER-LIGAND FREE ENERGY PREDICTED BY IDOCK:   -7.09 KCAL/MOL
REMARK 924 INTRA-LIGAND FREE ENERGY PREDICTED BY IDOCK:   -1.83 KCAL/MOL
REMARK 927      BINDING AFFINITY PREDICTED BY RF-SCORE:    0.00 PKD
ROOT
HETATM    1  C   UNL     1      -8.809   8.996  64.096  1.00  0.00    -0.029 C  
HETATM    2  N   UNL     1      -9.589   9.703  65.116  1.00  0.00    -0.286 NA 
ENDROOT
BRANCH   2   3
HETATM    3  C   UNL     1      -9.227  11.136  65.176  1.00  0.00    -0.189 C  
BRANCH   3   4
HETATM    4  C   UNL     1     -10.414  12.074  65.359  1.00  0.00    -0.313 A  
HETATM    5  C   UNL     1     -10.444  13.094  66.355  1.00  0.00    -0.287 A  
HETATM    6  C   UNL     1     -11.525  11.890  64.514  1.00  0.00    -0.363 A  
HETATM    7  C   UNL     1      -9.368  13.375  67.232  1.00  0.00    -0.233 A  
HETATM    8  C   UNL     1      -9.468  14.337  68.239  1.00  0.00    -0.209 A  
HETATM    9  C   UNL     1     -12.663  12.672  64.658  1.00  0.00    -0.458 A  
HETATM   10  C   UNL     1     -10.642  15.061  68.387  1.00  0.00    -0.239 A  
HETATM   11  C   UNL     1     -12.713  13.650  65.648  1.00  0.00    -0.505 A  
HETATM   12  C   UNL     1     -11.624  13.866  66.503  1.00  0.00    -0.385 A  
HETATM   13  C   UNL     1     -11.707  14.837  67.515  1.00  0.00    -0.370 A  
ENDBRANCH   3   4
ENDBRANCH   2   3
BRANCH   2  14
HETATM   14  C   UNL     1      -9.419   9.039  66.415  1.00  0.00    -0.226 C  
BRANCH  14  15
HETATM   15  C   UNL     1     -10.454   9.468  67.417  1.00  0.00    -0.336 C  
HETATM   16  C   UNL     1     -10.168   9.758  68.697  1.00  0.00    -0.210 C  
BRANCH  16  17
HETATM   17  C   UNL     1     -11.136  10.278  69.674  1.00  0.00    -0.323 A  
HETATM   18  C   UNL     1     -11.597  11.600  69.657  1.00  0.00    -0.401 A  
HETATM   19  C   UNL     1     -12.561   9.848  71.598  1.00  0.00    -0.519 A  
HETATM   20  C   UNL     1     -11.642   9.402  70.645  1.00  0.00    -0.330 A  
HETATM   21  C   UNL     1     -12.993  11.171  71.585  1.00  0.00    -0.548 A  
HETATM   22  C   UNL     1     -12.515  12.046  70.612  1.00  0.00    -0.335 A  
ENDBRANCH  16  17
ENDBRANCH  14  15
ENDBRANCH   2  14
TORSDOF 5
ENDMDL
MODEL       34
REMARK 921   NORMALIZED FREE ENERGY PREDICTED BY IDOCK:   -5.86 KCAL/MOL
REMARK 922        TOTAL FREE ENERGY PREDICTED BY IDOCK:   -8.88 KCAL/MOL
REMARK 923 INTER-LIGAND FREE ENERGY PREDICTED BY IDOCK:   -8.26 KCAL/MOL
REMARK 924 INTRA-LIGAND FREE ENERGY PREDICTED BY IDOCK:   -0.62 KCAL/MOL
REMARK 927      BINDING AFFINITY PREDICTED BY RF-SCORE:    0.00 PKD
ROOT
HETATM    1  C   UNL     1     -12.389  13.977  65.955  1.00  0.00    -0.473 C  
HETATM    2  N   UNL     1     -11.073  13.839  66.588  1.00  0.00    -0.307 NA 
ENDROOT
BRANCH   2   3
HETATM    3  C   UNL     1     -11.084  14.352  67.975  1.00  0.00    -0.272 C  
BRANCH   3   4
HETATM    4  C   UNL     1     -11.638  13.371  69.001  1.00  0.00    -0.358 A  
HETATM    5  C   UNL     1     -12.373  13.790  70.149  1.00  0.00    -0.390 A  
HETATM    6  C   UNL     1     -11.379  12.002  68.798  1.00  0.00    -0.331 A  
HETATM    7  C   UNL     1     -12.707  15.137  70.426  1.00  0.00    -0.378 A  
HETATM    8  C   UNL     1     -13.367  15.508  71.600  1.00  0.00    -0.585 A  
HETATM    9  C   UNL     1     -11.806  11.055  69.718  1.00  0.00    -0.421 A  
HETATM   10  C   UNL     1     -13.731  14.538  72.523  1.00  0.00    -0.580 A  
HETATM   11  C   UNL     1     -12.497  11.457  70.858  1.00  0.00    -0.478 A  
HETATM   12  C   UNL     1     -12.778  12.810  71.091  1.00  0.00    -0.355 A  
HETATM   13  C   UNL     1     -13.451  13.198  72.262  1.00  0.00    -0.665 A  
ENDBRANCH   3   4
ENDBRANCH   2   3
BRANCH   2  14
HETATM   14  C   UNL     1     -10.057  14.505  65.762  1.00  0.00    -0.342 C  
BRANCH  14  15
HETATM   15  C   UNL     1      -9.287  15.543  66.530  1.00  0.00    -0.311 C  
HETATM   16  C   UNL     1      -9.060  16.785  66.071  1.00  0.00    -0.226 C  
BRANCH  16  17
HETATM   17  C   UNL     1      -8.402  17.853  66.838  1.00  0.00    -0.260 A  
HETATM   18  C   UNL     1      -7.543  17.598  67.913  1.00  0.00    -0.210 A  
HETATM   19  C   UNL     1      -8.025  20.236  67.153  1.00  0.00    -0.378 A  
HETATM   20  C   UNL     1      -8.623  19.184  66.455  1.00  0.00    -0.330 A  
HETATM   21  C   UNL     1      -7.191  19.969  68.235  1.00  0.00    -0.312 A  
HETATM   22  C   UNL     1      -6.945  18.650  68.612  1.00  0.00    -0.297 A  
ENDBRANCH  16  17
ENDBRANCH  14  15
ENDBRANCH   2  14
TORSDOF 5
ENDMDL
MODEL       35
REMARK 921   NORMALIZED FREE ENERGY PREDICTED BY IDOCK:   -5.83 KCAL/MOL
REMARK 922        TOTAL FREE ENERGY PREDICTED BY IDOCK:   -8.84 KCAL/MOL
REMARK 923 INTER-LIGAND FREE ENERGY PREDICTED BY IDOCK:   -8.05 KCAL/MOL
REMARK 924 INTRA-LIGAND FREE ENERGY PREDICTED BY IDOCK:   -0.79 KCAL/MOL
REMARK 927      BINDING AFFINITY PREDICTED BY RF-SCORE:    0.00 PKD
ROOT
HETATM    1  C   UNL     1     -10.969  12.298  64.296  1.00  0.00    -0.343 C  
HETATM    2  N   UNL     1     -11.580  12.122  65.617  1.00  0.00    -0.368 NA 
ENDROOT
BRANCH   2   3
HETATM    3  C   UNL     1     -12.370  13.309  66.010  1.00  0.00    -0.386 C  
BRANCH   3   4
HETATM    4  C   UNL     1     -11.538  14.462  66.556  1.00  0.00    -0.388 A  
HETATM    5  C   UNL     1     -11.546  14.835  67.933  1.00  0.00    -0.373 A  
HETATM    6  C   UNL     1     -10.756  15.191  65.640  1.00  0.00    -0.374 A  
HETATM    7  C   UNL     1     -12.277  14.149  68.933  1.00  0.00    -0.257 A  
HETATM    8  C   UNL     1     -12.311  14.592  70.257  1.00  0.00    -0.406 A  
HETATM    9  C   UNL     1     -10.012  16.287  66.056  1.00  0.00    -0.370 A  
HETATM   10  C   UNL     1     -11.599  15.724  70.624  1.00  0.00    -0.416 A  
HETATM   11  C   UNL     1     -10.039  16.677  67.392  1.00  0.00    -0.274 A  
HETATM   12  C   UNL     1     -10.801  15.972  68.334  1.00  0.00    -0.310 A  
HETATM   13  C   UNL     1     -10.838  16.401  69.671  1.00  0.00    -0.346 A  
ENDBRANCH   3   4
ENDBRANCH   2   3
BRANCH   2  14
HETATM   14  C   UNL     1     -10.538  11.804  66.603  1.00  0.00    -0.240 C  
BRANCH  14  15
HETATM   15  C   UNL     1     -11.052  10.937  67.718  1.00  0.00    -0.371 C  
HETATM   16  C   UNL     1     -10.734  11.128  69.009  1.00  0.00    -0.265 C  
BRANCH  16  17
HETATM   17  C   UNL     1     -11.298  10.365  70.132  1.00  0.00    -0.397 A  
HETATM   18  C   UNL     1     -10.591   9.360  70.800  1.00  0.00    -0.371 A  
HETATM   19  C   UNL     1     -13.177   9.982  71.630  1.00  0.00    -0.518 A  
HETATM   20  C   UNL     1     -12.593  10.680  70.569  1.00  0.00    -0.433 A  
HETATM   21  C   UNL     1     -12.470   8.969  72.270  1.00  0.00    -0.427 A  
HETATM   22  C   UNL     1     -11.175   8.661  71.860  1.00  0.00    -0.413 A  
ENDBRANCH  16  17
ENDBRANCH  14  15
ENDBRANCH   2  14
TORSDOF 5
ENDMDL
MODEL       36
REMARK 921   NORMALIZED FREE ENERGY PREDICTED BY IDOCK:   -5.79 KCAL/MOL
REMARK 922        TOTAL FREE ENERGY PREDICTED BY IDOCK:   -8.79 KCAL/MOL
REMARK 923 INTER-LIGAND FREE ENERGY PREDICTED BY IDOCK:   -8.34 KCAL/MOL
REMARK 924 INTRA-LIGAND FREE ENERGY PREDICTED BY IDOCK:   -0.45 KCAL/MOL
REMARK 927      BINDING AFFINITY PREDICTED BY RF-SCORE:    0.00 PKD
ROOT
HETATM    1  C   UNL     1     -11.067   9.402  71.473  1.00  0.00    -0.376 C  
HETATM    2  N   UNL     1     -12.311   8.854  72.022  1.00  0.00    -0.369 NA 
ENDROOT
BRANCH   2   3
HETATM    3  C   UNL     1     -12.693   7.596  71.343  1.00  0.00    -0.327 C  
BRANCH   3   4
HETATM    4  C   UNL     1     -11.668   6.477  71.476  1.00  0.00    -0.376 A  
HETATM    5  C   UNL     1     -10.948   5.955  70.361  1.00  0.00    -0.376 A  
HETATM    6  C   UNL     1     -11.459   5.935  72.758  1.00  0.00    -0.274 A  
HETATM    7  C   UNL     1     -11.068   6.450  69.040  1.00  0.00    -0.424 A  
HETATM    8  C   UNL     1     -10.395   5.861  67.967  1.00  0.00    -0.257 A  
HETATM    9  C   UNL     1     -10.579   4.877  72.947  1.00  0.00    -0.276 A  
HETATM   10  C   UNL     1      -9.567   4.771  68.186  1.00  0.00    -0.200 A  
HETATM   11  C   UNL     1      -9.896   4.340  71.860  1.00  0.00    -0.248 A  
HETATM   12  C   UNL     1     -10.074   4.858  70.569  1.00  0.00    -0.312 A  
HETATM   13  C   UNL     1      -9.397   4.282  69.481  1.00  0.00    -0.232 A  
ENDBRANCH   3   4
ENDBRANCH   2   3
BRANCH   2  14
HETATM   14  C   UNL     1     -13.373   9.866  71.943  1.00  0.00    -0.424 C  
BRANCH  14  15
HETATM   15  C   UNL     1     -12.830  11.248  71.712  1.00  0.00    -0.466 C  
HETATM   16  C   UNL     1     -13.467  12.366  72.099  1.00  0.00    -0.481 C  
BRANCH  16  17
HETATM   17  C   UNL     1     -12.917  13.725  71.982  1.00  0.00    -0.437 A  
HETATM   18  C   UNL     1     -12.802  14.595  73.072  1.00  0.00    -0.572 A  
HETATM   19  C   UNL     1     -11.934  15.438  70.562  1.00  0.00    -0.394 A  
HETATM   20  C   UNL     1     -12.461  14.155  70.728  1.00  0.00    -0.436 A  
HETATM   21  C   UNL     1     -11.847  16.301  71.650  1.00  0.00    -0.482 A  
HETATM   22  C   UNL     1     -12.276  15.879  72.906  1.00  0.00    -0.605 A  
ENDBRANCH  16  17
ENDBRANCH  14  15
ENDBRANCH   2  14
TORSDOF 5
ENDMDL
MODEL       37
REMARK 921   NORMALIZED FREE ENERGY PREDICTED BY IDOCK:   -5.79 KCAL/MOL
REMARK 922        TOTAL FREE ENERGY PREDICTED BY IDOCK:   -8.79 KCAL/MOL
REMARK 923 INTER-LIGAND FREE ENERGY PREDICTED BY IDOCK:   -7.83 KCAL/MOL
REMARK 924 INTRA-LIGAND FREE ENERGY PREDICTED BY IDOCK:   -0.96 KCAL/MOL
REMARK 927      BINDING AFFINITY PREDICTED BY RF-SCORE:    0.00 PKD
ROOT
HETATM    1  C   UNL     1     -11.979  12.975  66.186  1.00  0.00    -0.427 C  
HETATM    2  N   UNL     1     -11.324  12.079  67.143  1.00  0.00    -0.315 NA 
ENDROOT
BRANCH   2   3
HETATM    3  C   UNL     1     -10.962  12.790  68.389  1.00  0.00    -0.254 C  
BRANCH   3   4
HETATM    4  C   UNL     1     -11.754  12.351  69.614  1.00  0.00    -0.377 A  
HETATM    5  C   UNL     1     -12.449  13.270  70.453  1.00  0.00    -0.295 A  
HETATM    6  C   UNL     1     -11.765  10.977  69.923  1.00  0.00    -0.424 A  
HETATM    7  C   UNL     1     -12.521  14.663  70.212  1.00  0.00    -0.401 A  
HETATM    8  C   UNL     1     -13.154  15.536  71.100  1.00  0.00    -0.573 A  
HETATM    9  C   UNL     1     -12.421  10.509  71.053  1.00  0.00    -0.501 A  
HETATM   10  C   UNL     1     -13.752  15.037  72.248  1.00  0.00    -0.574 A  
HETATM   11  C   UNL     1     -13.076  11.403  71.896  1.00  0.00    -0.505 A  
HETATM   12  C   UNL     1     -13.092  12.777  71.617  1.00  0.00    -0.428 A  
HETATM   13  C   UNL     1     -13.733  13.665  72.496  1.00  0.00    -0.663 A  
ENDBRANCH   3   4
ENDBRANCH   2   3
BRANCH   2  14
HETATM   14  C   UNL     1     -10.157  11.449  66.511  1.00  0.00    -0.215 C  
BRANCH  14  15
HETATM   15  C   UNL     1      -9.867  10.086  67.073  1.00  0.00    -0.238 C  
HETATM   16  C   UNL     1     -10.778   9.101  67.129  1.00  0.00    -0.213 C  
BRANCH  16  17
HETATM   17  C   UNL     1     -10.499   7.728  67.577  1.00  0.00    -0.338 A  
HETATM   18  C   UNL     1     -10.172   6.693  66.694  1.00  0.00    -0.208 A  
HETATM   19  C   UNL     1     -10.280   6.165  69.428  1.00  0.00    -0.248 A  
HETATM   20  C   UNL     1     -10.534   7.454  68.951  1.00  0.00    -0.213 A  
HETATM   21  C   UNL     1      -9.979   5.139  68.537  1.00  0.00    -0.221 A  
HETATM   22  C   UNL     1      -9.920   5.403  67.171  1.00  0.00    -0.199 A  
ENDBRANCH  16  17
ENDBRANCH  14  15
ENDBRANCH   2  14
TORSDOF 5
ENDMDL
MODEL       38
REMARK 921   NORMALIZED FREE ENERGY PREDICTED BY IDOCK:   -5.79 KCAL/MOL
REMARK 922        TOTAL FREE ENERGY PREDICTED BY IDOCK:   -8.79 KCAL/MOL
REMARK 923 INTER-LIGAND FREE ENERGY PREDICTED BY IDOCK:   -8.35 KCAL/MOL
REMARK 924 INTRA-LIGAND FREE ENERGY PREDICTED BY IDOCK:   -0.44 KCAL/MOL
REMARK 927      BINDING AFFINITY PREDICTED BY RF-SCORE:    0.00 PKD
ROOT
HETATM    1  C   UNL     1     -10.936  15.069  67.690  1.00  0.00    -0.305 C  
HETATM    2  N   UNL     1     -11.197  16.190  68.598  1.00  0.00    -0.355 NA 
ENDROOT
BRANCH   2   3
HETATM    3  C   UNL     1      -9.949  16.904  68.948  1.00  0.00    -0.279 C  
BRANCH   3   4
HETATM    4  C   UNL     1      -9.697  18.163  68.129  1.00  0.00    -0.331 A  
HETATM    5  C   UNL     1      -8.455  18.862  68.153  1.00  0.00    -0.342 A  
HETATM    6  C   UNL     1     -10.758  18.650  67.342  1.00  0.00    -0.456 A  
HETATM    7  C   UNL     1      -7.322  18.438  68.888  1.00  0.00    -0.269 A  
HETATM    8  C   UNL     1      -6.148  19.193  68.939  1.00  0.00    -0.257 A  
HETATM    9  C   UNL     1     -10.619  19.822  66.610  1.00  0.00    -0.578 A  
HETATM   10  C   UNL     1      -6.066  20.387  68.238  1.00  0.00    -0.326 A  
HETATM   11  C   UNL     1      -9.420  20.529  66.653  1.00  0.00    -0.374 A  
HETATM   12  C   UNL     1      -8.340  20.071  67.420  1.00  0.00    -0.382 A  
HETATM   13  C   UNL     1      -7.150  20.814  67.472  1.00  0.00    -0.397 A  
ENDBRANCH   3   4
ENDBRANCH   2   3
BRANCH   2  14
HETATM   14  C   UNL     1     -11.906  15.705  69.790  1.00  0.00    -0.363 C  
BRANCH  14  15
HETATM   15  C   UNL     1     -11.740  14.225  69.992  1.00  0.00    -0.364 C  
HETATM   16  C   UNL     1     -12.519  13.498  70.810  1.00  0.00    -0.428 C  
BRANCH  16  17
HETATM   17  C   UNL     1     -12.450  12.036  70.951  1.00  0.00    -0.384 A  
HETATM   18  C   UNL     1     -13.251  11.320  71.847  1.00  0.00    -0.491 A  
HETATM   19  C   UNL     1     -11.454   9.938  70.228  1.00  0.00    -0.349 A  
HETATM   20  C   UNL     1     -11.561  11.328  70.130  1.00  0.00    -0.393 A  
HETATM   21  C   UNL     1     -12.240   9.241  71.139  1.00  0.00    -0.373 A  
HETATM   22  C   UNL     1     -13.143   9.931  71.946  1.00  0.00    -0.559 A  
ENDBRANCH  16  17
ENDBRANCH  14  15
ENDBRANCH   2  14
TORSDOF 5
ENDMDL
MODEL       39
REMARK 921   NORMALIZED FREE ENERGY PREDICTED BY IDOCK:   -5.76 KCAL/MOL
REMARK 922        TOTAL FREE ENERGY PREDICTED BY IDOCK:   -8.75 KCAL/MOL
REMARK 923 INTER-LIGAND FREE ENERGY PREDICTED BY IDOCK:   -8.10 KCAL/MOL
REMARK 924 INTRA-LIGAND FREE ENERGY PREDICTED BY IDOCK:   -0.65 KCAL/MOL
REMARK 927      BINDING AFFINITY PREDICTED BY RF-SCORE:    0.00 PKD
ROOT
HETATM    1  C   UNL     1     -11.537  15.520  71.226  1.00  0.00    -0.404 C  
HETATM    2  N   UNL     1     -11.204  14.955  69.915  1.00  0.00    -0.268 NA 
ENDROOT
BRANCH   2   3
HETATM    3  C   UNL     1     -11.359  15.958  68.839  1.00  0.00    -0.377 C  
BRANCH   3   4
HETATM    4  C   UNL     1     -10.064  16.309  68.119  1.00  0.00    -0.244 A  
HETATM    5  C   UNL     1      -9.819  17.596  67.555  1.00  0.00    -0.299 A  
HETATM    6  C   UNL     1      -9.093  15.297  67.995  1.00  0.00    -0.176 A  
HETATM    7  C   UNL     1     -10.719  18.685  67.651  1.00  0.00    -0.428 A  
HETATM    8  C   UNL     1     -10.469  19.907  67.023  1.00  0.00    -0.570 A  
HETATM    9  C   UNL     1      -7.910  15.528  67.306  1.00  0.00    -0.236 A  
HETATM   10  C   UNL     1      -9.301  20.083  66.296  1.00  0.00    -0.456 A  
HETATM   11  C   UNL     1      -7.677  16.771  66.726  1.00  0.00    -0.285 A  
HETATM   12  C   UNL     1      -8.617  17.805  66.833  1.00  0.00    -0.260 A  
HETATM   13  C   UNL     1      -8.375  19.043  66.215  1.00  0.00    -0.293 A  
ENDBRANCH   3   4
ENDBRANCH   2   3
BRANCH   2  14
HETATM   14  C   UNL     1     -12.019  13.757  69.673  1.00  0.00    -0.342 C  
BRANCH  14  15
HETATM   15  C   UNL     1     -11.616  13.034  68.419  1.00  0.00    -0.370 C  
HETATM   16  C   UNL     1     -12.152  13.290  67.214  1.00  0.00    -0.341 C  
BRANCH  16  17
HETATM   17  C   UNL     1     -11.708  12.675  65.954  1.00  0.00    -0.470 A  
HETATM   18  C   UNL     1     -10.824  11.592  65.906  1.00  0.00    -0.339 A  
HETATM   19  C   UNL     1     -11.826  12.634  63.524  1.00  0.00    -0.619 A  
HETATM   20  C   UNL     1     -12.219  13.180  64.749  1.00  0.00    -0.477 A  
HETATM   21  C   UNL     1     -10.927  11.572  63.490  1.00  0.00    -0.453 A  
HETATM   22  C   UNL     1     -10.430  11.047  64.681  1.00  0.00    -0.398 A  
ENDBRANCH  16  17
ENDBRANCH  14  15
ENDBRANCH   2  14
TORSDOF 5
ENDMDL
MODEL       40
REMARK 921   NORMALIZED FREE ENERGY PREDICTED BY IDOCK:   -5.71 KCAL/MOL
REMARK 922        TOTAL FREE ENERGY PREDICTED BY IDOCK:   -8.69 KCAL/MOL
REMARK 923 INTER-LIGAND FREE ENERGY PREDICTED BY IDOCK:   -7.58 KCAL/MOL
REMARK 924 INTRA-LIGAND FREE ENERGY PREDICTED BY IDOCK:   -1.11 KCAL/MOL
REMARK 927      BINDING AFFINITY PREDICTED BY RF-SCORE:    0.00 PKD
ROOT
HETATM    1  C   UNL     1     -10.225  10.760  66.804  1.00  0.00    -0.230 C  
HETATM    2  N   UNL     1      -9.997  11.738  67.872  1.00  0.00    -0.177 NA 
ENDROOT
BRANCH   2   3
HETATM    3  C   UNL     1     -11.193  12.579  68.100  1.00  0.00    -0.267 C  
BRANCH   3   4
HETATM    4  C   UNL     1     -11.890  12.329  69.431  1.00  0.00    -0.370 A  
HETATM    5  C   UNL     1     -12.311  13.385  70.291  1.00  0.00    -0.354 A  
HETATM    6  C   UNL     1     -12.094  10.990  69.817  1.00  0.00    -0.424 A  
HETATM    7  C   UNL     1     -12.176  14.759  69.981  1.00  0.00    -0.383 A  
HETATM    8  C   UNL     1     -12.538  15.760  70.885  1.00  0.00    -0.437 A  
HETATM    9  C   UNL     1     -12.674  10.685  71.040  1.00  0.00    -0.512 A  
HETATM   10  C   UNL     1     -13.065  15.415  72.121  1.00  0.00    -0.496 A  
HETATM   11  C   UNL     1     -13.060  11.709  71.901  1.00  0.00    -0.490 A  
HETATM   12  C   UNL     1     -12.879  13.053  71.548  1.00  0.00    -0.386 A  
HETATM   13  C   UNL     1     -13.247  14.071  72.443  1.00  0.00    -0.585 A  
ENDBRANCH   3   4
ENDBRANCH   2   3
BRANCH   2  14
HETATM   14  C   UNL     1      -8.810  12.544  67.557  1.00  0.00    -0.184 C  
BRANCH  14  15
HETATM   15  C   UNL     1      -8.928  13.956  68.057  1.00  0.00    -0.184 C  
HETATM   16  C   UNL     1      -8.859  15.033  67.256  1.00  0.00    -0.216 C  
BRANCH  16  17
HETATM   17  C   UNL     1      -9.073  16.419  67.698  1.00  0.00    -0.198 A  
HETATM   18  C   UNL     1      -8.035  17.240  68.152  1.00  0.00    -0.223 A  
HETATM   19  C   UNL     1     -10.626  18.259  68.042  1.00  0.00    -0.347 A  
HETATM   20  C   UNL     1     -10.369  16.949  67.631  1.00  0.00    -0.317 A  
HETATM   21  C   UNL     1      -9.589  19.057  68.514  1.00  0.00    -0.442 A  
HETATM   22  C   UNL     1      -8.292  18.550  68.565  1.00  0.00    -0.359 A  
ENDBRANCH  16  17
ENDBRANCH  14  15
ENDBRANCH   2  14
TORSDOF 5
ENDMDL
MODEL       41
REMARK 921   NORMALIZED FREE ENERGY PREDICTED BY IDOCK:   -5.71 KCAL/MOL
REMARK 922        TOTAL FREE ENERGY PREDICTED BY IDOCK:   -8.69 KCAL/MOL
REMARK 923 INTER-LIGAND FREE ENERGY PREDICTED BY IDOCK:   -7.89 KCAL/MOL
REMARK 924 INTRA-LIGAND FREE ENERGY PREDICTED BY IDOCK:   -0.80 KCAL/MOL
REMARK 927      BINDING AFFINITY PREDICTED BY RF-SCORE:    0.00 PKD
ROOT
HETATM    1  C   UNL     1     -13.091  10.615  71.842  1.00  0.00    -0.458 C  
HETATM    2  N   UNL     1     -12.195  10.368  70.708  1.00  0.00    -0.328 NA 
ENDROOT
BRANCH   2   3
HETATM    3  C   UNL     1     -10.942   9.713  71.142  1.00  0.00    -0.360 C  
BRANCH   3   4
HETATM    4  C   UNL     1     -10.862   8.229  70.806  1.00  0.00    -0.252 A  
HETATM    5  C   UNL     1     -10.668   7.748  69.477  1.00  0.00    -0.200 A  
HETATM    6  C   UNL     1     -11.013   7.313  71.865  1.00  0.00    -0.260 A  
HETATM    7  C   UNL     1     -10.479   8.587  68.353  1.00  0.00    -0.215 A  
HETATM    8  C   UNL     1     -10.364   8.074  67.059  1.00  0.00    -0.414 A  
HETATM    9  C   UNL     1     -11.005   5.945  71.627  1.00  0.00    -0.327 A  
HETATM   10  C   UNL     1     -10.415   6.703  66.854  1.00  0.00    -0.349 A  
HETATM   11  C   UNL     1     -10.849   5.467  70.329  1.00  0.00    -0.285 A  
HETATM   12  C   UNL     1     -10.689   6.349  69.251  1.00  0.00    -0.349 A  
HETATM   13  C   UNL     1     -10.562   5.846  67.945  1.00  0.00    -0.322 A  
ENDBRANCH   3   4
ENDBRANCH   2   3
BRANCH   2  14
HETATM   14  C   UNL     1     -11.939  11.628  69.998  1.00  0.00    -0.351 C  
BRANCH  14  15
HETATM   15  C   UNL     1     -11.915  11.450  68.506  1.00  0.00    -0.295 C  
HETATM   16  C   UNL     1     -11.764  12.468  67.642  1.00  0.00    -0.423 C  
BRANCH  16  17
HETATM   17  C   UNL     1     -11.634  12.317  66.186  1.00  0.00    -0.450 A  
HETATM   18  C   UNL     1     -12.400  13.051  65.273  1.00  0.00    -0.537 A  
HETATM   19  C   UNL     1     -10.516  11.235  64.315  1.00  0.00    -0.419 A  
HETATM   20  C   UNL     1     -10.678  11.419  65.691  1.00  0.00    -0.301 A  
HETATM   21  C   UNL     1     -11.301  11.955  63.419  1.00  0.00    -0.465 A  
HETATM   22  C   UNL     1     -12.240  12.866  63.898  1.00  0.00    -0.525 A  
ENDBRANCH  16  17
ENDBRANCH  14  15
ENDBRANCH   2  14
TORSDOF 5
ENDMDL
MODEL       42
REMARK 921   NORMALIZED FREE ENERGY PREDICTED BY IDOCK:   -5.71 KCAL/MOL
REMARK 922        TOTAL FREE ENERGY PREDICTED BY IDOCK:   -8.68 KCAL/MOL
REMARK 923 INTER-LIGAND FREE ENERGY PREDICTED BY IDOCK:   -7.65 KCAL/MOL
REMARK 924 INTRA-LIGAND FREE ENERGY PREDICTED BY IDOCK:   -1.04 KCAL/MOL
REMARK 927      BINDING AFFINITY PREDICTED BY RF-SCORE:    0.00 PKD
ROOT
HETATM    1  C   UNL     1      -8.198   8.980  69.767  1.00  0.00    -0.122 C  
HETATM    2  N   UNL     1      -9.055  10.140  69.503  1.00  0.00    -0.207 NA 
ENDROOT
BRANCH   2   3
HETATM    3  C   UNL     1     -10.416   9.725  69.098  1.00  0.00    -0.215 C  
BRANCH   3   4
HETATM    4  C   UNL     1     -11.464   9.858  70.195  1.00  0.00    -0.309 A  
HETATM    5  C   UNL     1     -12.039  11.109  70.565  1.00  0.00    -0.474 A  
HETATM    6  C   UNL     1     -11.846   8.685  70.875  1.00  0.00    -0.257 A  
HETATM    7  C   UNL     1     -11.742  12.336  69.925  1.00  0.00    -0.346 A  
HETATM    8  C   UNL     1     -12.276  13.548  70.368  1.00  0.00    -0.426 A  
HETATM    9  C   UNL     1     -12.756   8.736  71.922  1.00  0.00    -0.427 A  
HETATM   10  C   UNL     1     -13.140  13.567  71.453  1.00  0.00    -0.385 A  
HETATM   11  C   UNL     1     -13.299   9.958  72.311  1.00  0.00    -0.429 A  
HETATM   12  C   UNL     1     -12.947  11.145  71.654  1.00  0.00    -0.548 A  
HETATM   13  C   UNL     1     -13.484  12.370  72.082  1.00  0.00    -0.481 A  
ENDBRANCH   3   4
ENDBRANCH   2   3
BRANCH   2  14
HETATM   14  C   UNL     1      -8.421  11.003  68.497  1.00  0.00    -0.153 C  
BRANCH  14  15
HETATM   15  C   UNL     1      -9.419  11.605  67.548  1.00  0.00    -0.173 C  
HETATM   16  C   UNL     1      -9.567  12.928  67.372  1.00  0.00    -0.203 C  
BRANCH  16  17
HETATM   17  C   UNL     1     -10.459  13.546  66.380  1.00  0.00    -0.287 A  
HETATM   18  C   UNL     1     -10.119  14.702  65.668  1.00  0.00    -0.389 A  
HETATM   19  C   UNL     1     -12.576  13.480  65.184  1.00  0.00    -0.485 A  
HETATM   20  C   UNL     1     -11.691  12.931  66.115  1.00  0.00    -0.451 A  
HETATM   21  C   UNL     1     -12.236  14.643  64.500  1.00  0.00    -0.473 A  
HETATM   22  C   UNL     1     -11.005  15.252  64.738  1.00  0.00    -0.403 A  
ENDBRANCH  16  17
ENDBRANCH  14  15
ENDBRANCH   2  14
TORSDOF 5
ENDMDL
MODEL       43
REMARK 921   NORMALIZED FREE ENERGY PREDICTED BY IDOCK:   -5.70 KCAL/MOL
REMARK 922        TOTAL FREE ENERGY PREDICTED BY IDOCK:   -8.67 KCAL/MOL
REMARK 923 INTER-LIGAND FREE ENERGY PREDICTED BY IDOCK:   -7.96 KCAL/MOL
REMARK 924 INTRA-LIGAND FREE ENERGY PREDICTED BY IDOCK:   -0.71 KCAL/MOL
REMARK 927      BINDING AFFINITY PREDICTED BY RF-SCORE:    0.00 PKD
ROOT
HETATM    1  C   UNL     1     -12.650  12.639  64.930  1.00  0.00    -0.450 C  
HETATM    2  N   UNL     1     -11.862  12.934  66.130  1.00  0.00    -0.409 NA 
ENDROOT
BRANCH   2   3
HETATM    3  C   UNL     1     -11.151  14.226  66.006  1.00  0.00    -0.319 C  
BRANCH   3   4
HETATM    4  C   UNL     1     -11.157  15.068  67.275  1.00  0.00    -0.334 A  
HETATM    5  C   UNL     1     -10.595  16.377  67.335  1.00  0.00    -0.306 A  
HETATM    6  C   UNL     1     -11.726  14.499  68.431  1.00  0.00    -0.367 A  
HETATM    7  C   UNL     1     -10.027  17.045  66.224  1.00  0.00    -0.324 A  
HETATM    8  C   UNL     1      -9.424  18.299  66.344  1.00  0.00    -0.290 A  
HETATM    9  C   UNL     1     -11.720  15.186  69.637  1.00  0.00    -0.353 A  
HETATM   10  C   UNL     1      -9.389  18.931  67.578  1.00  0.00    -0.327 A  
HETATM   11  C   UNL     1     -11.145  16.451  69.712  1.00  0.00    -0.305 A  
HETATM   12  C   UNL     1     -10.575  17.053  68.581  1.00  0.00    -0.362 A  
HETATM   13  C   UNL     1      -9.974  18.318  68.686  1.00  0.00    -0.410 A  
ENDBRANCH   3   4
ENDBRANCH   2   3
BRANCH   2  14
HETATM   14  C   UNL     1     -10.939  11.823  66.399  1.00  0.00    -0.294 C  
BRANCH  14  15
HETATM   15  C   UNL     1     -11.380  10.981  67.563  1.00  0.00    -0.332 C  
HETATM   16  C   UNL     1     -10.918  11.149  68.813  1.00  0.00    -0.268 C  
BRANCH  16  17
HETATM   17  C   UNL     1     -11.404  10.413  69.990  1.00  0.00    -0.384 A  
HETATM   18  C   UNL     1     -12.698  10.564  70.500  1.00  0.00    -0.385 A  
HETATM   19  C   UNL     1     -10.952   8.777  71.733  1.00  0.00    -0.415 A  
HETATM   20  C   UNL     1     -10.540   9.498  70.609  1.00  0.00    -0.374 A  
HETATM   21  C   UNL     1     -12.234   8.954  72.244  1.00  0.00    -0.413 A  
HETATM   22  C   UNL     1     -13.109   9.844  71.625  1.00  0.00    -0.538 A  
ENDBRANCH  16  17
ENDBRANCH  14  15
ENDBRANCH   2  14
TORSDOF 5
ENDMDL
MODEL       44
REMARK 921   NORMALIZED FREE ENERGY PREDICTED BY IDOCK:   -5.67 KCAL/MOL
REMARK 922        TOTAL FREE ENERGY PREDICTED BY IDOCK:   -8.63 KCAL/MOL
REMARK 923 INTER-LIGAND FREE ENERGY PREDICTED BY IDOCK:   -7.50 KCAL/MOL
REMARK 924 INTRA-LIGAND FREE ENERGY PREDICTED BY IDOCK:   -1.14 KCAL/MOL
REMARK 927      BINDING AFFINITY PREDICTED BY RF-SCORE:    0.00 PKD
ROOT
HETATM    1  C   UNL     1      -7.035   9.750  65.915  1.00  0.00    -0.101 C  
HETATM    2  N   UNL     1      -8.075  10.160  66.863  1.00  0.00    -0.120 NA 
ENDROOT
BRANCH   2   3
HETATM    3  C   UNL     1      -8.117  11.631  67.017  1.00  0.00    -0.164 C  
BRANCH   3   4
HETATM    4  C   UNL     1      -9.522  12.219  67.030  1.00  0.00    -0.204 A  
HETATM    5  C   UNL     1     -10.402  12.141  65.911  1.00  0.00    -0.286 A  
HETATM    6  C   UNL     1      -9.938  12.883  68.200  1.00  0.00    -0.234 A  
HETATM    7  C   UNL     1     -10.087  11.473  64.703  1.00  0.00    -0.318 A  
HETATM    8  C   UNL     1     -10.952  11.483  63.606  1.00  0.00    -0.482 A  
HETATM    9  C   UNL     1     -11.186  13.489  68.267  1.00  0.00    -0.305 A  
HETATM   10  C   UNL     1     -12.167  12.146  63.692  1.00  0.00    -0.663 A  
HETATM   11  C   UNL     1     -12.038  13.445  67.168  1.00  0.00    -0.367 A  
HETATM   12  C   UNL     1     -11.661  12.788  65.988  1.00  0.00    -0.470 A  
HETATM   13  C   UNL     1     -12.524  12.781  64.880  1.00  0.00    -0.563 A  
ENDBRANCH   3   4
ENDBRANCH   2   3
BRANCH   2  14
HETATM   14  C   UNL     1      -7.866   9.479  68.148  1.00  0.00    -0.083 C  
BRANCH  14  15
HETATM   15  C   UNL     1      -9.155   9.236  68.883  1.00  0.00    -0.139 C  
HETATM   16  C   UNL     1      -9.412   9.727  70.106  1.00  0.00    -0.277 C  
BRANCH  16  17
HETATM   17  C   UNL     1     -10.698   9.595  70.808  1.00  0.00    -0.401 A  
HETATM   18  C   UNL     1     -10.972   8.554  71.702  1.00  0.00    -0.362 A  
HETATM   19  C   UNL     1     -12.920  10.490  71.231  1.00  0.00    -0.532 A  
HETATM   20  C   UNL     1     -11.680  10.572  70.592  1.00  0.00    -0.453 A  
HETATM   21  C   UNL     1     -13.188   9.437  72.100  1.00  0.00    -0.541 A  
HETATM   22  C   UNL     1     -12.213   8.471  72.340  1.00  0.00    -0.432 A  
ENDBRANCH  16  17
ENDBRANCH  14  15
ENDBRANCH   2  14
TORSDOF 5
ENDMDL
MODEL       45
REMARK 921   NORMALIZED FREE ENERGY PREDICTED BY IDOCK:   -5.66 KCAL/MOL
REMARK 922        TOTAL FREE ENERGY PREDICTED BY IDOCK:   -8.62 KCAL/MOL
REMARK 923 INTER-LIGAND FREE ENERGY PREDICTED BY IDOCK:   -7.80 KCAL/MOL
REMARK 924 INTRA-LIGAND FREE ENERGY PREDICTED BY IDOCK:   -0.82 KCAL/MOL
REMARK 927      BINDING AFFINITY PREDICTED BY RF-SCORE:    0.00 PKD
ROOT
HETATM    1  C   UNL     1      -8.423  15.367  69.429  1.00  0.00    -0.253 C  
HETATM    2  N   UNL     1      -9.667  15.821  68.798  1.00  0.00    -0.204 NA 
ENDROOT
BRANCH   2   3
HETATM    3  C   UNL     1      -9.980  17.219  69.166  1.00  0.00    -0.211 C  
BRANCH   3   4
HETATM    4  C   UNL     1      -9.653  18.240  68.084  1.00  0.00    -0.316 A  
HETATM    5  C   UNL     1      -8.465  19.030  68.102  1.00  0.00    -0.351 A  
HETATM    6  C   UNL     1     -10.588  18.409  67.046  1.00  0.00    -0.400 A  
HETATM    7  C   UNL     1      -7.454  18.914  69.085  1.00  0.00    -0.243 A  
HETATM    8  C   UNL     1      -6.341  19.758  69.103  1.00  0.00    -0.349 A  
HETATM    9  C   UNL     1     -10.383  19.358  66.053  1.00  0.00    -0.584 A  
HETATM   10  C   UNL     1      -6.197  20.731  68.126  1.00  0.00    -0.370 A  
HETATM   11  C   UNL     1      -9.242  20.155  66.080  1.00  0.00    -0.338 A  
HETATM   12  C   UNL     1      -8.286  20.011  67.094  1.00  0.00    -0.365 A  
HETATM   13  C   UNL     1      -7.157  20.846  67.120  1.00  0.00    -0.413 A  
ENDBRANCH   3   4
ENDBRANCH   2   3
BRANCH   2  14
HETATM   14  C   UNL     1     -10.760  14.903  69.147  1.00  0.00    -0.252 C  
BRANCH  14  15
HETATM   15  C   UNL     1     -11.215  14.084  67.972  1.00  0.00    -0.302 C  
HETATM   16  C   UNL     1     -10.968  14.421  66.695  1.00  0.00    -0.318 C  
BRANCH  16  17
HETATM   17  C   UNL     1     -11.309  13.592  65.530  1.00  0.00    -0.310 A  
HETATM   18  C   UNL     1     -10.356  13.156  64.602  1.00  0.00    -0.381 A  
HETATM   19  C   UNL     1     -13.020  12.412  64.266  1.00  0.00    -0.257 A  
HETATM   20  C   UNL     1     -12.643  13.196  65.359  1.00  0.00    -0.512 A  
HETATM   21  C   UNL     1     -12.066  12.005  63.338  1.00  0.00    -0.597 A  
HETATM   22  C   UNL     1     -10.733  12.373  63.508  1.00  0.00    -0.473 A  
ENDBRANCH  16  17
ENDBRANCH  14  15
ENDBRANCH   2  14
TORSDOF 5
ENDMDL
MODEL       46
REMARK 921   NORMALIZED FREE ENERGY PREDICTED BY IDOCK:   -5.63 KCAL/MOL
REMARK 922        TOTAL FREE ENERGY PREDICTED BY IDOCK:   -8.59 KCAL/MOL
REMARK 923 INTER-LIGAND FREE ENERGY PREDICTED BY IDOCK:   -6.63 KCAL/MOL
REMARK 924 INTRA-LIGAND FREE ENERGY PREDICTED BY IDOCK:   -1.95 KCAL/MOL
REMARK 927      BINDING AFFINITY PREDICTED BY RF-SCORE:    0.00 PKD
ROOT
HETATM    1  C   UNL     1     -14.059   8.906  72.340  1.00  0.00    -0.420 C  
HETATM    2  N   UNL     1     -12.927   9.359  71.525  1.00  0.00    -0.351 NA 
ENDROOT
BRANCH   2   3
HETATM    3  C   UNL     1     -11.680   8.652  71.890  1.00  0.00    -0.352 C  
BRANCH   3   4
HETATM    4  C   UNL     1     -11.030   7.894  70.739  1.00  0.00    -0.259 A  
HETATM    5  C   UNL     1      -9.854   8.356  70.078  1.00  0.00    -0.182 A  
HETATM    6  C   UNL     1     -11.649   6.704  70.312  1.00  0.00    -0.454 A  
HETATM    7  C   UNL     1      -9.145   9.523  70.451  1.00  0.00    -0.296 A  
HETATM    8  C   UNL     1      -8.037   9.976  69.730  1.00  0.00    -0.188 A  
HETATM    9  C   UNL     1     -11.144   5.988  69.235  1.00  0.00    -0.424 A  
HETATM   10  C   UNL     1      -7.595   9.263  68.626  1.00  0.00    -0.081 A  
HETATM   11  C   UNL     1     -10.015   6.448  68.564  1.00  0.00    -0.155 A  
HETATM   12  C   UNL     1      -9.368   7.625  68.965  1.00  0.00    -0.146 A  
HETATM   13  C   UNL     1      -8.247   8.088  68.255  1.00  0.00    -0.123 A  
ENDBRANCH   3   4
ENDBRANCH   2   3
BRANCH   2  14
HETATM   14  C   UNL     1     -12.787  10.817  71.642  1.00  0.00    -0.457 C  
BRANCH  14  15
HETATM   15  C   UNL     1     -12.075  11.420  70.464  1.00  0.00    -0.487 C  
HETATM   16  C   UNL     1     -12.184  10.945  69.212  1.00  0.00    -0.240 C  
BRANCH  16  17
HETATM   17  C   UNL     1     -11.585  11.572  68.025  1.00  0.00    -0.370 A  
HETATM   18  C   UNL     1     -11.746  12.928  67.718  1.00  0.00    -0.412 A  
HETATM   19  C   UNL     1     -10.204  11.328  66.037  1.00  0.00    -0.295 A  
HETATM   20  C   UNL     1     -10.792  10.781  67.180  1.00  0.00    -0.335 A  
HETATM   21  C   UNL     1     -10.392  12.672  65.731  1.00  0.00    -0.298 A  
HETATM   22  C   UNL     1     -11.159  13.474  66.573  1.00  0.00    -0.310 A  
ENDBRANCH  16  17
ENDBRANCH  14  15
ENDBRANCH   2  14
TORSDOF 5
ENDMDL
MODEL       47
REMARK 921   NORMALIZED FREE ENERGY PREDICTED BY IDOCK:   -5.47 KCAL/MOL
REMARK 922        TOTAL FREE ENERGY PREDICTED BY IDOCK:   -8.38 KCAL/MOL
REMARK 923 INTER-LIGAND FREE ENERGY PREDICTED BY IDOCK:   -6.89 KCAL/MOL
REMARK 924 INTRA-LIGAND FREE ENERGY PREDICTED BY IDOCK:   -1.49 KCAL/MOL
REMARK 927      BINDING AFFINITY PREDICTED BY RF-SCORE:    0.00 PKD
ROOT
HETATM    1  C   UNL     1      -7.838   8.384  65.299  1.00  0.00    -0.111 C  
HETATM    2  N   UNL     1      -8.600   9.305  66.148  1.00  0.00    -0.130 NA 
ENDROOT
BRANCH   2   3
HETATM    3  C   UNL     1      -8.332  10.716  65.794  1.00  0.00    -0.162 C  
BRANCH   3   4
HETATM    4  C   UNL     1      -9.571  11.507  65.395  1.00  0.00    -0.249 A  
HETATM    5  C   UNL     1     -10.240  12.395  66.288  1.00  0.00    -0.258 A  
HETATM    6  C   UNL     1     -10.072  11.318  64.092  1.00  0.00    -0.373 A  
HETATM    7  C   UNL     1      -9.799  12.673  67.604  1.00  0.00    -0.210 A  
HETATM    8  C   UNL     1     -10.525  13.495  68.468  1.00  0.00    -0.250 A  
HETATM    9  C   UNL     1     -11.227  11.965  63.675  1.00  0.00    -0.522 A  
HETATM   10  C   UNL     1     -11.705  14.080  68.034  1.00  0.00    -0.394 A  
HETATM   11  C   UNL     1     -11.905  12.809  64.551  1.00  0.00    -0.436 A  
HETATM   12  C   UNL     1     -11.432  13.026  65.853  1.00  0.00    -0.374 A  
HETATM   13  C   UNL     1     -12.147  13.859  66.730  1.00  0.00    -0.476 A  
ENDBRANCH   3   4
ENDBRANCH   2   3
BRANCH   2  14
HETATM   14  C   UNL     1      -8.307   9.028  67.561  1.00  0.00    -0.116 C  
BRANCH  14  15
HETATM   15  C   UNL     1      -9.545   9.023  68.413  1.00  0.00    -0.163 C  
HETATM   16  C   UNL     1      -9.600   9.567  69.640  1.00  0.00    -0.216 C  
BRANCH  16  17
HETATM   17  C   UNL     1     -10.820   9.670  70.455  1.00  0.00    -0.371 A  
HETATM   18  C   UNL     1     -11.016   8.931  71.627  1.00  0.00    -0.415 A  
HETATM   19  C   UNL     1     -12.995  10.707  70.793  1.00  0.00    -0.396 A  
HETATM   20  C   UNL     1     -11.815  10.573  70.055  1.00  0.00    -0.388 A  
HETATM   21  C   UNL     1     -13.187   9.948  71.943  1.00  0.00    -0.558 A  
HETATM   22  C   UNL     1     -12.196   9.063  72.363  1.00  0.00    -0.322 A  
ENDBRANCH  16  17
ENDBRANCH  14  15
ENDBRANCH   2  14
TORSDOF 5
ENDMDL
MODEL       48
REMARK 921   NORMALIZED FREE ENERGY PREDICTED BY IDOCK:   -5.47 KCAL/MOL
REMARK 922        TOTAL FREE ENERGY PREDICTED BY IDOCK:   -8.37 KCAL/MOL
REMARK 923 INTER-LIGAND FREE ENERGY PREDICTED BY IDOCK:   -7.76 KCAL/MOL
REMARK 924 INTRA-LIGAND FREE ENERGY PREDICTED BY IDOCK:   -0.61 KCAL/MOL
REMARK 927      BINDING AFFINITY PREDICTED BY RF-SCORE:    0.00 PKD
ROOT
HETATM    1  C   UNL     1     -12.742  13.688  65.495  1.00  0.00    -0.466 C  
HETATM    2  N   UNL     1     -11.386  13.234  65.819  1.00  0.00    -0.303 NA 
ENDROOT
BRANCH   2   3
HETATM    3  C   UNL     1     -11.211  13.053  67.277  1.00  0.00    -0.289 C  
BRANCH   3   4
HETATM    4  C   UNL     1     -10.921  11.618  67.699  1.00  0.00    -0.294 A  
HETATM    5  C   UNL     1     -11.418  11.055  68.911  1.00  0.00    -0.364 A  
HETATM    6  C   UNL     1     -10.106  10.843  66.852  1.00  0.00    -0.253 A  
HETATM    7  C   UNL     1     -12.265  11.742  69.813  1.00  0.00    -0.270 A  
HETATM    8  C   UNL     1     -12.671  11.176  71.023  1.00  0.00    -0.476 A  
HETATM    9  C   UNL     1      -9.755   9.544  67.197  1.00  0.00    -0.221 A  
HETATM   10  C   UNL     1     -12.255   9.896  71.359  1.00  0.00    -0.499 A  
HETATM   11  C   UNL     1     -10.210   8.998  68.394  1.00  0.00    -0.232 A  
HETATM   12  C   UNL     1     -11.028   9.737  69.259  1.00  0.00    -0.222 A  
HETATM   13  C   UNL     1     -11.452   9.177  70.476  1.00  0.00    -0.271 A  
ENDBRANCH   3   4
ENDBRANCH   2   3
BRANCH   2  14
HETATM   14  C   UNL     1     -10.404  14.173  65.260  1.00  0.00    -0.388 C  
BRANCH  14  15
HETATM   15  C   UNL     1     -10.181  15.364  66.149  1.00  0.00    -0.324 C  
HETATM   16  C   UNL     1     -10.333  16.633  65.736  1.00  0.00    -0.338 C  
BRANCH  16  17
HETATM   17  C   UNL     1     -10.223  17.814  66.605  1.00  0.00    -0.361 A  
HETATM   18  C   UNL     1     -10.092  19.115  66.107  1.00  0.00    -0.492 A  
HETATM   19  C   UNL     1     -10.179  18.718  68.863  1.00  0.00    -0.258 A  
HETATM   20  C   UNL     1     -10.282  17.630  67.994  1.00  0.00    -0.362 A  
HETATM   21  C   UNL     1     -10.025  20.004  68.354  1.00  0.00    -0.481 A  
HETATM   22  C   UNL     1      -9.987  20.204  66.976  1.00  0.00    -0.596 A  
ENDBRANCH  16  17
ENDBRANCH  14  15
ENDBRANCH   2  14
TORSDOF 5
ENDMDL
MODEL       49
REMARK 921   NORMALIZED FREE ENERGY PREDICTED BY IDOCK:   -5.46 KCAL/MOL
REMARK 922        TOTAL FREE ENERGY PREDICTED BY IDOCK:   -8.36 KCAL/MOL
REMARK 923 INTER-LIGAND FREE ENERGY PREDICTED BY IDOCK:   -7.48 KCAL/MOL
REMARK 924 INTRA-LIGAND FREE ENERGY PREDICTED BY IDOCK:   -0.88 KCAL/MOL
REMARK 927      BINDING AFFINITY PREDICTED BY RF-SCORE:    0.00 PKD
ROOT
HETATM    1  C   UNL     1     -11.805  16.038  72.081  1.00  0.00    -0.528 C  
HETATM    2  N   UNL     1     -12.122  15.008  71.087  1.00  0.00    -0.294 NA 
ENDROOT
BRANCH   2   3
HETATM    3  C   UNL     1     -12.064  15.549  69.711  1.00  0.00    -0.349 C  
BRANCH   3   4
HETATM    4  C   UNL     1     -10.923  14.994  68.868  1.00  0.00    -0.256 A  
HETATM    5  C   UNL     1     -11.135  14.342  67.618  1.00  0.00    -0.305 A  
HETATM    6  C   UNL     1      -9.617  15.122  69.377  1.00  0.00    -0.195 A  
HETATM    7  C   UNL     1     -12.404  14.189  67.010  1.00  0.00    -0.253 A  
HETATM    8  C   UNL     1     -12.573  13.481  65.819  1.00  0.00    -0.490 A  
HETATM    9  C   UNL     1      -8.532  14.593  68.690  1.00  0.00    -0.164 A  
HETATM   10  C   UNL     1     -11.472  12.919  65.189  1.00  0.00    -0.348 A  
HETATM   11  C   UNL     1      -8.733  13.927  67.484  1.00  0.00    -0.194 A  
HETATM   12  C   UNL     1     -10.018  13.786  66.943  1.00  0.00    -0.264 A  
HETATM   13  C   UNL     1     -10.202  13.084  65.740  1.00  0.00    -0.297 A  
ENDBRANCH   3   4
ENDBRANCH   2   3
BRANCH   2  14
HETATM   14  C   UNL     1     -13.432  14.417  71.391  1.00  0.00    -0.351 C  
BRANCH  14  15
HETATM   15  C   UNL     1     -13.338  12.951  71.709  1.00  0.00    -0.451 C  
HETATM   16  C   UNL     1     -12.752  12.054  70.898  1.00  0.00    -0.291 C  
BRANCH  16  17
HETATM   17  C   UNL     1     -12.552  10.635  71.226  1.00  0.00    -0.533 A  
HETATM   18  C   UNL     1     -13.496   9.876  71.926  1.00  0.00    -0.467 A  
HETATM   19  C   UNL     1     -11.136   8.662  71.078  1.00  0.00    -0.316 A  
HETATM   20  C   UNL     1     -11.376  10.008  70.790  1.00  0.00    -0.439 A  
HETATM   21  C   UNL     1     -12.073   7.926  71.796  1.00  0.00    -0.340 A  
HETATM   22  C   UNL     1     -13.256   8.530  72.216  1.00  0.00    -0.361 A  
ENDBRANCH  16  17
ENDBRANCH  14  15
ENDBRANCH   2  14
TORSDOF 5
ENDMDL
MODEL       50
REMARK 921   NORMALIZED FREE ENERGY PREDICTED BY IDOCK:   -5.46 KCAL/MOL
REMARK 922        TOTAL FREE ENERGY PREDICTED BY IDOCK:   -8.36 KCAL/MOL
REMARK 923 INTER-LIGAND FREE ENERGY PREDICTED BY IDOCK:   -7.96 KCAL/MOL
REMARK 924 INTRA-LIGAND FREE ENERGY PREDICTED BY IDOCK:   -0.40 KCAL/MOL
REMARK 927      BINDING AFFINITY PREDICTED BY RF-SCORE:    0.00 PKD
ROOT
HETATM    1  C   UNL     1      -9.686  13.160  66.806  1.00  0.00    -0.246 C  
HETATM    2  N   UNL     1     -10.465  14.339  67.195  1.00  0.00    -0.265 NA 
ENDROOT
BRANCH   2   3
HETATM    3  C   UNL     1      -9.753  15.148  68.208  1.00  0.00    -0.219 C  
BRANCH   3   4
HETATM    4  C   UNL     1      -8.794  16.178  67.625  1.00  0.00    -0.191 A  
HETATM    5  C   UNL     1      -9.173  17.529  67.372  1.00  0.00    -0.238 A  
HETATM    6  C   UNL     1      -7.491  15.748  67.308  1.00  0.00    -0.252 A  
HETATM    7  C   UNL     1     -10.447  18.063  67.681  1.00  0.00    -0.422 A  
HETATM    8  C   UNL     1     -10.799  19.374  67.350  1.00  0.00    -0.555 A  
HETATM    9  C   UNL     1      -6.578  16.616  66.724  1.00  0.00    -0.217 A  
HETATM   10  C   UNL     1      -9.878  20.196  66.718  1.00  0.00    -0.591 A  
HETATM   11  C   UNL     1      -6.951  17.928  66.444  1.00  0.00    -0.284 A  
HETATM   12  C   UNL     1      -8.236  18.394  66.752  1.00  0.00    -0.267 A  
HETATM   13  C   UNL     1      -8.601  19.713  66.434  1.00  0.00    -0.390 A  
ENDBRANCH   3   4
ENDBRANCH   2   3
BRANCH   2  14
HETATM   14  C   UNL     1     -11.794  13.919  67.662  1.00  0.00    -0.386 C  
BRANCH  14  15
HETATM   15  C   UNL     1     -11.751  12.619  68.415  1.00  0.00    -0.377 C  
HETATM   16  C   UNL     1     -11.884  12.533  69.749  1.00  0.00    -0.380 C  
BRANCH  16  17
HETATM   17  C   UNL     1     -11.951  11.273  70.503  1.00  0.00    -0.467 A  
HETATM   18  C   UNL     1     -12.996  10.967  71.382  1.00  0.00    -0.517 A  
HETATM   19  C   UNL     1     -10.952   9.112  71.004  1.00  0.00    -0.375 A  
HETATM   20  C   UNL     1     -10.937  10.324  70.309  1.00  0.00    -0.375 A  
HETATM   21  C   UNL     1     -11.985   8.831  71.893  1.00  0.00    -0.435 A  
HETATM   22  C   UNL     1     -13.010   9.756  72.079  1.00  0.00    -0.515 A  
ENDBRANCH  16  17
ENDBRANCH  14  15
ENDBRANCH   2  14
TORSDOF 5
ENDMDL
MODEL       51
REMARK 921   NORMALIZED FREE ENERGY PREDICTED BY IDOCK:   -5.44 KCAL/MOL
REMARK 922        TOTAL FREE ENERGY PREDICTED BY IDOCK:   -8.34 KCAL/MOL
REMARK 923 INTER-LIGAND FREE ENERGY PREDICTED BY IDOCK:   -7.39 KCAL/MOL
REMARK 924 INTRA-LIGAND FREE ENERGY PREDICTED BY IDOCK:   -0.95 KCAL/MOL
REMARK 927      BINDING AFFINITY PREDICTED BY RF-SCORE:    0.00 PKD
ROOT
HETATM    1  C   UNL     1      -8.907  10.623  69.104  1.00  0.00    -0.122 C  
HETATM    2  N   UNL     1      -9.709  10.286  67.923  1.00  0.00    -0.145 NA 
ENDROOT
BRANCH   2   3
HETATM    3  C   UNL     1      -9.141  10.886  66.696  1.00  0.00    -0.162 C  
BRANCH   3   4
HETATM    4  C   UNL     1      -9.387  12.382  66.558  1.00  0.00    -0.233 A  
HETATM    5  C   UNL     1     -10.389  12.924  65.699  1.00  0.00    -0.295 A  
HETATM    6  C   UNL     1      -8.563  13.248  67.302  1.00  0.00    -0.211 A  
HETATM    7  C   UNL     1     -11.283  12.137  64.934  1.00  0.00    -0.374 A  
HETATM    8  C   UNL     1     -12.202  12.711  64.052  1.00  0.00    -0.544 A  
HETATM    9  C   UNL     1      -8.694  14.626  67.188  1.00  0.00    -0.242 A  
HETATM   10  C   UNL     1     -12.266  14.090  63.924  1.00  0.00    -0.336 A  
HETATM   11  C   UNL     1      -9.647  15.163  66.327  1.00  0.00    -0.325 A  
HETATM   12  C   UNL     1     -10.490  14.333  65.576  1.00  0.00    -0.361 A  
HETATM   13  C   UNL     1     -11.426  14.895  64.692  1.00  0.00    -0.380 A  
ENDBRANCH   3   4
ENDBRANCH   2   3
BRANCH   2  14
HETATM   14  C   UNL     1     -11.103  10.696  68.141  1.00  0.00    -0.285 C  
BRANCH  14  15
HETATM   15  C   UNL     1     -11.244  11.658  69.286  1.00  0.00    -0.328 C  
HETATM   16  C   UNL     1     -11.863  12.846  69.181  1.00  0.00    -0.353 C  
BRANCH  16  17
HETATM   17  C   UNL     1     -12.108  13.764  70.304  1.00  0.00    -0.425 A  
HETATM   18  C   UNL     1     -12.963  13.452  71.367  1.00  0.00    -0.412 A  
HETATM   19  C   UNL     1     -11.634  15.901  71.365  1.00  0.00    -0.529 A  
HETATM   20  C   UNL     1     -11.432  14.992  70.323  1.00  0.00    -0.308 A  
HETATM   21  C   UNL     1     -12.505  15.588  72.404  1.00  0.00    -0.490 A  
HETATM   22  C   UNL     1     -13.166  14.362  72.408  1.00  0.00    -0.528 A  
ENDBRANCH  16  17
ENDBRANCH  14  15
ENDBRANCH   2  14
TORSDOF 5
ENDMDL
MODEL       52
REMARK 921   NORMALIZED FREE ENERGY PREDICTED BY IDOCK:   -5.39 KCAL/MOL
REMARK 922        TOTAL FREE ENERGY PREDICTED BY IDOCK:   -8.27 KCAL/MOL
REMARK 923 INTER-LIGAND FREE ENERGY PREDICTED BY IDOCK:   -7.27 KCAL/MOL
REMARK 924 INTRA-LIGAND FREE ENERGY PREDICTED BY IDOCK:   -1.00 KCAL/MOL
REMARK 927      BINDING AFFINITY PREDICTED BY RF-SCORE:    0.00 PKD
ROOT
HETATM    1  C   UNL     1     -12.304   9.186  71.731  1.00  0.00    -0.372 C  
HETATM    2  N   UNL     1     -11.718  10.081  70.728  1.00  0.00    -0.323 NA 
ENDROOT
BRANCH   2   3
HETATM    3  C   UNL     1     -12.741  10.968  70.132  1.00  0.00    -0.135 C  
BRANCH   3   4
HETATM    4  C   UNL     1     -12.778  12.370  70.728  1.00  0.00    -0.208 A  
HETATM    5  C   UNL     1     -12.206  13.501  70.076  1.00  0.00    -0.381 A  
HETATM    6  C   UNL     1     -13.387  12.524  71.988  1.00  0.00    -0.528 A  
HETATM    7  C   UNL     1     -11.597  13.453  68.799  1.00  0.00    -0.363 A  
HETATM    8  C   UNL     1     -10.986  14.572  68.229  1.00  0.00    -0.258 A  
HETATM    9  C   UNL     1     -13.412  13.761  72.618  1.00  0.00    -0.638 A  
HETATM   10  C   UNL     1     -10.983  15.779  68.913  1.00  0.00    -0.283 A  
HETATM   11  C   UNL     1     -12.827  14.865  72.003  1.00  0.00    -0.399 A  
HETATM   12  C   UNL     1     -12.218  14.751  70.746  1.00  0.00    -0.380 A  
HETATM   13  C   UNL     1     -11.608  15.870  70.156  1.00  0.00    -0.357 A  
ENDBRANCH   3   4
ENDBRANCH   2   3
BRANCH   2  14
HETATM   14  C   UNL     1     -11.018   9.287  69.709  1.00  0.00    -0.196 C  
BRANCH  14  15
HETATM   15  C   UNL     1     -10.856  10.033  68.415  1.00  0.00    -0.277 C  
HETATM   16  C   UNL     1     -10.060   9.616  67.416  1.00  0.00    -0.257 C  
BRANCH  16  17
HETATM   17  C   UNL     1      -9.958  10.265  66.101  1.00  0.00    -0.300 A  
HETATM   18  C   UNL     1      -9.502   9.599  64.957  1.00  0.00    -0.312 A  
HETATM   19  C   UNL     1     -10.284  12.266  64.755  1.00  0.00    -0.308 A  
HETATM   20  C   UNL     1     -10.365  11.602  65.982  1.00  0.00    -0.283 A  
HETATM   21  C   UNL     1      -9.807  11.598  63.632  1.00  0.00    -0.366 A  
HETATM   22  C   UNL     1      -9.421  10.264  63.731  1.00  0.00    -0.352 A  
ENDBRANCH  16  17
ENDBRANCH  14  15
ENDBRANCH   2  14
TORSDOF 5
ENDMDL
MODEL       53
REMARK 921   NORMALIZED FREE ENERGY PREDICTED BY IDOCK:   -5.38 KCAL/MOL
REMARK 922        TOTAL FREE ENERGY PREDICTED BY IDOCK:   -8.26 KCAL/MOL
REMARK 923 INTER-LIGAND FREE ENERGY PREDICTED BY IDOCK:   -7.03 KCAL/MOL
REMARK 924 INTRA-LIGAND FREE ENERGY PREDICTED BY IDOCK:   -1.23 KCAL/MOL
REMARK 927      BINDING AFFINITY PREDICTED BY RF-SCORE:    0.00 PKD
ROOT
HETATM    1  C   UNL     1      -9.356   9.857  67.317  1.00  0.00    -0.145 C  
HETATM    2  N   UNL     1      -9.642  10.805  68.397  1.00  0.00    -0.169 NA 
ENDROOT
BRANCH   2   3
HETATM    3  C   UNL     1     -11.020  11.336  68.300  1.00  0.00    -0.224 C  
BRANCH   3   4
HETATM    4  C   UNL     1     -11.813  11.260  69.599  1.00  0.00    -0.430 A  
HETATM    5  C   UNL     1     -12.326  12.415  70.258  1.00  0.00    -0.264 A  
HETATM    6  C   UNL     1     -12.013   9.986  70.164  1.00  0.00    -0.204 A  
HETATM    7  C   UNL     1     -12.201  13.733  69.756  1.00  0.00    -0.368 A  
HETATM    8  C   UNL     1     -12.657  14.842  70.472  1.00  0.00    -0.414 A  
HETATM    9  C   UNL     1     -12.681   9.843  71.373  1.00  0.00    -0.503 A  
HETATM   10  C   UNL     1     -13.271  14.664  71.703  1.00  0.00    -0.428 A  
HETATM   11  C   UNL     1     -13.158  10.968  72.040  1.00  0.00    -0.449 A  
HETATM   12  C   UNL     1     -12.982  12.252  71.504  1.00  0.00    -0.390 A  
HETATM   13  C   UNL     1     -13.445  13.376  72.208  1.00  0.00    -0.683 A  
ENDBRANCH   3   4
ENDBRANCH   2   3
BRANCH   2  14
HETATM   14  C   UNL     1      -8.638  11.878  68.390  1.00  0.00    -0.152 C  
BRANCH  14  15
HETATM   15  C   UNL     1      -9.168  13.154  67.801  1.00  0.00    -0.203 C  
HETATM   16  C   UNL     1      -9.098  14.342  68.426  1.00  0.00    -0.194 C  
BRANCH  16  17
HETATM   17  C   UNL     1      -9.513  15.623  67.836  1.00  0.00    -0.204 A  
HETATM   18  C   UNL     1      -9.715  16.780  68.596  1.00  0.00    -0.259 A  
HETATM   19  C   UNL     1     -10.081  16.887  65.836  1.00  0.00    -0.302 A  
HETATM   20  C   UNL     1      -9.684  15.694  66.446  1.00  0.00    -0.302 A  
HETATM   21  C   UNL     1     -10.301  18.024  66.607  1.00  0.00    -0.375 A  
HETATM   22  C   UNL     1     -10.113  17.973  67.987  1.00  0.00    -0.370 A  
ENDBRANCH  16  17
ENDBRANCH  14  15
ENDBRANCH   2  14
TORSDOF 5
ENDMDL
MODEL       54
REMARK 921   NORMALIZED FREE ENERGY PREDICTED BY IDOCK:   -5.37 KCAL/MOL
REMARK 922        TOTAL FREE ENERGY PREDICTED BY IDOCK:   -8.25 KCAL/MOL
REMARK 923 INTER-LIGAND FREE ENERGY PREDICTED BY IDOCK:   -8.31 KCAL/MOL
REMARK 924 INTRA-LIGAND FREE ENERGY PREDICTED BY IDOCK:    0.06 KCAL/MOL
REMARK 927      BINDING AFFINITY PREDICTED BY RF-SCORE:    0.00 PKD
ROOT
HETATM    1  C   UNL     1      -9.287  15.481  69.331  1.00  0.00    -0.279 C  
HETATM    2  N   UNL     1     -10.096  16.377  68.499  1.00  0.00    -0.238 NA 
ENDROOT
BRANCH   2   3
HETATM    3  C   UNL     1     -11.514  15.954  68.469  1.00  0.00    -0.377 C  
BRANCH   3   4
HETATM    4  C   UNL     1     -11.776  14.598  69.111  1.00  0.00    -0.342 A  
HETATM    5  C   UNL     1     -12.520  14.446  70.318  1.00  0.00    -0.413 A  
HETATM    6  C   UNL     1     -11.230  13.463  68.480  1.00  0.00    -0.316 A  
HETATM    7  C   UNL     1     -13.130  15.519  71.011  1.00  0.00    -0.551 A  
HETATM    8  C   UNL     1     -13.789  15.333  72.228  1.00  0.00    -0.632 A  
HETATM    9  C   UNL     1     -11.382  12.200  69.034  1.00  0.00    -0.329 A  
HETATM   10  C   UNL     1     -13.874  14.063  72.779  1.00  0.00    -0.341 A  
HETATM   11  C   UNL     1     -12.080  12.046  70.229  1.00  0.00    -0.395 A  
HETATM   12  C   UNL     1     -12.643  13.151  70.883  1.00  0.00    -0.377 A  
HETATM   13  C   UNL     1     -13.317  12.978  72.103  1.00  0.00    -0.622 A  
ENDBRANCH   3   4
ENDBRANCH   2   3
BRANCH   2  14
HETATM   14  C   UNL     1      -9.517  16.454  67.151  1.00  0.00    -0.231 C  
BRANCH  14  15
HETATM   15  C   UNL     1     -10.283  15.634  66.152  1.00  0.00    -0.327 C  
HETATM   16  C   UNL     1      -9.875  14.430  65.716  1.00  0.00    -0.330 C  
BRANCH  16  17
HETATM   17  C   UNL     1     -10.649  13.558  64.820  1.00  0.00    -0.429 A  
HETATM   18  C   UNL     1     -11.956  13.852  64.415  1.00  0.00    -0.480 A  
HETATM   19  C   UNL     1     -10.731  11.532  63.476  1.00  0.00    -0.483 A  
HETATM   20  C   UNL     1     -10.038  12.396  64.327  1.00  0.00    -0.305 A  
HETATM   21  C   UNL     1     -12.039  11.825  63.100  1.00  0.00    -0.252 A  
HETATM   22  C   UNL     1     -12.650  12.987  63.565  1.00  0.00    -0.262 A  
ENDBRANCH  16  17
ENDBRANCH  14  15
ENDBRANCH   2  14
TORSDOF 5
ENDMDL
MODEL       55
REMARK 921   NORMALIZED FREE ENERGY PREDICTED BY IDOCK:   -5.35 KCAL/MOL
REMARK 922        TOTAL FREE ENERGY PREDICTED BY IDOCK:   -8.23 KCAL/MOL
REMARK 923 INTER-LIGAND FREE ENERGY PREDICTED BY IDOCK:   -7.58 KCAL/MOL
REMARK 924 INTRA-LIGAND FREE ENERGY PREDICTED BY IDOCK:   -0.65 KCAL/MOL
REMARK 927      BINDING AFFINITY PREDICTED BY RF-SCORE:    0.00 PKD
ROOT
HETATM    1  C   UNL     1     -10.467   8.257  72.614  1.00  0.00    -0.303 C  
HETATM    2  N   UNL     1     -11.319   8.388  71.428  1.00  0.00    -0.252 NA 
ENDROOT
BRANCH   2   3
HETATM    3  C   UNL     1     -12.265   9.518  71.564  1.00  0.00    -0.386 C  
BRANCH   3   4
HETATM    4  C   UNL     1     -11.926  10.726  70.701  1.00  0.00    -0.466 A  
HETATM    5  C   UNL     1     -12.438  12.031  70.966  1.00  0.00    -0.376 A  
HETATM    6  C   UNL     1     -11.090  10.517  69.588  1.00  0.00    -0.338 A  
HETATM    7  C   UNL     1     -13.261  12.348  72.072  1.00  0.00    -0.514 A  
HETATM    8  C   UNL     1     -13.798  13.624  72.253  1.00  0.00    -0.689 A  
HETATM    9  C   UNL     1     -10.780  11.560  68.726  1.00  0.00    -0.247 A  
HETATM   10  C   UNL     1     -13.511  14.628  71.340  1.00  0.00    -0.462 A  
HETATM   11  C   UNL     1     -11.301  12.830  68.958  1.00  0.00    -0.346 A  
HETATM   12  C   UNL     1     -12.132  13.078  70.060  1.00  0.00    -0.367 A  
HETATM   13  C   UNL     1     -12.671  14.360  70.259  1.00  0.00    -0.318 A  
ENDBRANCH   3   4
ENDBRANCH   2   3
BRANCH   2  14
HETATM   14  C   UNL     1     -12.012   7.118  71.176  1.00  0.00    -0.342 C  
BRANCH  14  15
HETATM   15  C   UNL     1     -11.628   6.508  69.858  1.00  0.00    -0.433 C  
HETATM   16  C   UNL     1     -10.500   5.801  69.671  1.00  0.00    -0.363 C  
BRANCH  16  17
HETATM   17  C   UNL     1     -10.146   5.106  68.425  1.00  0.00    -0.205 A  
HETATM   18  C   UNL     1      -9.479   3.876  68.404  1.00  0.00    -0.210 A  
HETATM   19  C   UNL     1     -10.203   5.070  65.993  1.00  0.00    -0.253 A  
HETATM   20  C   UNL     1     -10.519   5.688  67.205  1.00  0.00    -0.322 A  
HETATM   21  C   UNL     1      -9.518   3.858  65.987  1.00  0.00    -0.185 A  
HETATM   22  C   UNL     1      -9.160   3.258  67.192  1.00  0.00    -0.200 A  
ENDBRANCH  16  17
ENDBRANCH  14  15
ENDBRANCH   2  14
TORSDOF 5
ENDMDL
MODEL       56
REMARK 921   NORMALIZED FREE ENERGY PREDICTED BY IDOCK:   -5.33 KCAL/MOL
REMARK 922        TOTAL FREE ENERGY PREDICTED BY IDOCK:   -8.19 KCAL/MOL
REMARK 923 INTER-LIGAND FREE ENERGY PREDICTED BY IDOCK:   -6.22 KCAL/MOL
REMARK 924 INTRA-LIGAND FREE ENERGY PREDICTED BY IDOCK:   -1.97 KCAL/MOL
REMARK 927      BINDING AFFINITY PREDICTED BY RF-SCORE:    0.00 PKD
ROOT
HETATM    1  C   UNL     1     -10.558  13.885  65.361  1.00  0.00    -0.335 C  
HETATM    2  N   UNL     1     -10.505  12.915  66.459  1.00  0.00    -0.262 NA 
ENDROOT
BRANCH   2   3
HETATM    3  C   UNL     1     -10.261  11.545  65.959  1.00  0.00    -0.242 C  
BRANCH   3   4
HETATM    4  C   UNL     1      -9.127  10.813  66.665  1.00  0.00    -0.174 A  
HETATM    5  C   UNL     1      -9.269   9.496  67.193  1.00  0.00    -0.158 A  
HETATM    6  C   UNL     1      -7.905  11.496  66.812  1.00  0.00    -0.146 A  
HETATM    7  C   UNL     1     -10.446   8.718  67.071  1.00  0.00    -0.338 A  
HETATM    8  C   UNL     1     -10.565   7.460  67.665  1.00  0.00    -0.309 A  
HETATM    9  C   UNL     1      -6.843  10.913  67.491  1.00  0.00    -0.079 A  
HETATM   10  C   UNL     1      -9.501   6.933  68.383  1.00  0.00    -0.128 A  
HETATM   11  C   UNL     1      -6.984   9.640  68.037  1.00  0.00    -0.078 A  
HETATM   12  C   UNL     1      -8.183   8.928  67.905  1.00  0.00    -0.110 A  
HETATM   13  C   UNL     1      -8.314   7.657  68.489  1.00  0.00    -0.129 A  
ENDBRANCH   3   4
ENDBRANCH   2   3
BRANCH   2  14
HETATM   14  C   UNL     1     -11.739  13.000  67.251  1.00  0.00    -0.375 C  
BRANCH  14  15
HETATM   15  C   UNL     1     -11.903  11.832  68.183  1.00  0.00    -0.324 C  
HETATM   16  C   UNL     1     -11.362  11.785  69.412  1.00  0.00    -0.337 C  
BRANCH  16  17
HETATM   17  C   UNL     1     -11.588  10.706  70.384  1.00  0.00    -0.441 A  
HETATM   18  C   UNL     1     -10.637   9.716  70.655  1.00  0.00    -0.386 A  
HETATM   19  C   UNL     1     -13.063   9.681  72.025  1.00  0.00    -0.537 A  
HETATM   20  C   UNL     1     -12.798  10.687  71.092  1.00  0.00    -0.518 A  
HETATM   21  C   UNL     1     -12.118   8.689  72.267  1.00  0.00    -0.443 A  
HETATM   22  C   UNL     1     -10.902   8.709  71.587  1.00  0.00    -0.374 A  
ENDBRANCH  16  17
ENDBRANCH  14  15
ENDBRANCH   2  14
TORSDOF 5
ENDMDL
MODEL       57
REMARK 921   NORMALIZED FREE ENERGY PREDICTED BY IDOCK:   -5.31 KCAL/MOL
REMARK 922        TOTAL FREE ENERGY PREDICTED BY IDOCK:   -8.18 KCAL/MOL
REMARK 923 INTER-LIGAND FREE ENERGY PREDICTED BY IDOCK:   -6.49 KCAL/MOL
REMARK 924 INTRA-LIGAND FREE ENERGY PREDICTED BY IDOCK:   -1.69 KCAL/MOL
REMARK 927      BINDING AFFINITY PREDICTED BY RF-SCORE:    0.00 PKD
ROOT
HETATM    1  C   UNL     1     -14.291   8.598  72.266  1.00  0.00    -0.396 C  
HETATM    2  N   UNL     1     -12.970   8.695  71.639  1.00  0.00    -0.335 NA 
ENDROOT
BRANCH   2   3
HETATM    3  C   UNL     1     -11.959   7.912  72.383  1.00  0.00    -0.320 C  
BRANCH   3   4
HETATM    4  C   UNL     1     -10.575   7.913  71.748  1.00  0.00    -0.276 A  
HETATM    5  C   UNL     1     -10.318   7.366  70.456  1.00  0.00    -0.220 A  
HETATM    6  C   UNL     1      -9.516   8.461  72.497  1.00  0.00    -0.360 A  
HETATM    7  C   UNL     1     -11.318   6.819  69.616  1.00  0.00    -0.326 A  
HETATM    8  C   UNL     1     -11.010   6.229  68.388  1.00  0.00    -0.409 A  
HETATM    9  C   UNL     1      -8.217   8.449  72.005  1.00  0.00    -0.212 A  
HETATM   10  C   UNL     1      -9.693   6.187  67.955  1.00  0.00    -0.117 A  
HETATM   11  C   UNL     1      -7.953   7.888  70.759  1.00  0.00    -0.100 A  
HETATM   12  C   UNL     1      -8.982   7.339  69.982  1.00  0.00    -0.142 A  
HETATM   13  C   UNL     1      -8.689   6.751  68.740  1.00  0.00    -0.125 A  
ENDBRANCH   3   4
ENDBRANCH   2   3
BRANCH   2  14
HETATM   14  C   UNL     1     -12.587  10.108  71.514  1.00  0.00    -0.434 C  
BRANCH  14  15
HETATM   15  C   UNL     1     -12.427  10.533  70.081  1.00  0.00    -0.297 C  
HETATM   16  C   UNL     1     -11.238  10.608  69.460  1.00  0.00    -0.331 C  
BRANCH  16  17
HETATM   17  C   UNL     1     -11.057  10.919  68.035  1.00  0.00    -0.351 A  
HETATM   18  C   UNL     1     -11.552  12.087  67.443  1.00  0.00    -0.388 A  
HETATM   19  C   UNL     1     -10.133  10.268  65.881  1.00  0.00    -0.319 A  
HETATM   20  C   UNL     1     -10.330  10.020  67.242  1.00  0.00    -0.293 A  
HETATM   21  C   UNL     1     -10.651  11.421  65.300  1.00  0.00    -0.336 A  
HETATM   22  C   UNL     1     -11.356  12.333  66.081  1.00  0.00    -0.402 A  
ENDBRANCH  16  17
ENDBRANCH  14  15
ENDBRANCH   2  14
TORSDOF 5
ENDMDL
MODEL       58
REMARK 921   NORMALIZED FREE ENERGY PREDICTED BY IDOCK:   -5.29 KCAL/MOL
REMARK 922        TOTAL FREE ENERGY PREDICTED BY IDOCK:   -8.15 KCAL/MOL
REMARK 923 INTER-LIGAND FREE ENERGY PREDICTED BY IDOCK:   -7.63 KCAL/MOL
REMARK 924 INTRA-LIGAND FREE ENERGY PREDICTED BY IDOCK:   -0.52 KCAL/MOL
REMARK 927      BINDING AFFINITY PREDICTED BY RF-SCORE:    0.00 PKD
ROOT
HETATM    1  C   UNL     1      -7.668   8.231  68.440  1.00  0.00    -0.105 C  
HETATM    2  N   UNL     1      -8.659   9.307  68.539  1.00  0.00    -0.127 NA 
ENDROOT
BRANCH   2   3
HETATM    3  C   UNL     1      -8.737   9.846  69.915  1.00  0.00    -0.201 C  
BRANCH   3   4
HETATM    4  C   UNL     1      -9.605   9.025  70.860  1.00  0.00    -0.328 A  
HETATM    5  C   UNL     1     -10.933   9.406  71.214  1.00  0.00    -0.440 A  
HETATM    6  C   UNL     1      -9.042   7.859  71.413  1.00  0.00    -0.163 A  
HETATM    7  C   UNL     1     -11.595  10.542  70.691  1.00  0.00    -0.445 A  
HETATM    8  C   UNL     1     -12.871  10.916  71.119  1.00  0.00    -0.508 A  
HETATM    9  C   UNL     1      -9.754   7.089  72.323  1.00  0.00    -0.169 A  
HETATM   10  C   UNL     1     -13.530  10.152  72.071  1.00  0.00    -0.418 A  
HETATM   11  C   UNL     1     -11.039   7.471  72.698  1.00  0.00    -0.398 A  
HETATM   12  C   UNL     1     -11.635   8.622  72.164  1.00  0.00    -0.440 A  
HETATM   13  C   UNL     1     -12.921   9.005  72.578  1.00  0.00    -0.429 A  
ENDBRANCH   3   4
ENDBRANCH   2   3
BRANCH   2  14
HETATM   14  C   UNL     1      -9.962   8.824  68.063  1.00  0.00    -0.182 C  
BRANCH  14  15
HETATM   15  C   UNL     1     -10.555   9.717  67.011  1.00  0.00    -0.269 C  
HETATM   16  C   UNL     1     -10.794  11.026  67.201  1.00  0.00    -0.336 C  
BRANCH  16  17
HETATM   17  C   UNL     1     -11.276  11.948  66.162  1.00  0.00    -0.387 A  
HETATM   18  C   UNL     1     -11.872  13.179  66.456  1.00  0.00    -0.456 A  
HETATM   19  C   UNL     1     -11.545  12.428  63.793  1.00  0.00    -0.553 A  
HETATM   20  C   UNL     1     -11.102  11.589  64.818  1.00  0.00    -0.300 A  
HETATM   21  C   UNL     1     -12.158  13.639  64.100  1.00  0.00    -0.484 A  
HETATM   22  C   UNL     1     -12.318  14.018  65.431  1.00  0.00    -0.495 A  
ENDBRANCH  16  17
ENDBRANCH  14  15
ENDBRANCH   2  14
TORSDOF 5
ENDMDL
MODEL       59
REMARK 921   NORMALIZED FREE ENERGY PREDICTED BY IDOCK:   -5.27 KCAL/MOL
REMARK 922        TOTAL FREE ENERGY PREDICTED BY IDOCK:   -8.12 KCAL/MOL
REMARK 923 INTER-LIGAND FREE ENERGY PREDICTED BY IDOCK:   -7.03 KCAL/MOL
REMARK 924 INTRA-LIGAND FREE ENERGY PREDICTED BY IDOCK:   -1.09 KCAL/MOL
REMARK 927      BINDING AFFINITY PREDICTED BY RF-SCORE:    0.00 PKD
ROOT
HETATM    1  C   UNL     1     -11.203  15.218  71.361  1.00  0.00    -0.308 C  
HETATM    2  N   UNL     1     -11.664  14.327  70.292  1.00  0.00    -0.285 NA 
ENDROOT
BRANCH   2   3
HETATM    3  C   UNL     1     -12.370  15.077  69.230  1.00  0.00    -0.094 C  
BRANCH   3   4
HETATM    4  C   UNL     1     -11.513  15.389  68.009  1.00  0.00    -0.333 A  
HETATM    5  C   UNL     1     -11.543  14.598  66.823  1.00  0.00    -0.370 A  
HETATM    6  C   UNL     1     -10.646  16.495  68.089  1.00  0.00    -0.329 A  
HETATM    7  C   UNL     1     -12.399  13.486  66.637  1.00  0.00    -0.351 A  
HETATM    8  C   UNL     1     -12.344  12.696  65.486  1.00  0.00    -0.455 A  
HETATM    9  C   UNL     1      -9.797  16.809  67.036  1.00  0.00    -0.262 A  
HETATM   10  C   UNL     1     -11.444  13.009  64.477  1.00  0.00    -0.389 A  
HETATM   11  C   UNL     1      -9.797  16.024  65.887  1.00  0.00    -0.380 A  
HETATM   12  C   UNL     1     -10.651  14.918  65.769  1.00  0.00    -0.342 A  
HETATM   13  C   UNL     1     -10.614  14.121  64.613  1.00  0.00    -0.391 A  
ENDBRANCH   3   4
ENDBRANCH   2   3
BRANCH   2  14
HETATM   14  C   UNL     1     -12.501  13.264  70.864  1.00  0.00    -0.342 C  
BRANCH  14  15
HETATM   15  C   UNL     1     -12.061  11.894  70.431  1.00  0.00    -0.421 C  
HETATM   16  C   UNL     1     -11.732  11.588  69.165  1.00  0.00    -0.395 C  
BRANCH  16  17
HETATM   17  C   UNL     1     -11.200  10.289  68.729  1.00  0.00    -0.260 A  
HETATM   18  C   UNL     1     -10.847  10.018  67.402  1.00  0.00    -0.313 A  
HETATM   19  C   UNL     1     -10.513   8.033  69.329  1.00  0.00    -0.221 A  
HETATM   20  C   UNL     1     -11.011   9.287  69.692  1.00  0.00    -0.192 A  
HETATM   21  C   UNL     1     -10.187   7.771  68.002  1.00  0.00    -0.249 A  
HETATM   22  C   UNL     1     -10.349   8.764  67.039  1.00  0.00    -0.353 A  
ENDBRANCH  16  17
ENDBRANCH  14  15
ENDBRANCH   2  14
TORSDOF 5
ENDMDL
MODEL       60
REMARK 921   NORMALIZED FREE ENERGY PREDICTED BY IDOCK:   -5.24 KCAL/MOL
REMARK 922        TOTAL FREE ENERGY PREDICTED BY IDOCK:   -8.08 KCAL/MOL
REMARK 923 INTER-LIGAND FREE ENERGY PREDICTED BY IDOCK:   -7.32 KCAL/MOL
REMARK 924 INTRA-LIGAND FREE ENERGY PREDICTED BY IDOCK:   -0.77 KCAL/MOL
REMARK 927      BINDING AFFINITY PREDICTED BY RF-SCORE:    0.00 PKD
ROOT
HETATM    1  C   UNL     1     -14.383   8.080  71.840  1.00  0.00    -0.457 C  
HETATM    2  N   UNL     1     -13.084   8.669  71.503  1.00  0.00    -0.323 NA 
ENDROOT
BRANCH   2   3
HETATM    3  C   UNL     1     -11.975   7.957  72.176  1.00  0.00    -0.332 C  
BRANCH   3   4
HETATM    4  C   UNL     1     -11.263   6.935  71.299  1.00  0.00    -0.306 A  
HETATM    5  C   UNL     1     -10.919   5.630  71.759  1.00  0.00    -0.290 A  
HETATM    6  C   UNL     1     -10.920   7.328  69.991  1.00  0.00    -0.273 A  
HETATM    7  C   UNL     1     -11.244   5.134  73.044  1.00  0.00    -0.390 A  
HETATM    8  C   UNL     1     -10.825   3.874  73.478  1.00  0.00    -0.330 A  
HETATM    9  C   UNL     1     -10.223   6.469  69.152  1.00  0.00    -0.208 A  
HETATM   10  C   UNL     1     -10.083   3.065  72.630  1.00  0.00    -0.231 A  
HETATM   11  C   UNL     1      -9.855   5.205  69.604  1.00  0.00    -0.286 A  
HETATM   12  C   UNL     1     -10.185   4.777  70.897  1.00  0.00    -0.247 A  
HETATM   13  C   UNL     1      -9.778   3.508  71.343  1.00  0.00    -0.236 A  
ENDBRANCH   3   4
ENDBRANCH   2   3
BRANCH   2  14
HETATM   14  C   UNL     1     -13.093  10.102  71.827  1.00  0.00    -0.463 C  
BRANCH  14  15
HETATM   15  C   UNL     1     -13.011  10.967  70.600  1.00  0.00    -0.266 C  
HETATM   16  C   UNL     1     -11.878  11.154  69.903  1.00  0.00    -0.439 C  
BRANCH  16  17
HETATM   17  C   UNL     1     -11.786  11.908  68.644  1.00  0.00    -0.380 A  
HETATM   18  C   UNL     1     -11.518  11.301  67.412  1.00  0.00    -0.300 A  
HETATM   19  C   UNL     1     -11.926  14.056  67.509  1.00  0.00    -0.430 A  
HETATM   20  C   UNL     1     -12.006  13.293  68.677  1.00  0.00    -0.345 A  
HETATM   21  C   UNL     1     -11.635  13.442  66.295  1.00  0.00    -0.378 A  
HETATM   22  C   UNL     1     -11.436  12.064  66.244  1.00  0.00    -0.408 A  
ENDBRANCH  16  17
ENDBRANCH  14  15
ENDBRANCH   2  14
TORSDOF 5
ENDMDL
MODEL       61
REMARK 921   NORMALIZED FREE ENERGY PREDICTED BY IDOCK:   -5.24 KCAL/MOL
REMARK 922        TOTAL FREE ENERGY PREDICTED BY IDOCK:   -8.08 KCAL/MOL
REMARK 923 INTER-LIGAND FREE ENERGY PREDICTED BY IDOCK:   -7.56 KCAL/MOL
REMARK 924 INTRA-LIGAND FREE ENERGY PREDICTED BY IDOCK:   -0.53 KCAL/MOL
REMARK 927      BINDING AFFINITY PREDICTED BY RF-SCORE:    0.00 PKD
ROOT
HETATM    1  C   UNL     1     -12.551  14.215  65.945  1.00  0.00    -0.417 C  
HETATM    2  N   UNL     1     -11.292  13.465  65.973  1.00  0.00    -0.304 NA 
ENDROOT
BRANCH   2   3
HETATM    3  C   UNL     1     -11.530  12.006  65.907  1.00  0.00    -0.333 C  
BRANCH   3   4
HETATM    4  C   UNL     1     -10.597  11.262  64.960  1.00  0.00    -0.353 A  
HETATM    5  C   UNL     1      -9.941  10.048  65.320  1.00  0.00    -0.368 A  
HETATM    6  C   UNL     1     -10.369  11.829  63.692  1.00  0.00    -0.476 A  
HETATM    7  C   UNL     1     -10.127   9.386  66.558  1.00  0.00    -0.332 A  
HETATM    8  C   UNL     1      -9.409   8.236  66.895  1.00  0.00    -0.222 A  
HETATM    9  C   UNL     1      -9.490  11.236  62.796  1.00  0.00    -0.355 A  
HETATM   10  C   UNL     1      -8.499   7.702  65.995  1.00  0.00    -0.149 A  
HETATM   11  C   UNL     1      -8.821  10.067  63.151  1.00  0.00    -0.244 A  
HETATM   12  C   UNL     1      -9.028   9.470  64.402  1.00  0.00    -0.255 A  
HETATM   13  C   UNL     1      -8.321   8.308  64.752  1.00  0.00    -0.129 A  
ENDBRANCH   3   4
ENDBRANCH   2   3
BRANCH   2  14
HETATM   14  C   UNL     1     -10.519  13.842  67.164  1.00  0.00    -0.269 C  
BRANCH  14  15
HETATM   15  C   UNL     1     -11.379  13.958  68.391  1.00  0.00    -0.316 C  
HETATM   16  C   UNL     1     -11.248  14.942  69.296  1.00  0.00    -0.300 C  
BRANCH  16  17
HETATM   17  C   UNL     1     -12.138  15.142  70.449  1.00  0.00    -0.373 A  
HETATM   18  C   UNL     1     -13.477  14.738  70.455  1.00  0.00     0.004 A  
HETATM   19  C   UNL     1     -12.414  15.952  72.727  1.00  0.00    -0.565 A  
HETATM   20  C   UNL     1     -11.610  15.737  71.604  1.00  0.00    -0.537 A  
HETATM   21  C   UNL     1     -13.751  15.567  72.710  1.00  0.00    -0.642 A  
HETATM   22  C   UNL     1     -14.282  14.955  71.577  1.00  0.00    -0.617 A  
ENDBRANCH  16  17
ENDBRANCH  14  15
ENDBRANCH   2  14
TORSDOF 5
ENDMDL
MODEL       62
REMARK 921   NORMALIZED FREE ENERGY PREDICTED BY IDOCK:   -5.22 KCAL/MOL
REMARK 922        TOTAL FREE ENERGY PREDICTED BY IDOCK:   -8.06 KCAL/MOL
REMARK 923 INTER-LIGAND FREE ENERGY PREDICTED BY IDOCK:   -7.60 KCAL/MOL
REMARK 924 INTRA-LIGAND FREE ENERGY PREDICTED BY IDOCK:   -0.46 KCAL/MOL
REMARK 927      BINDING AFFINITY PREDICTED BY RF-SCORE:    0.00 PKD
ROOT
HETATM    1  C   UNL     1     -12.721   7.688  71.526  1.00  0.00    -0.345 C  
HETATM    2  N   UNL     1     -12.705   9.018  70.910  1.00  0.00    -0.078 NA 
ENDROOT
BRANCH   2   3
HETATM    3  C   UNL     1     -11.326   9.450  70.592  1.00  0.00    -0.292 C  
BRANCH   3   4
HETATM    4  C   UNL     1     -11.122   9.879  69.145  1.00  0.00    -0.197 A  
HETATM    5  C   UNL     1     -10.458   9.060  68.185  1.00  0.00    -0.257 A  
HETATM    6  C   UNL     1     -11.597  11.150  68.770  1.00  0.00    -0.389 A  
HETATM    7  C   UNL     1      -9.971   7.760  68.456  1.00  0.00    -0.193 A  
HETATM    8  C   UNL     1      -9.263   7.022  67.505  1.00  0.00    -0.128 A  
HETATM    9  C   UNL     1     -11.401  11.630  67.482  1.00  0.00    -0.364 A  
HETATM   10  C   UNL     1      -9.038   7.557  66.245  1.00  0.00    -0.198 A  
HETATM   11  C   UNL     1     -10.725  10.851  66.547  1.00  0.00    -0.270 A  
HETATM   12  C   UNL     1     -10.244   9.578  66.882  1.00  0.00    -0.317 A  
HETATM   13  C   UNL     1      -9.538   8.820  65.932  1.00  0.00    -0.255 A  
ENDBRANCH   3   4
ENDBRANCH   2   3
BRANCH   2  14
HETATM   14  C   UNL     1     -13.393   9.975  71.787  1.00  0.00    -0.393 C  
BRANCH  14  15
HETATM   15  C   UNL     1     -12.837  11.365  71.665  1.00  0.00    -0.497 C  
HETATM   16  C   UNL     1     -13.490  12.463  72.082  1.00  0.00    -0.481 C  
BRANCH  16  17
HETATM   17  C   UNL     1     -12.932  13.823  72.072  1.00  0.00    -0.437 A  
HETATM   18  C   UNL     1     -12.282  14.370  70.960  1.00  0.00    -0.422 A  
HETATM   19  C   UNL     1     -12.570  15.914  73.261  1.00  0.00    -0.640 A  
HETATM   20  C   UNL     1     -13.086  14.616  73.218  1.00  0.00    -0.505 A  
HETATM   21  C   UNL     1     -11.906  16.437  72.157  1.00  0.00    -0.499 A  
HETATM   22  C   UNL     1     -11.766  15.668  71.004  1.00  0.00    -0.444 A  
ENDBRANCH  16  17
ENDBRANCH  14  15
ENDBRANCH   2  14
TORSDOF 5
ENDMDL
MODEL       63
REMARK 921   NORMALIZED FREE ENERGY PREDICTED BY IDOCK:   -5.22 KCAL/MOL
REMARK 922        TOTAL FREE ENERGY PREDICTED BY IDOCK:   -8.06 KCAL/MOL
REMARK 923 INTER-LIGAND FREE ENERGY PREDICTED BY IDOCK:   -6.89 KCAL/MOL
REMARK 924 INTRA-LIGAND FREE ENERGY PREDICTED BY IDOCK:   -1.17 KCAL/MOL
REMARK 927      BINDING AFFINITY PREDICTED BY RF-SCORE:    0.00 PKD
ROOT
HETATM    1  C   UNL     1     -14.327   7.224  71.685  1.00  0.00    -0.421 C  
HETATM    2  N   UNL     1     -13.099   8.014  71.556  1.00  0.00    -0.318 NA 
ENDROOT
BRANCH   2   3
HETATM    3  C   UNL     1     -11.915   7.252  72.013  1.00  0.00    -0.296 C  
BRANCH   3   4
HETATM    4  C   UNL     1     -10.618   7.631  71.311  1.00  0.00    -0.237 A  
HETATM    5  C   UNL     1     -10.351   7.295  69.951  1.00  0.00    -0.226 A  
HETATM    6  C   UNL     1      -9.647   8.319  72.064  1.00  0.00    -0.316 A  
HETATM    7  C   UNL     1     -11.271   6.631  69.105  1.00  0.00    -0.305 A  
HETATM    8  C   UNL     1     -10.940   6.259  67.800  1.00  0.00    -0.427 A  
HETATM    9  C   UNL     1      -8.420   8.650  71.507  1.00  0.00    -0.238 A  
HETATM   10  C   UNL     1      -9.683   6.559  67.296  1.00  0.00    -0.160 A  
HETATM   11  C   UNL     1      -8.138   8.298  70.189  1.00  0.00    -0.112 A  
HETATM   12  C   UNL     1      -9.082   7.619  69.407  1.00  0.00    -0.142 A  
HETATM   13  C   UNL     1      -8.766   7.247  68.090  1.00  0.00    -0.128 A  
ENDBRANCH   3   4
ENDBRANCH   2   3
BRANCH   2  14
HETATM   14  C   UNL     1     -13.250   9.283  72.281  1.00  0.00    -0.460 C  
BRANCH  14  15
HETATM   15  C   UNL     1     -13.039  10.477  71.395  1.00  0.00    -0.509 C  
HETATM   16  C   UNL     1     -12.151  10.502  70.387  1.00  0.00    -0.418 C  
BRANCH  16  17
HETATM   17  C   UNL     1     -11.993  11.615  69.438  1.00  0.00    -0.381 A  
HETATM   18  C   UNL     1     -11.924  12.953  69.841  1.00  0.00    -0.377 A  
HETATM   19  C   UNL     1     -11.729  12.338  67.130  1.00  0.00    -0.396 A  
HETATM   20  C   UNL     1     -11.877  11.317  68.073  1.00  0.00    -0.244 A  
HETATM   21  C   UNL     1     -11.685  13.666  67.543  1.00  0.00    -0.406 A  
HETATM   22  C   UNL     1     -11.777  13.974  68.899  1.00  0.00    -0.375 A  
ENDBRANCH  16  17
ENDBRANCH  14  15
ENDBRANCH   2  14
TORSDOF 5
ENDMDL
MODEL       64
REMARK 921   NORMALIZED FREE ENERGY PREDICTED BY IDOCK:   -5.22 KCAL/MOL
REMARK 922        TOTAL FREE ENERGY PREDICTED BY IDOCK:   -8.05 KCAL/MOL
REMARK 923 INTER-LIGAND FREE ENERGY PREDICTED BY IDOCK:   -6.32 KCAL/MOL
REMARK 924 INTRA-LIGAND FREE ENERGY PREDICTED BY IDOCK:   -1.73 KCAL/MOL
REMARK 927      BINDING AFFINITY PREDICTED BY RF-SCORE:    0.00 PKD
ROOT
HETATM    1  C   UNL     1      -8.849   4.275  68.186  1.00  0.00    -0.107 C  
HETATM    2  N   UNL     1      -9.633   5.483  68.461  1.00  0.00    -0.122 NA 
ENDROOT
BRANCH   2   3
HETATM    3  C   UNL     1     -10.420   5.345  69.707  1.00  0.00    -0.307 C  
BRANCH   3   4
HETATM    4  C   UNL     1     -10.364   6.563  70.621  1.00  0.00    -0.239 A  
HETATM    5  C   UNL     1     -11.534   7.202  71.127  1.00  0.00    -0.322 A  
HETATM    6  C   UNL     1      -9.093   7.074  70.945  1.00  0.00    -0.153 A  
HETATM    7  C   UNL     1     -12.852   6.749  70.880  1.00  0.00    -0.051 A  
HETATM    8  C   UNL     1     -13.971   7.447  71.337  1.00  0.00    -0.464 A  
HETATM    9  C   UNL     1      -8.964   8.212  71.730  1.00  0.00    -0.216 A  
HETATM   10  C   UNL     1     -13.804   8.612  72.072  1.00  0.00    -0.491 A  
HETATM   11  C   UNL     1     -10.102   8.862  72.202  1.00  0.00    -0.287 A  
HETATM   12  C   UNL     1     -11.384   8.378  71.904  1.00  0.00    -0.382 A  
HETATM   13  C   UNL     1     -12.519   9.065  72.366  1.00  0.00    -0.375 A  
ENDBRANCH   3   4
ENDBRANCH   2   3
BRANCH   2  14
HETATM   14  C   UNL     1     -10.484   5.792  67.304  1.00  0.00    -0.266 C  
BRANCH  14  15
HETATM   15  C   UNL     1     -11.012   7.199  67.341  1.00  0.00    -0.296 C  
HETATM   16  C   UNL     1     -10.266   8.259  67.694  1.00  0.00    -0.294 C  
BRANCH  16  17
HETATM   17  C   UNL     1     -10.721   9.656  67.642  1.00  0.00    -0.324 A  
HETATM   18  C   UNL     1     -11.302  10.308  68.735  1.00  0.00    -0.226 A  
HETATM   19  C   UNL     1     -10.954  11.704  66.349  1.00  0.00    -0.345 A  
HETATM   20  C   UNL     1     -10.535  10.375  66.452  1.00  0.00    -0.246 A  
HETATM   21  C   UNL     1     -11.552  12.333  67.437  1.00  0.00    -0.425 A  
HETATM   22  C   UNL     1     -11.722  11.637  68.632  1.00  0.00    -0.386 A  
ENDBRANCH  16  17
ENDBRANCH  14  15
ENDBRANCH   2  14
TORSDOF 5
ENDMDL
MODEL       65
REMARK 921   NORMALIZED FREE ENERGY PREDICTED BY IDOCK:   -5.22 KCAL/MOL
REMARK 922        TOTAL FREE ENERGY PREDICTED BY IDOCK:   -8.05 KCAL/MOL
REMARK 923 INTER-LIGAND FREE ENERGY PREDICTED BY IDOCK:   -6.16 KCAL/MOL
REMARK 924 INTRA-LIGAND FREE ENERGY PREDICTED BY IDOCK:   -1.89 KCAL/MOL
REMARK 927      BINDING AFFINITY PREDICTED BY RF-SCORE:    0.00 PKD
ROOT
HETATM    1  C   UNL     1     -12.602  10.247  71.599  1.00  0.00    -0.432 C  
HETATM    2  N   UNL     1     -11.900  10.414  70.323  1.00  0.00    -0.291 NA 
ENDROOT
BRANCH   2   3
HETATM    3  C   UNL     1     -10.561   9.785  70.356  1.00  0.00    -0.304 C  
BRANCH   3   4
HETATM    4  C   UNL     1     -10.049   9.333  68.995  1.00  0.00    -0.207 A  
HETATM    5  C   UNL     1      -8.930   9.940  68.351  1.00  0.00    -0.120 A  
HETATM    6  C   UNL     1     -10.739   8.286  68.355  1.00  0.00    -0.072 A  
HETATM    7  C   UNL     1      -8.156  10.977  68.923  1.00  0.00    -0.135 A  
HETATM    8  C   UNL     1      -7.113  11.591  68.227  1.00  0.00    -0.080 A  
HETATM    9  C   UNL     1     -10.362   7.856  67.089  1.00  0.00    -0.398 A  
HETATM   10  C   UNL     1      -6.800  11.171  66.942  1.00  0.00    -0.127 A  
HETATM   11  C   UNL     1      -9.292   8.465  66.440  1.00  0.00    -0.274 A  
HETATM   12  C   UNL     1      -8.577   9.505  67.049  1.00  0.00    -0.131 A  
HETATM   13  C   UNL     1      -7.518  10.125  66.364  1.00  0.00    -0.108 A  
ENDBRANCH   3   4
ENDBRANCH   2   3
BRANCH   2  14
HETATM   14  C   UNL     1     -11.828  11.842  69.984  1.00  0.00    -0.342 C  
BRANCH  14  15
HETATM   15  C   UNL     1     -12.145  12.103  68.538  1.00  0.00    -0.115 C  
HETATM   16  C   UNL     1     -11.229  12.504  67.641  1.00  0.00    -0.332 C  
BRANCH  16  17
HETATM   17  C   UNL     1     -11.482  12.668  66.202  1.00  0.00    -0.413 A  
HETATM   18  C   UNL     1     -11.271  11.645  65.272  1.00  0.00    -0.263 A  
HETATM   19  C   UNL     1     -12.239  14.105  64.391  1.00  0.00    -0.466 A  
HETATM   20  C   UNL     1     -11.985  13.896  65.749  1.00  0.00    -0.419 A  
HETATM   21  C   UNL     1     -12.003  13.086  63.473  1.00  0.00    -0.615 A  
HETATM   22  C   UNL     1     -11.524  11.854  63.913  1.00  0.00    -0.511 A  
ENDBRANCH  16  17
ENDBRANCH  14  15
ENDBRANCH   2  14
TORSDOF 5
ENDMDL
MODEL       66
REMARK 921   NORMALIZED FREE ENERGY PREDICTED BY IDOCK:   -5.21 KCAL/MOL
REMARK 922        TOTAL FREE ENERGY PREDICTED BY IDOCK:   -8.04 KCAL/MOL
REMARK 923 INTER-LIGAND FREE ENERGY PREDICTED BY IDOCK:   -6.50 KCAL/MOL
REMARK 924 INTRA-LIGAND FREE ENERGY PREDICTED BY IDOCK:   -1.54 KCAL/MOL
REMARK 927      BINDING AFFINITY PREDICTED BY RF-SCORE:    0.00 PKD
ROOT
HETATM    1  C   UNL     1      -9.653  10.246  69.550  1.00  0.00    -0.202 C  
HETATM    2  N   UNL     1      -9.814  10.973  68.287  1.00  0.00    -0.172 NA 
ENDROOT
BRANCH   2   3
HETATM    3  C   UNL     1     -10.358  10.099  67.225  1.00  0.00    -0.237 C  
BRANCH   3   4
HETATM    4  C   UNL     1     -10.362  10.729  65.838  1.00  0.00    -0.302 A  
HETATM    5  C   UNL     1     -11.141  11.879  65.515  1.00  0.00    -0.356 A  
HETATM    6  C   UNL     1      -9.575  10.117  64.843  1.00  0.00    -0.369 A  
HETATM    7  C   UNL     1     -11.940  12.580  66.450  1.00  0.00    -0.386 A  
HETATM    8  C   UNL     1     -12.742  13.660  66.073  1.00  0.00    -0.366 A  
HETATM    9  C   UNL     1      -9.570  10.603  63.542  1.00  0.00    -0.366 A  
HETATM   10  C   UNL     1     -12.753  14.083  64.752  1.00  0.00    -0.236 A  
HETATM   11  C   UNL     1     -10.352  11.706  63.211  1.00  0.00    -0.444 A  
HETATM   12  C   UNL     1     -11.143  12.345  64.176  1.00  0.00    -0.425 A  
HETATM   13  C   UNL     1     -11.947  13.439  63.814  1.00  0.00    -0.517 A  
ENDBRANCH   3   4
ENDBRANCH   2   3
BRANCH   2  14
HETATM   14  C   UNL     1      -8.531  11.577  67.900  1.00  0.00    -0.142 C  
BRANCH  14  15
HETATM   15  C   UNL     1      -8.593  13.077  67.861  1.00  0.00    -0.189 C  
HETATM   16  C   UNL     1      -8.523  13.791  66.724  1.00  0.00     0.007 C  
BRANCH  16  17
HETATM   17  C   UNL     1      -8.684  15.250  66.641  1.00  0.00    -0.327 A  
HETATM   18  C   UNL     1      -7.616  16.142  66.787  1.00  0.00    -0.268 A  
HETATM   19  C   UNL     1     -10.167  17.146  66.289  1.00  0.00    -0.340 A  
HETATM   20  C   UNL     1      -9.960  15.767  66.374  1.00  0.00    -0.294 A  
HETATM   21  C   UNL     1      -9.100  18.023  66.460  1.00  0.00    -0.283 A  
HETATM   22  C   UNL     1      -7.823  17.521  66.703  1.00  0.00    -0.285 A  
ENDBRANCH  16  17
ENDBRANCH  14  15
ENDBRANCH   2  14
TORSDOF 5
ENDMDL
MODEL       67
REMARK 921   NORMALIZED FREE ENERGY PREDICTED BY IDOCK:   -5.20 KCAL/MOL
REMARK 922        TOTAL FREE ENERGY PREDICTED BY IDOCK:   -8.02 KCAL/MOL
REMARK 923 INTER-LIGAND FREE ENERGY PREDICTED BY IDOCK:   -6.75 KCAL/MOL
REMARK 924 INTRA-LIGAND FREE ENERGY PREDICTED BY IDOCK:   -1.27 KCAL/MOL
REMARK 927      BINDING AFFINITY PREDICTED BY RF-SCORE:    0.00 PKD
ROOT
HETATM    1  C   UNL     1      -6.860  12.226  69.278  1.00  0.00    -0.039 C  
HETATM    2  N   UNL     1      -7.877  12.909  68.473  1.00  0.00    -0.126 NA 
ENDROOT
BRANCH   2   3
HETATM    3  C   UNL     1      -8.851  11.951  67.905  1.00  0.00    -0.172 C  
BRANCH   3   4
HETATM    4  C   UNL     1     -10.133  12.593  67.391  1.00  0.00    -0.218 A  
HETATM    5  C   UNL     1     -10.581  12.450  66.044  1.00  0.00    -0.286 A  
HETATM    6  C   UNL     1     -10.877  13.375  68.295  1.00  0.00    -0.275 A  
HETATM    7  C   UNL     1      -9.919  11.664  65.071  1.00  0.00    -0.297 A  
HETATM    8  C   UNL     1     -10.354  11.610  63.745  1.00  0.00    -0.445 A  
HETATM    9  C   UNL     1     -12.028  14.034  67.883  1.00  0.00    -0.387 A  
HETATM   10  C   UNL     1     -11.477  12.325  63.358  1.00  0.00    -0.512 A  
HETATM   11  C   UNL     1     -12.455  13.925  66.562  1.00  0.00    -0.364 A  
HETATM   12  C   UNL     1     -11.744  13.151  65.636  1.00  0.00    -0.402 A  
HETATM   13  C   UNL     1     -12.175  13.079  64.301  1.00  0.00    -0.464 A  
ENDBRANCH   3   4
ENDBRANCH   2   3
BRANCH   2  14
HETATM   14  C   UNL     1      -7.223  13.711  67.430  1.00  0.00    -0.091 C  
BRANCH  14  15
HETATM   15  C   UNL     1      -7.882  15.048  67.239  1.00  0.00    -0.241 C  
HETATM   16  C   UNL     1      -8.356  15.791  68.253  1.00  0.00    -0.163 C  
BRANCH  16  17
HETATM   17  C   UNL     1      -8.911  17.145  68.110  1.00  0.00    -0.240 A  
HETATM   18  C   UNL     1     -10.218  17.388  67.674  1.00  0.00    -0.342 A  
HETATM   19  C   UNL     1      -8.582  19.545  68.334  1.00  0.00    -0.389 A  
HETATM   20  C   UNL     1      -8.103  18.238  68.456  1.00  0.00    -0.330 A  
HETATM   21  C   UNL     1      -9.876  19.773  67.877  1.00  0.00    -0.522 A  
HETATM   22  C   UNL     1     -10.696  18.695  67.551  1.00  0.00    -0.447 A  
ENDBRANCH  16  17
ENDBRANCH  14  15
ENDBRANCH   2  14
TORSDOF 5
ENDMDL
MODEL       68
REMARK 921   NORMALIZED FREE ENERGY PREDICTED BY IDOCK:   -5.19 KCAL/MOL
REMARK 922        TOTAL FREE ENERGY PREDICTED BY IDOCK:   -8.02 KCAL/MOL
REMARK 923 INTER-LIGAND FREE ENERGY PREDICTED BY IDOCK:   -7.19 KCAL/MOL
REMARK 924 INTRA-LIGAND FREE ENERGY PREDICTED BY IDOCK:   -0.82 KCAL/MOL
REMARK 927      BINDING AFFINITY PREDICTED BY RF-SCORE:    0.00 PKD
ROOT
HETATM    1  C   UNL     1     -10.483  10.877  66.482  1.00  0.00    -0.253 C  
HETATM    2  N   UNL     1     -10.953  10.132  67.653  1.00  0.00    -0.297 NA 
ENDROOT
BRANCH   2   3
HETATM    3  C   UNL     1     -10.371  10.668  68.904  1.00  0.00    -0.207 C  
BRANCH   3   4
HETATM    4  C   UNL     1     -11.396  11.231  69.880  1.00  0.00    -0.329 A  
HETATM    5  C   UNL     1     -11.712  12.620  69.950  1.00  0.00    -0.320 A  
HETATM    6  C   UNL     1     -12.026  10.327  70.755  1.00  0.00    -0.456 A  
HETATM    7  C   UNL     1     -11.154  13.602  69.097  1.00  0.00    -0.275 A  
HETATM    8  C   UNL     1     -11.439  14.961  69.248  1.00  0.00    -0.324 A  
HETATM    9  C   UNL     1     -12.932  10.774  71.707  1.00  0.00    -0.568 A  
HETATM   10  C   UNL     1     -12.307  15.376  70.247  1.00  0.00    -0.425 A  
HETATM   11  C   UNL     1     -13.223  12.132  71.804  1.00  0.00    -0.423 A  
HETATM   12  C   UNL     1     -12.620  13.062  70.946  1.00  0.00    -0.364 A  
HETATM   13  C   UNL     1     -12.904  14.431  71.080  1.00  0.00    -0.417 A  
ENDBRANCH   3   4
ENDBRANCH   2   3
BRANCH   2  14
HETATM   14  C   UNL     1     -10.659   8.703  67.479  1.00  0.00    -0.222 C  
BRANCH  14  15
HETATM   15  C   UNL     1     -10.493   7.988  68.790  1.00  0.00    -0.196 C  
HETATM   16  C   UNL     1     -11.177   6.880  69.120  1.00  0.00    -0.163 C  
BRANCH  16  17
HETATM   17  C   UNL     1     -10.965   6.100  70.348  1.00  0.00    -0.404 A  
HETATM   18  C   UNL     1     -11.566   6.425  71.569  1.00  0.00    -0.364 A  
HETATM   19  C   UNL     1      -9.909   4.190  71.423  1.00  0.00    -0.254 A  
HETATM   20  C   UNL     1     -10.146   4.963  70.284  1.00  0.00    -0.322 A  
HETATM   21  C   UNL     1     -10.495   4.539  72.636  1.00  0.00    -0.258 A  
HETATM   22  C   UNL     1     -11.328   5.653  72.709  1.00  0.00    -0.350 A  
ENDBRANCH  16  17
ENDBRANCH  14  15
ENDBRANCH   2  14
TORSDOF 5
ENDMDL
MODEL       69
REMARK 921   NORMALIZED FREE ENERGY PREDICTED BY IDOCK:   -5.18 KCAL/MOL
REMARK 922        TOTAL FREE ENERGY PREDICTED BY IDOCK:   -8.00 KCAL/MOL
REMARK 923 INTER-LIGAND FREE ENERGY PREDICTED BY IDOCK:   -6.15 KCAL/MOL
REMARK 924 INTRA-LIGAND FREE ENERGY PREDICTED BY IDOCK:   -1.85 KCAL/MOL
REMARK 927      BINDING AFFINITY PREDICTED BY RF-SCORE:    0.00 PKD
ROOT
HETATM    1  C   UNL     1     -10.399   5.305  74.387  1.00  0.00    -0.272 C  
HETATM    2  N   UNL     1     -10.224   6.077  73.153  1.00  0.00    -0.187 NA 
ENDROOT
BRANCH   2   3
HETATM    3  C   UNL     1     -10.305   7.532  73.410  1.00  0.00    -0.350 C  
BRANCH   3   4
HETATM    4  C   UNL     1      -9.914   8.400  72.221  1.00  0.00    -0.383 A  
HETATM    5  C   UNL     1     -10.852   9.208  71.514  1.00  0.00    -0.436 A  
HETATM    6  C   UNL     1      -8.568   8.368  71.807  1.00  0.00    -0.234 A  
HETATM    7  C   UNL     1     -12.217   9.329  71.869  1.00  0.00    -0.448 A  
HETATM    8  C   UNL     1     -13.116  10.076  71.105  1.00  0.00    -0.472 A  
HETATM    9  C   UNL     1      -8.149   9.093  70.700  1.00  0.00    -0.198 A  
HETATM   10  C   UNL     1     -12.671  10.742  69.973  1.00  0.00    -0.176 A  
HETATM   11  C   UNL     1      -9.065   9.859  69.984  1.00  0.00    -0.217 A  
HETATM   12  C   UNL     1     -10.411   9.920  70.370  1.00  0.00    -0.322 A  
HETATM   13  C   UNL     1     -11.325  10.676  69.617  1.00  0.00    -0.360 A  
ENDBRANCH   3   4
ENDBRANCH   2   3
BRANCH   2  14
HETATM   14  C   UNL     1     -11.208   5.640  72.153  1.00  0.00    -0.227 C  
BRANCH  14  15
HETATM   15  C   UNL     1     -10.607   5.497  70.783  1.00  0.00    -0.320 C  
HETATM   16  C   UNL     1     -11.083   6.130  69.698  1.00  0.00    -0.489 C  
BRANCH  16  17
HETATM   17  C   UNL     1     -10.458   6.093  68.367  1.00  0.00    -0.280 A  
HETATM   18  C   UNL     1      -9.990   4.913  67.779  1.00  0.00    -0.186 A  
HETATM   19  C   UNL     1      -9.766   7.311  66.378  1.00  0.00    -0.148 A  
HETATM   20  C   UNL     1     -10.355   7.290  67.645  1.00  0.00    -0.290 A  
HETATM   21  C   UNL     1      -9.284   6.133  65.815  1.00  0.00    -0.014 A  
HETATM   22  C   UNL     1      -9.400   4.933  66.513  1.00  0.00    -0.142 A  
ENDBRANCH  16  17
ENDBRANCH  14  15
ENDBRANCH   2  14
TORSDOF 5
ENDMDL
MODEL       70
REMARK 921   NORMALIZED FREE ENERGY PREDICTED BY IDOCK:   -5.15 KCAL/MOL
REMARK 922        TOTAL FREE ENERGY PREDICTED BY IDOCK:   -7.96 KCAL/MOL
REMARK 923 INTER-LIGAND FREE ENERGY PREDICTED BY IDOCK:   -7.28 KCAL/MOL
REMARK 924 INTRA-LIGAND FREE ENERGY PREDICTED BY IDOCK:   -0.68 KCAL/MOL
REMARK 927      BINDING AFFINITY PREDICTED BY RF-SCORE:    0.00 PKD
ROOT
HETATM    1  C   UNL     1     -12.651  14.021  65.423  1.00  0.00    -0.505 C  
HETATM    2  N   UNL     1     -11.279  13.854  65.912  1.00  0.00    -0.295 NA 
ENDROOT
BRANCH   2   3
HETATM    3  C   UNL     1     -10.348  14.785  65.237  1.00  0.00    -0.398 C  
BRANCH   3   4
HETATM    4  C   UNL     1      -9.506  15.626  66.187  1.00  0.00    -0.376 A  
HETATM    5  C   UNL     1      -9.668  17.037  66.318  1.00  0.00    -0.302 A  
HETATM    6  C   UNL     1      -8.516  14.965  66.938  1.00  0.00    -0.255 A  
HETATM    7  C   UNL     1     -10.651  17.787  65.629  1.00  0.00    -0.123 A  
HETATM    8  C   UNL     1     -10.728  19.178  65.734  1.00  0.00    -0.388 A  
HETATM    9  C   UNL     1      -7.675  15.674  67.785  1.00  0.00    -0.159 A  
HETATM   10  C   UNL     1      -9.835  19.858  66.549  1.00  0.00    -0.567 A  
HETATM   11  C   UNL     1      -7.805  17.055  67.895  1.00  0.00    -0.188 A  
HETATM   12  C   UNL     1      -8.784  17.747  67.168  1.00  0.00    -0.252 A  
HETATM   13  C   UNL     1      -8.879  19.145  67.272  1.00  0.00    -0.317 A  
ENDBRANCH   3   4
ENDBRANCH   2   3
BRANCH   2  14
HETATM   14  C   UNL     1     -10.867  12.453  65.754  1.00  0.00    -0.276 C  
BRANCH  14  15
HETATM   15  C   UNL     1     -10.615  11.779  67.073  1.00  0.00    -0.267 C  
HETATM   16  C   UNL     1     -11.590  11.481  67.949  1.00  0.00    -0.352 C  
BRANCH  16  17
HETATM   17  C   UNL     1     -11.392  10.732  69.198  1.00  0.00    -0.348 A  
HETATM   18  C   UNL     1     -10.195  10.077  69.510  1.00  0.00    -0.255 A  
HETATM   19  C   UNL     1     -12.304   9.996  71.331  1.00  0.00    -0.512 A  
HETATM   20  C   UNL     1     -12.439  10.697  70.130  1.00  0.00    -0.342 A  
HETATM   21  C   UNL     1     -11.116   9.329  71.617  1.00  0.00    -0.438 A  
HETATM   22  C   UNL     1     -10.060   9.374  70.710  1.00  0.00    -0.366 A  
ENDBRANCH  16  17
ENDBRANCH  14  15
ENDBRANCH   2  14
TORSDOF 5
ENDMDL
MODEL       71
REMARK 921   NORMALIZED FREE ENERGY PREDICTED BY IDOCK:   -5.13 KCAL/MOL
REMARK 922        TOTAL FREE ENERGY PREDICTED BY IDOCK:   -7.93 KCAL/MOL
REMARK 923 INTER-LIGAND FREE ENERGY PREDICTED BY IDOCK:   -6.91 KCAL/MOL
REMARK 924 INTRA-LIGAND FREE ENERGY PREDICTED BY IDOCK:   -1.03 KCAL/MOL
REMARK 927      BINDING AFFINITY PREDICTED BY RF-SCORE:    0.00 PKD
ROOT
HETATM    1  C   UNL     1      -8.406   6.596  65.950  1.00  0.00    -0.137 C  
HETATM    2  N   UNL     1      -9.234   7.667  66.513  1.00  0.00    -0.168 NA 
ENDROOT
BRANCH   2   3
HETATM    3  C   UNL     1      -8.606   8.993  66.324  1.00  0.00    -0.128 C  
BRANCH   3   4
HETATM    4  C   UNL     1      -9.047   9.721  65.061  1.00  0.00    -0.280 A  
HETATM    5  C   UNL     1     -10.051  10.734  65.065  1.00  0.00    -0.377 A  
HETATM    6  C   UNL     1      -8.441   9.343  63.848  1.00  0.00    -0.204 A  
HETATM    7  C   UNL     1     -10.697  11.201  66.235  1.00  0.00    -0.298 A  
HETATM    8  C   UNL     1     -11.725  12.145  66.184  1.00  0.00    -0.384 A  
HETATM    9  C   UNL     1      -8.830   9.925  62.648  1.00  0.00    -0.246 A  
HETATM   10  C   UNL     1     -12.125  12.664  64.961  1.00  0.00    -0.497 A  
HETATM   11  C   UNL     1      -9.832  10.892  62.639  1.00  0.00    -0.178 A  
HETATM   12  C   UNL     1     -10.453  11.298  63.828  1.00  0.00    -0.459 A  
HETATM   13  C   UNL     1     -11.482  12.253  63.793  1.00  0.00    -0.545 A  
ENDBRANCH   3   4
ENDBRANCH   2   3
BRANCH   2  14
HETATM   14  C   UNL     1      -9.509   7.386  67.929  1.00  0.00    -0.140 C  
BRANCH  14  15
HETATM   15  C   UNL     1     -10.503   8.344  68.521  1.00  0.00    -0.201 C  
HETATM   16  C   UNL     1     -10.437   8.790  69.787  1.00  0.00    -0.222 C  
BRANCH  16  17
HETATM   17  C   UNL     1     -11.330   9.805  70.364  1.00  0.00    -0.362 A  
HETATM   18  C   UNL     1     -12.082   9.584  71.524  1.00  0.00    -0.468 A  
HETATM   19  C   UNL     1     -12.246  12.056  70.247  1.00  0.00    -0.348 A  
HETATM   20  C   UNL     1     -11.409  11.058  69.741  1.00  0.00    -0.366 A  
HETATM   21  C   UNL     1     -13.006  11.815  71.388  1.00  0.00    -0.408 A  
HETATM   22  C   UNL     1     -12.921  10.581  72.029  1.00  0.00    -0.490 A  
ENDBRANCH  16  17
ENDBRANCH  14  15
ENDBRANCH   2  14
TORSDOF 5
ENDMDL
MODEL       72
REMARK 921   NORMALIZED FREE ENERGY PREDICTED BY IDOCK:   -5.12 KCAL/MOL
REMARK 922        TOTAL FREE ENERGY PREDICTED BY IDOCK:   -7.93 KCAL/MOL
REMARK 923 INTER-LIGAND FREE ENERGY PREDICTED BY IDOCK:   -6.94 KCAL/MOL
REMARK 924 INTRA-LIGAND FREE ENERGY PREDICTED BY IDOCK:   -0.99 KCAL/MOL
REMARK 927      BINDING AFFINITY PREDICTED BY RF-SCORE:    0.00 PKD
ROOT
HETATM    1  C   UNL     1      -7.328   9.568  68.836  1.00  0.00    -0.073 C  
HETATM    2  N   UNL     1      -8.733   9.584  68.417  1.00  0.00    -0.123 NA 
ENDROOT
BRANCH   2   3
HETATM    3  C   UNL     1      -9.582   8.800  69.341  1.00  0.00    -0.163 C  
BRANCH   3   4
HETATM    4  C   UNL     1     -10.711   9.597  69.981  1.00  0.00    -0.298 A  
HETATM    5  C   UNL     1     -11.760   8.985  70.728  1.00  0.00    -0.286 A  
HETATM    6  C   UNL     1     -10.711  10.992  69.793  1.00  0.00    -0.135 A  
HETATM    7  C   UNL     1     -11.833   7.597  70.996  1.00  0.00    -0.306 A  
HETATM    8  C   UNL     1     -12.917   7.031  71.672  1.00  0.00    -0.400 A  
HETATM    9  C   UNL     1     -11.736  11.778  70.301  1.00  0.00    -0.317 A  
HETATM   10  C   UNL     1     -13.950   7.841  72.118  1.00  0.00    -0.233 A  
HETATM   11  C   UNL     1     -12.781  11.185  71.005  1.00  0.00    -0.476 A  
HETATM   12  C   UNL     1     -12.812   9.800  71.218  1.00  0.00    -0.472 A  
HETATM   13  C   UNL     1     -13.890   9.218  71.905  1.00  0.00    -0.414 A  
ENDBRANCH   3   4
ENDBRANCH   2   3
BRANCH   2  14
HETATM   14  C   UNL     1      -8.839   9.104  67.032  1.00  0.00    -0.123 C  
BRANCH  14  15
HETATM   15  C   UNL     1      -9.455  10.126  66.118  1.00  0.00    -0.238 C  
HETATM   16  C   UNL     1     -10.615  10.750  66.382  1.00  0.00    -0.266 C  
BRANCH  16  17
HETATM   17  C   UNL     1     -11.192  11.826  65.562  1.00  0.00    -0.316 A  
HETATM   18  C   UNL     1     -11.316  11.738  64.171  1.00  0.00    -0.430 A  
HETATM   19  C   UNL     1     -12.217  14.030  65.475  1.00  0.00    -0.455 A  
HETATM   20  C   UNL     1     -11.664  12.977  66.208  1.00  0.00    -0.440 A  
HETATM   21  C   UNL     1     -12.313  13.939  64.090  1.00  0.00    -0.380 A  
HETATM   22  C   UNL     1     -11.868  12.792  63.437  1.00  0.00    -0.591 A  
ENDBRANCH  16  17
ENDBRANCH  14  15
ENDBRANCH   2  14
TORSDOF 5
ENDMDL
MODEL       73
REMARK 921   NORMALIZED FREE ENERGY PREDICTED BY IDOCK:   -5.09 KCAL/MOL
REMARK 922        TOTAL FREE ENERGY PREDICTED BY IDOCK:   -7.89 KCAL/MOL
REMARK 923 INTER-LIGAND FREE ENERGY PREDICTED BY IDOCK:   -6.89 KCAL/MOL
REMARK 924 INTRA-LIGAND FREE ENERGY PREDICTED BY IDOCK:   -1.00 KCAL/MOL
REMARK 927      BINDING AFFINITY PREDICTED BY RF-SCORE:    0.00 PKD
ROOT
HETATM    1  C   UNL     1     -11.474   5.674  72.614  1.00  0.00    -0.285 C  
HETATM    2  N   UNL     1     -11.406   6.846  71.735  1.00  0.00    -0.250 NA 
ENDROOT
BRANCH   2   3
HETATM    3  C   UNL     1     -10.139   6.876  70.971  1.00  0.00    -0.193 C  
BRANCH   3   4
HETATM    4  C   UNL     1     -10.281   6.476  69.508  1.00  0.00    -0.219 A  
HETATM    5  C   UNL     1      -9.947   5.175  69.029  1.00  0.00    -0.265 A  
HETATM    6  C   UNL     1     -10.740   7.456  68.608  1.00  0.00    -0.134 A  
HETATM    7  C   UNL     1      -9.505   4.116  69.857  1.00  0.00    -0.265 A  
HETATM    8  C   UNL     1      -9.121   2.880  69.334  1.00  0.00    -0.197 A  
HETATM    9  C   UNL     1     -10.845   7.180  67.251  1.00  0.00    -0.382 A  
HETATM   10  C   UNL     1      -9.187   2.659  67.967  1.00  0.00    -0.254 A  
HETATM   11  C   UNL     1     -10.491   5.923  66.769  1.00  0.00    -0.344 A  
HETATM   12  C   UNL     1     -10.036   4.920  67.637  1.00  0.00    -0.192 A  
HETATM   13  C   UNL     1      -9.655   3.668  67.126  1.00  0.00    -0.194 A  
ENDBRANCH   3   4
ENDBRANCH   2   3
BRANCH   2  14
HETATM   14  C   UNL     1     -11.599   8.068  72.528  1.00  0.00    -0.403 C  
BRANCH  14  15
HETATM   15  C   UNL     1     -11.395   9.315  71.716  1.00  0.00    -0.437 C  
HETATM   16  C   UNL     1     -12.395   9.965  71.095  1.00  0.00    -0.466 C  
BRANCH  16  17
HETATM   17  C   UNL     1     -12.247  11.241  70.381  1.00  0.00    -0.453 A  
HETATM   18  C   UNL     1     -12.489  12.481  70.981  1.00  0.00    -0.353 A  
HETATM   19  C   UNL     1     -11.661  12.397  68.322  1.00  0.00    -0.398 A  
HETATM   20  C   UNL     1     -11.814  11.213  69.047  1.00  0.00    -0.418 A  
HETATM   21  C   UNL     1     -11.929  13.623  68.925  1.00  0.00    -0.392 A  
HETATM   22  C   UNL     1     -12.338  13.666  70.256  1.00  0.00    -0.392 A  
ENDBRANCH  16  17
ENDBRANCH  14  15
ENDBRANCH   2  14
TORSDOF 5
ENDMDL
MODEL       74
REMARK 921   NORMALIZED FREE ENERGY PREDICTED BY IDOCK:   -5.09 KCAL/MOL
REMARK 922        TOTAL FREE ENERGY PREDICTED BY IDOCK:   -7.89 KCAL/MOL
REMARK 923 INTER-LIGAND FREE ENERGY PREDICTED BY IDOCK:   -7.02 KCAL/MOL
REMARK 924 INTRA-LIGAND FREE ENERGY PREDICTED BY IDOCK:   -0.87 KCAL/MOL
REMARK 927      BINDING AFFINITY PREDICTED BY RF-SCORE:    0.00 PKD
ROOT
HETATM    1  C   UNL     1      -9.116  13.249  67.462  1.00  0.00    -0.208 C  
HETATM    2  N   UNL     1      -9.975  12.981  66.305  1.00  0.00    -0.278 NA 
ENDROOT
BRANCH   2   3
HETATM    3  C   UNL     1     -11.408  13.082  66.659  1.00  0.00    -0.325 C  
BRANCH   3   4
HETATM    4  C   UNL     1     -11.672  13.683  68.034  1.00  0.00    -0.387 A  
HETATM    5  C   UNL     1     -12.020  12.892  69.168  1.00  0.00    -0.308 A  
HETATM    6  C   UNL     1     -11.585  15.083  68.159  1.00  0.00    -0.360 A  
HETATM    7  C   UNL     1     -12.105  11.479  69.150  1.00  0.00    -0.329 A  
HETATM    8  C   UNL     1     -12.519  10.750  70.267  1.00  0.00    -0.395 A  
HETATM    9  C   UNL     1     -11.864  15.706  69.368  1.00  0.00    -0.391 A  
HETATM   10  C   UNL     1     -12.842  11.412  71.442  1.00  0.00    -0.502 A  
HETATM   11  C   UNL     1     -12.236  14.944  70.472  1.00  0.00    -0.388 A  
HETATM   12  C   UNL     1     -12.326  13.548  70.387  1.00  0.00    -0.397 A  
HETATM   13  C   UNL     1     -12.731  12.801  71.505  1.00  0.00    -0.330 A  
ENDBRANCH   3   4
ENDBRANCH   2   3
BRANCH   2  14
HETATM   14  C   UNL     1      -9.641  11.668  65.736  1.00  0.00    -0.232 C  
BRANCH  14  15
HETATM   15  C   UNL     1      -9.648  10.578  66.771  1.00  0.00    -0.205 C  
HETATM   16  C   UNL     1     -10.361   9.446  66.647  1.00  0.00    -0.284 C  
BRANCH  16  17
HETATM   17  C   UNL     1     -10.311   8.318  67.589  1.00  0.00    -0.313 A  
HETATM   18  C   UNL     1      -9.769   8.425  68.875  1.00  0.00    -0.168 A  
HETATM   19  C   UNL     1     -10.830   5.985  68.046  1.00  0.00    -0.374 A  
HETATM   20  C   UNL     1     -10.856   7.089  67.190  1.00  0.00    -0.427 A  
HETATM   21  C   UNL     1     -10.267   6.100  69.313  1.00  0.00    -0.251 A  
HETATM   22  C   UNL     1      -9.741   7.321  69.731  1.00  0.00    -0.166 A  
ENDBRANCH  16  17
ENDBRANCH  14  15
ENDBRANCH   2  14
TORSDOF 5
ENDMDL
MODEL       75
REMARK 921   NORMALIZED FREE ENERGY PREDICTED BY IDOCK:   -5.07 KCAL/MOL
REMARK 922        TOTAL FREE ENERGY PREDICTED BY IDOCK:   -7.86 KCAL/MOL
REMARK 923 INTER-LIGAND FREE ENERGY PREDICTED BY IDOCK:   -6.81 KCAL/MOL
REMARK 924 INTRA-LIGAND FREE ENERGY PREDICTED BY IDOCK:   -1.05 KCAL/MOL
REMARK 927      BINDING AFFINITY PREDICTED BY RF-SCORE:    0.00 PKD
ROOT
HETATM    1  C   UNL     1      -7.652   7.094  67.917  1.00  0.00    -0.111 C  
HETATM    2  N   UNL     1      -8.575   8.201  67.645  1.00  0.00    -0.130 NA 
ENDROOT
BRANCH   2   3
HETATM    3  C   UNL     1      -9.983   7.748  67.667  1.00  0.00    -0.178 C  
BRANCH   3   4
HETATM    4  C   UNL     1     -10.632   7.784  69.045  1.00  0.00    -0.179 A  
HETATM    5  C   UNL     1     -11.174   8.976  69.611  1.00  0.00     0.007 A  
HETATM    6  C   UNL     1     -10.663   6.585  69.781  1.00  0.00    -0.322 A  
HETATM    7  C   UNL     1     -11.215  10.222  68.940  1.00  0.00    -0.259 A  
HETATM    8  C   UNL     1     -11.691  11.379  69.561  1.00  0.00    -0.417 A  
HETATM    9  C   UNL     1     -11.190   6.553  71.065  1.00  0.00    -0.362 A  
HETATM   10  C   UNL     1     -12.159  11.320  70.865  1.00  0.00    -0.406 A  
HETATM   11  C   UNL     1     -11.693   7.718  71.637  1.00  0.00    -0.316 A  
HETATM   12  C   UNL     1     -11.684   8.929  70.933  1.00  0.00    -0.312 A  
HETATM   13  C   UNL     1     -12.169  10.100  71.540  1.00  0.00    -0.473 A  
ENDBRANCH   3   4
ENDBRANCH   2   3
BRANCH   2  14
HETATM   14  C   UNL     1      -8.221   8.835  66.368  1.00  0.00    -0.111 C  
BRANCH  14  15
HETATM   15  C   UNL     1      -8.992  10.102  66.126  1.00  0.00    -0.171 C  
HETATM   16  C   UNL     1      -9.869  10.253  65.119  1.00  0.00    -0.389 C  
BRANCH  16  17
HETATM   17  C   UNL     1     -10.713  11.439  64.915  1.00  0.00    -0.350 A  
HETATM   18  C   UNL     1     -11.211  11.811  63.662  1.00  0.00    -0.519 A  
HETATM   19  C   UNL     1     -11.855  13.352  65.892  1.00  0.00    -0.414 A  
HETATM   20  C   UNL     1     -11.058  12.213  66.032  1.00  0.00    -0.354 A  
HETATM   21  C   UNL     1     -12.324  13.724  64.636  1.00  0.00    -0.410 A  
HETATM   22  C   UNL     1     -12.007  12.951  63.521  1.00  0.00    -0.629 A  
ENDBRANCH  16  17
ENDBRANCH  14  15
ENDBRANCH   2  14
TORSDOF 5
ENDMDL
MODEL       76
REMARK 921   NORMALIZED FREE ENERGY PREDICTED BY IDOCK:   -5.06 KCAL/MOL
REMARK 922        TOTAL FREE ENERGY PREDICTED BY IDOCK:   -7.85 KCAL/MOL
REMARK 923 INTER-LIGAND FREE ENERGY PREDICTED BY IDOCK:   -7.09 KCAL/MOL
REMARK 924 INTRA-LIGAND FREE ENERGY PREDICTED BY IDOCK:   -0.76 KCAL/MOL
REMARK 927      BINDING AFFINITY PREDICTED BY RF-SCORE:    0.00 PKD
ROOT
HETATM    1  C   UNL     1      -9.730  11.818  66.906  1.00  0.00    -0.198 C  
HETATM    2  N   UNL     1     -10.635  10.872  67.565  1.00  0.00    -0.214 NA 
ENDROOT
BRANCH   2   3
HETATM    3  C   UNL     1     -10.177  10.548  68.934  1.00  0.00    -0.208 C  
BRANCH   3   4
HETATM    4  C   UNL     1     -11.280  10.566  69.984  1.00  0.00    -0.386 A  
HETATM    5  C   UNL     1     -11.946  11.762  70.384  1.00  0.00    -0.422 A  
HETATM    6  C   UNL     1     -11.623   9.341  70.587  1.00  0.00    -0.305 A  
HETATM    7  C   UNL     1     -11.693  13.035  69.818  1.00  0.00    -0.346 A  
HETATM    8  C   UNL     1     -12.317  14.191  70.290  1.00  0.00    -0.421 A  
HETATM    9  C   UNL     1     -12.583   9.287  71.590  1.00  0.00    -0.446 A  
HETATM   10  C   UNL     1     -13.230  14.105  71.331  1.00  0.00    -0.418 A  
HETATM   11  C   UNL     1     -13.214  10.454  72.009  1.00  0.00    -0.497 A  
HETATM   12  C   UNL     1     -12.904  11.691  71.427  1.00  0.00    -0.461 A  
HETATM   13  C   UNL     1     -13.532  12.861  71.885  1.00  0.00    -0.478 A  
ENDBRANCH   3   4
ENDBRANCH   2   3
BRANCH   2  14
HETATM   14  C   UNL     1     -10.779   9.668  66.735  1.00  0.00    -0.078 C  
BRANCH  14  15
HETATM   15  C   UNL     1     -10.276   8.432  67.426  1.00  0.00    -0.328 C  
HETATM   16  C   UNL     1     -10.942   7.265  67.431  1.00  0.00    -0.257 C  
BRANCH  16  17
HETATM   17  C   UNL     1     -10.431   6.013  68.009  1.00  0.00    -0.291 A  
HETATM   18  C   UNL     1      -9.930   4.965  67.229  1.00  0.00    -0.220 A  
HETATM   19  C   UNL     1      -9.948   4.706  70.003  1.00  0.00    -0.302 A  
HETATM   20  C   UNL     1     -10.419   5.878  69.404  1.00  0.00    -0.343 A  
HETATM   21  C   UNL     1      -9.474   3.663  69.214  1.00  0.00    -0.244 A  
HETATM   22  C   UNL     1      -9.460   3.793  67.828  1.00  0.00    -0.231 A  
ENDBRANCH  16  17
ENDBRANCH  14  15
ENDBRANCH   2  14
TORSDOF 5
ENDMDL
MODEL       77
REMARK 921   NORMALIZED FREE ENERGY PREDICTED BY IDOCK:   -5.06 KCAL/MOL
REMARK 922        TOTAL FREE ENERGY PREDICTED BY IDOCK:   -7.84 KCAL/MOL
REMARK 923 INTER-LIGAND FREE ENERGY PREDICTED BY IDOCK:   -6.12 KCAL/MOL
REMARK 924 INTRA-LIGAND FREE ENERGY PREDICTED BY IDOCK:   -1.73 KCAL/MOL
REMARK 927      BINDING AFFINITY PREDICTED BY RF-SCORE:    0.00 PKD
ROOT
HETATM    1  C   UNL     1     -11.244  15.782  64.642  1.00  0.00    -0.363 C  
HETATM    2  N   UNL     1     -10.980  14.899  65.782  1.00  0.00    -0.335 NA 
ENDROOT
BRANCH   2   3
HETATM    3  C   UNL     1     -11.955  13.787  65.841  1.00  0.00    -0.406 C  
BRANCH   3   4
HETATM    4  C   UNL     1     -11.322  12.403  65.913  1.00  0.00    -0.399 A  
HETATM    5  C   UNL     1     -11.298  11.627  67.109  1.00  0.00    -0.373 A  
HETATM    6  C   UNL     1     -10.720  11.901  64.743  1.00  0.00    -0.356 A  
HETATM    7  C   UNL     1     -11.898  12.031  68.325  1.00  0.00    -0.351 A  
HETATM    8  C   UNL     1     -11.789  11.270  69.492  1.00  0.00    -0.427 A  
HETATM    9  C   UNL     1     -10.078  10.671  64.746  1.00  0.00    -0.412 A  
HETATM   10  C   UNL     1     -11.092  10.071  69.470  1.00  0.00    -0.279 A  
HETATM   11  C   UNL     1     -10.022   9.920  65.917  1.00  0.00    -0.347 A  
HETATM   12  C   UNL     1     -10.615  10.384  67.100  1.00  0.00    -0.319 A  
HETATM   13  C   UNL     1     -10.521   9.625  68.278  1.00  0.00    -0.259 A  
ENDBRANCH   3   4
ENDBRANCH   2   3
BRANCH   2  14
HETATM   14  C   UNL     1     -10.969  15.685  67.023  1.00  0.00    -0.261 C  
BRANCH  14  15
HETATM   15  C   UNL     1      -9.925  15.209  67.993  1.00  0.00    -0.221 C  
HETATM   16  C   UNL     1      -8.987  14.299  67.682  1.00  0.00    -0.194 C  
BRANCH  16  17
HETATM   17  C   UNL     1      -7.891  13.889  68.572  1.00  0.00    -0.139 A  
HETATM   18  C   UNL     1      -7.184  14.792  69.373  1.00  0.00    -0.168 A  
HETATM   19  C   UNL     1      -6.526  12.086  69.470  1.00  0.00    -0.109 A  
HETATM   20  C   UNL     1      -7.562  12.527  68.642  1.00  0.00    -0.080 A  
HETATM   21  C   UNL     1      -5.816  12.998  70.244  1.00  0.00    -0.157 A  
HETATM   22  C   UNL     1      -6.147  14.351  70.200  1.00  0.00    -0.160 A  
ENDBRANCH  16  17
ENDBRANCH  14  15
ENDBRANCH   2  14
TORSDOF 5
ENDMDL
MODEL       78
REMARK 921   NORMALIZED FREE ENERGY PREDICTED BY IDOCK:   -5.05 KCAL/MOL
REMARK 922        TOTAL FREE ENERGY PREDICTED BY IDOCK:   -7.83 KCAL/MOL
REMARK 923 INTER-LIGAND FREE ENERGY PREDICTED BY IDOCK:   -6.96 KCAL/MOL
REMARK 924 INTRA-LIGAND FREE ENERGY PREDICTED BY IDOCK:   -0.88 KCAL/MOL
REMARK 927      BINDING AFFINITY PREDICTED BY RF-SCORE:    0.00 PKD
ROOT
HETATM    1  C   UNL     1     -13.169  12.293  71.871  1.00  0.00    -0.376 C  
HETATM    2  N   UNL     1     -12.501  11.074  71.407  1.00  0.00    -0.354 NA 
ENDROOT
BRANCH   2   3
HETATM    3  C   UNL     1     -12.525  10.972  69.931  1.00  0.00    -0.219 C  
BRANCH   3   4
HETATM    4  C   UNL     1     -11.197  11.297  69.260  1.00  0.00    -0.336 A  
HETATM    5  C   UNL     1     -10.991  12.478  68.487  1.00  0.00    -0.280 A  
HETATM    6  C   UNL     1     -10.150  10.366  69.403  1.00  0.00    -0.251 A  
HETATM    7  C   UNL     1     -11.969  13.485  68.307  1.00  0.00    -0.377 A  
HETATM    8  C   UNL     1     -11.749  14.591  67.483  1.00  0.00    -0.413 A  
HETATM    9  C   UNL     1      -8.928  10.568  68.776  1.00  0.00    -0.166 A  
HETATM   10  C   UNL     1     -10.534  14.732  66.829  1.00  0.00    -0.282 A  
HETATM   11  C   UNL     1      -8.730  11.702  67.993  1.00  0.00    -0.157 A  
HETATM   12  C   UNL     1      -9.746  12.655  67.833  1.00  0.00    -0.216 A  
HETATM   13  C   UNL     1      -9.534  13.777  67.015  1.00  0.00    -0.255 A  
ENDBRANCH   3   4
ENDBRANCH   2   3
BRANCH   2  14
HETATM   14  C   UNL     1     -13.113   9.902  72.048  1.00  0.00    -0.448 C  
BRANCH  14  15
HETATM   15  C   UNL     1     -12.190   8.717  72.075  1.00  0.00    -0.439 C  
HETATM   16  C   UNL     1     -12.429   7.578  71.403  1.00  0.00    -0.382 C  
BRANCH  16  17
HETATM   17  C   UNL     1     -11.499   6.442  71.325  1.00  0.00    -0.371 A  
HETATM   18  C   UNL     1     -11.093   5.714  72.449  1.00  0.00    -0.324 A  
HETATM   19  C   UNL     1     -10.135   4.983  69.936  1.00  0.00    -0.344 A  
HETATM   20  C   UNL     1     -11.023   6.054  70.064  1.00  0.00    -0.450 A  
HETATM   21  C   UNL     1      -9.721   4.282  71.065  1.00  0.00    -0.260 A  
HETATM   22  C   UNL     1     -10.203   4.644  72.321  1.00  0.00    -0.256 A  
ENDBRANCH  16  17
ENDBRANCH  14  15
ENDBRANCH   2  14
TORSDOF 5
ENDMDL
MODEL       79
REMARK 921   NORMALIZED FREE ENERGY PREDICTED BY IDOCK:   -5.04 KCAL/MOL
REMARK 922        TOTAL FREE ENERGY PREDICTED BY IDOCK:   -7.82 KCAL/MOL
REMARK 923 INTER-LIGAND FREE ENERGY PREDICTED BY IDOCK:   -6.05 KCAL/MOL
REMARK 924 INTRA-LIGAND FREE ENERGY PREDICTED BY IDOCK:   -1.77 KCAL/MOL
REMARK 927      BINDING AFFINITY PREDICTED BY RF-SCORE:    0.00 PKD
ROOT
HETATM    1  C   UNL     1      -8.010  18.821  67.994  1.00  0.00    -0.281 C  
HETATM    2  N   UNL     1      -8.624  17.490  67.967  1.00  0.00    -0.243 NA 
ENDROOT
BRANCH   2   3
HETATM    3  C   UNL     1     -10.020  17.528  68.458  1.00  0.00    -0.344 C  
BRANCH   3   4
HETATM    4  C   UNL     1     -10.734  16.184  68.418  1.00  0.00    -0.298 A  
HETATM    5  C   UNL     1     -11.004  15.489  67.203  1.00  0.00    -0.295 A  
HETATM    6  C   UNL     1     -11.157  15.636  69.645  1.00  0.00    -0.299 A  
HETATM    7  C   UNL     1     -10.596  15.942  65.926  1.00  0.00    -0.348 A  
HETATM    8  C   UNL     1     -10.944  15.265  64.755  1.00  0.00    -0.403 A  
HETATM    9  C   UNL     1     -11.860  14.439  69.683  1.00  0.00    -0.372 A  
HETATM   10  C   UNL     1     -11.695  14.101  64.829  1.00  0.00    -0.416 A  
HETATM   11  C   UNL     1     -12.156  13.770  68.498  1.00  0.00    -0.327 A  
HETATM   12  C   UNL     1     -11.746  14.282  67.260  1.00  0.00    -0.422 A  
HETATM   13  C   UNL     1     -12.080  13.606  66.074  1.00  0.00    -0.480 A  
ENDBRANCH   3   4
ENDBRANCH   2   3
BRANCH   2  14
HETATM   14  C   UNL     1      -7.797  16.550  68.735  1.00  0.00    -0.235 C  
BRANCH  14  15
HETATM   15  C   UNL     1      -7.466  15.309  67.955  1.00  0.00    -0.157 C  
HETATM   16  C   UNL     1      -7.907  14.085  68.290  1.00  0.00    -0.140 C  
BRANCH  16  17
HETATM   17  C   UNL     1      -7.687  12.870  67.492  1.00  0.00    -0.174 A  
HETATM   18  C   UNL     1      -6.432  12.268  67.353  1.00  0.00    -0.157 A  
HETATM   19  C   UNL     1      -8.636  11.117  66.097  1.00  0.00    -0.172 A  
HETATM   20  C   UNL     1      -8.792  12.271  66.869  1.00  0.00    -0.207 A  
HETATM   21  C   UNL     1      -7.378  10.543  65.948  1.00  0.00    -0.142 A  
HETATM   22  C   UNL     1      -6.276  11.115  66.580  1.00  0.00    -0.139 A  
ENDBRANCH  16  17
ENDBRANCH  14  15
ENDBRANCH   2  14
TORSDOF 5
ENDMDL
MODEL       80
REMARK 921   NORMALIZED FREE ENERGY PREDICTED BY IDOCK:   -5.03 KCAL/MOL
REMARK 922        TOTAL FREE ENERGY PREDICTED BY IDOCK:   -7.80 KCAL/MOL
REMARK 923 INTER-LIGAND FREE ENERGY PREDICTED BY IDOCK:   -7.02 KCAL/MOL
REMARK 924 INTRA-LIGAND FREE ENERGY PREDICTED BY IDOCK:   -0.78 KCAL/MOL
REMARK 927      BINDING AFFINITY PREDICTED BY RF-SCORE:    0.00 PKD
ROOT
HETATM    1  C   UNL     1     -12.889  10.318  71.505  1.00  0.00    -0.452 C  
HETATM    2  N   UNL     1     -12.177  10.850  70.339  1.00  0.00    -0.335 NA 
ENDROOT
BRANCH   2   3
HETATM    3  C   UNL     1     -10.812  10.290  70.236  1.00  0.00    -0.286 C  
BRANCH   3   4
HETATM    4  C   UNL     1     -10.657   9.210  69.173  1.00  0.00    -0.224 A  
HETATM    5  C   UNL     1     -10.589   7.821  69.488  1.00  0.00    -0.221 A  
HETATM    6  C   UNL     1     -10.555   9.628  67.832  1.00  0.00    -0.308 A  
HETATM    7  C   UNL     1     -10.709   7.301  70.798  1.00  0.00    -0.248 A  
HETATM    8  C   UNL     1     -10.565   5.938  71.069  1.00  0.00    -0.312 A  
HETATM    9  C   UNL     1     -10.359   8.706  66.813  1.00  0.00    -0.336 A  
HETATM   10  C   UNL     1     -10.315   5.052  70.031  1.00  0.00    -0.303 A  
HETATM   11  C   UNL     1     -10.259   7.350  67.115  1.00  0.00    -0.347 A  
HETATM   12  C   UNL     1     -10.362   6.896  68.437  1.00  0.00    -0.213 A  
HETATM   13  C   UNL     1     -10.229   5.527  68.723  1.00  0.00    -0.270 A  
ENDBRANCH   3   4
ENDBRANCH   2   3
BRANCH   2  14
HETATM   14  C   UNL     1     -12.166  12.318  70.397  1.00  0.00    -0.288 C  
BRANCH  14  15
HETATM   15  C   UNL     1     -11.636  12.936  69.134  1.00  0.00    -0.375 C  
HETATM   16  C   UNL     1     -12.403  13.616  68.265  1.00  0.00     0.044 C  
BRANCH  16  17
HETATM   17  C   UNL     1     -11.899  14.319  67.076  1.00  0.00    -0.455 A  
HETATM   18  C   UNL     1     -10.865  15.261  67.131  1.00  0.00    -0.322 A  
HETATM   19  C   UNL     1     -12.018  14.652  64.669  1.00  0.00    -0.472 A  
HETATM   20  C   UNL     1     -12.459  14.009  65.829  1.00  0.00    -0.523 A  
HETATM   21  C   UNL     1     -11.006  15.603  64.742  1.00  0.00    -0.418 A  
HETATM   22  C   UNL     1     -10.425  15.905  65.972  1.00  0.00    -0.357 A  
ENDBRANCH  16  17
ENDBRANCH  14  15
ENDBRANCH   2  14
TORSDOF 5
ENDMDL
MODEL       81
REMARK 921   NORMALIZED FREE ENERGY PREDICTED BY IDOCK:   -5.01 KCAL/MOL
REMARK 922        TOTAL FREE ENERGY PREDICTED BY IDOCK:   -7.78 KCAL/MOL
REMARK 923 INTER-LIGAND FREE ENERGY PREDICTED BY IDOCK:   -7.36 KCAL/MOL
REMARK 924 INTRA-LIGAND FREE ENERGY PREDICTED BY IDOCK:   -0.42 KCAL/MOL
REMARK 927      BINDING AFFINITY PREDICTED BY RF-SCORE:    0.00 PKD
ROOT
HETATM    1  C   UNL     1      -9.136  10.140  69.553  1.00  0.00    -0.195 C  
HETATM    2  N   UNL     1     -10.430  10.119  68.865  1.00  0.00    -0.198 NA 
ENDROOT
BRANCH   2   3
HETATM    3  C   UNL     1     -11.485  10.764  69.678  1.00  0.00    -0.305 C  
BRANCH   3   4
HETATM    4  C   UNL     1     -11.595  12.270  69.480  1.00  0.00    -0.366 A  
HETATM    5  C   UNL     1     -12.279  13.121  70.398  1.00  0.00    -0.389 A  
HETATM    6  C   UNL     1     -11.010  12.819  68.322  1.00  0.00    -0.278 A  
HETATM    7  C   UNL     1     -12.874  12.671  71.600  1.00  0.00    -0.367 A  
HETATM    8  C   UNL     1     -13.595  13.528  72.434  1.00  0.00    -0.709 A  
HETATM    9  C   UNL     1     -11.115  14.176  68.048  1.00  0.00    -0.285 A  
HETATM   10  C   UNL     1     -13.725  14.868  72.099  1.00  0.00    -0.550 A  
HETATM   11  C   UNL     1     -11.808  15.009  68.922  1.00  0.00    -0.337 A  
HETATM   12  C   UNL     1     -12.398  14.500  70.088  1.00  0.00    -0.398 A  
HETATM   13  C   UNL     1     -13.118  15.352  70.941  1.00  0.00    -0.528 A  
ENDBRANCH   3   4
ENDBRANCH   2   3
BRANCH   2  14
HETATM   14  C   UNL     1     -10.777   8.736  68.511  1.00  0.00    -0.060 C  
BRANCH  14  15
HETATM   15  C   UNL     1     -10.434   7.762  69.602  1.00  0.00    -0.229 C  
HETATM   16  C   UNL     1     -11.211   6.717  69.931  1.00  0.00    -0.421 C  
BRANCH  16  17
HETATM   17  C   UNL     1     -10.856   5.689  70.921  1.00  0.00    -0.294 A  
HETATM   18  C   UNL     1     -10.038   4.594  70.620  1.00  0.00    -0.261 A  
HETATM   19  C   UNL     1     -11.028   4.880  73.209  1.00  0.00    -0.390 A  
HETATM   20  C   UNL     1     -11.334   5.831  72.232  1.00  0.00    -0.334 A  
HETATM   21  C   UNL     1     -10.233   3.783  72.890  1.00  0.00    -0.233 A  
HETATM   22  C   UNL     1      -9.733   3.642  71.597  1.00  0.00    -0.236 A  
ENDBRANCH  16  17
ENDBRANCH  14  15
ENDBRANCH   2  14
TORSDOF 5
ENDMDL
MODEL       82
REMARK 921   NORMALIZED FREE ENERGY PREDICTED BY IDOCK:   -4.99 KCAL/MOL
REMARK 922        TOTAL FREE ENERGY PREDICTED BY IDOCK:   -7.75 KCAL/MOL
REMARK 923 INTER-LIGAND FREE ENERGY PREDICTED BY IDOCK:   -6.09 KCAL/MOL
REMARK 924 INTRA-LIGAND FREE ENERGY PREDICTED BY IDOCK:   -1.67 KCAL/MOL
REMARK 927      BINDING AFFINITY PREDICTED BY RF-SCORE:    0.00 PKD
ROOT
HETATM    1  C   UNL     1     -10.413   5.670  73.718  1.00  0.00    -0.270 C  
HETATM    2  N   UNL     1     -10.497   6.603  72.589  1.00  0.00    -0.204 NA 
ENDROOT
BRANCH   2   3
HETATM    3  C   UNL     1     -10.889   7.958  73.036  1.00  0.00    -0.342 C  
BRANCH   3   4
HETATM    4  C   UNL     1     -11.312   8.890  71.908  1.00  0.00    -0.446 A  
HETATM    5  C   UNL     1     -10.392   9.411  70.951  1.00  0.00    -0.380 A  
HETATM    6  C   UNL     1     -12.670   9.257  71.842  1.00  0.00    -0.474 A  
HETATM    7  C   UNL     1      -9.016   9.081  70.916  1.00  0.00    -0.300 A  
HETATM    8  C   UNL     1      -8.137   9.671  70.005  1.00  0.00    -0.190 A  
HETATM    9  C   UNL     1     -13.120  10.145  70.874  1.00  0.00    -0.412 A  
HETATM   10  C   UNL     1      -8.614  10.595  69.087  1.00  0.00    -0.136 A  
HETATM   11  C   UNL     1     -12.223  10.683  69.956  1.00  0.00    -0.373 A  
HETATM   12  C   UNL     1     -10.865  10.336  69.986  1.00  0.00    -0.364 A  
HETATM   13  C   UNL     1      -9.971  10.914  69.069  1.00  0.00    -0.206 A  
ENDBRANCH   3   4
ENDBRANCH   2   3
BRANCH   2  14
HETATM   14  C   UNL     1     -11.418   6.069  71.577  1.00  0.00    -0.216 C  
BRANCH  14  15
HETATM   15  C   UNL     1     -10.736   5.807  70.264  1.00  0.00    -0.380 C  
HETATM   16  C   UNL     1     -11.004   6.495  69.141  1.00  0.00    -0.380 C  
BRANCH  16  17
HETATM   17  C   UNL     1     -10.284   6.334  67.869  1.00  0.00    -0.204 A  
HETATM   18  C   UNL     1     -10.234   5.122  67.172  1.00  0.00    -0.254 A  
HETATM   19  C   UNL     1      -8.944   7.353  66.113  1.00  0.00    -0.182 A  
HETATM   20  C   UNL     1      -9.645   7.454  67.317  1.00  0.00    -0.191 A  
HETATM   21  C   UNL     1      -8.883   6.135  65.442  1.00  0.00    -0.016 A  
HETATM   22  C   UNL     1      -9.532   5.021  65.969  1.00  0.00    -0.169 A  
ENDBRANCH  16  17
ENDBRANCH  14  15
ENDBRANCH   2  14
TORSDOF 5
ENDMDL
MODEL       83
REMARK 921   NORMALIZED FREE ENERGY PREDICTED BY IDOCK:   -4.97 KCAL/MOL
REMARK 922        TOTAL FREE ENERGY PREDICTED BY IDOCK:   -7.73 KCAL/MOL
REMARK 923 INTER-LIGAND FREE ENERGY PREDICTED BY IDOCK:   -6.22 KCAL/MOL
REMARK 924 INTRA-LIGAND FREE ENERGY PREDICTED BY IDOCK:   -1.51 KCAL/MOL
REMARK 927      BINDING AFFINITY PREDICTED BY RF-SCORE:    0.00 PKD
ROOT
HETATM    1  C   UNL     1     -10.991  16.006  69.030  1.00  0.00    -0.296 C  
HETATM    2  N   UNL     1     -10.999  14.540  69.015  1.00  0.00    -0.249 NA 
ENDROOT
BRANCH   2   3
HETATM    3  C   UNL     1     -10.754  14.012  67.655  1.00  0.00    -0.257 C  
BRANCH   3   4
HETATM    4  C   UNL     1      -9.458  13.225  67.514  1.00  0.00    -0.220 A  
HETATM    5  C   UNL     1      -9.427  11.806  67.378  1.00  0.00    -0.174 A  
HETATM    6  C   UNL     1      -8.251  13.950  67.546  1.00  0.00    -0.196 A  
HETATM    7  C   UNL     1     -10.584  10.993  67.308  1.00  0.00    -0.287 A  
HETATM    8  C   UNL     1     -10.506   9.600  67.246  1.00  0.00    -0.323 A  
HETATM    9  C   UNL     1      -7.028  13.296  67.476  1.00  0.00    -0.152 A  
HETATM   10  C   UNL     1      -9.266   8.979  67.233  1.00  0.00    -0.159 A  
HETATM   11  C   UNL     1      -6.988  11.908  67.375  1.00  0.00    -0.128 A  
HETATM   12  C   UNL     1      -8.169  11.154  67.334  1.00  0.00    -0.132 A  
HETATM   13  C   UNL     1      -8.106   9.752  67.262  1.00  0.00    -0.117 A  
ENDBRANCH   3   4
ENDBRANCH   2   3
BRANCH   2  14
HETATM   14  C   UNL     1     -12.266  14.049  69.576  1.00  0.00    -0.308 C  
BRANCH  14  15
HETATM   15  C   UNL     1     -12.073  12.851  70.462  1.00  0.00    -0.364 C  
HETATM   16  C   UNL     1     -12.409  11.602  70.100  1.00  0.00    -0.297 C  
BRANCH  16  17
HETATM   17  C   UNL     1     -12.140  10.398  70.900  1.00  0.00    -0.477 A  
HETATM   18  C   UNL     1     -13.141   9.700  71.584  1.00  0.00    -0.503 A  
HETATM   19  C   UNL     1     -10.516   8.774  71.703  1.00  0.00    -0.387 A  
HETATM   20  C   UNL     1     -10.825   9.912  70.954  1.00  0.00    -0.357 A  
HETATM   21  C   UNL     1     -11.518   8.103  72.397  1.00  0.00    -0.462 A  
HETATM   22  C   UNL     1     -12.831   8.562  72.334  1.00  0.00    -0.373 A  
ENDBRANCH  16  17
ENDBRANCH  14  15
ENDBRANCH   2  14
TORSDOF 5
ENDMDL
MODEL       84
REMARK 921   NORMALIZED FREE ENERGY PREDICTED BY IDOCK:   -4.95 KCAL/MOL
REMARK 922        TOTAL FREE ENERGY PREDICTED BY IDOCK:   -7.71 KCAL/MOL
REMARK 923 INTER-LIGAND FREE ENERGY PREDICTED BY IDOCK:   -6.74 KCAL/MOL
REMARK 924 INTRA-LIGAND FREE ENERGY PREDICTED BY IDOCK:   -0.96 KCAL/MOL
REMARK 927      BINDING AFFINITY PREDICTED BY RF-SCORE:    0.00 PKD
ROOT
HETATM    1  C   UNL     1      -7.246   8.122  67.841  1.00  0.00    -0.091 C  
HETATM    2  N   UNL     1      -8.517   8.686  67.376  1.00  0.00    -0.122 NA 
ENDROOT
BRANCH   2   3
HETATM    3  C   UNL     1      -9.671   7.912  67.884  1.00  0.00    -0.155 C  
BRANCH   3   4
HETATM    4  C   UNL     1     -10.394   8.563  69.056  1.00  0.00    -0.229 A  
HETATM    5  C   UNL     1     -10.616   7.891  70.294  1.00  0.00    -0.231 A  
HETATM    6  C   UNL     1     -10.876   9.873  68.876  1.00  0.00    -0.239 A  
HETATM    7  C   UNL     1     -10.149   6.586  70.581  1.00  0.00    -0.212 A  
HETATM    8  C   UNL     1     -10.451   5.940  71.782  1.00  0.00    -0.276 A  
HETATM    9  C   UNL     1     -11.591  10.511  69.881  1.00  0.00    -0.384 A  
HETATM   10  C   UNL     1     -11.214   6.589  72.740  1.00  0.00    -0.259 A  
HETATM   11  C   UNL     1     -11.840   9.852  71.081  1.00  0.00    -0.472 A  
HETATM   12  C   UNL     1     -11.371   8.549  71.298  1.00  0.00    -0.325 A  
HETATM   13  C   UNL     1     -11.658   7.890  72.506  1.00  0.00    -0.443 A  
ENDBRANCH   3   4
ENDBRANCH   2   3
BRANCH   2  14
HETATM   14  C   UNL     1      -8.512   8.768  65.909  1.00  0.00    -0.143 C  
BRANCH  14  15
HETATM   15  C   UNL     1      -9.575   9.692  65.383  1.00  0.00    -0.361 C  
HETATM   16  C   UNL     1      -9.697  10.972  65.770  1.00  0.00    -0.268 C  
BRANCH  16  17
HETATM   17  C   UNL     1     -10.658  11.930  65.201  1.00  0.00    -0.333 A  
HETATM   18  C   UNL     1     -10.935  12.005  63.832  1.00  0.00    -0.465 A  
HETATM   19  C   UNL     1     -12.266  13.714  65.584  1.00  0.00    -0.490 A  
HETATM   20  C   UNL     1     -11.346  12.784  66.074  1.00  0.00    -0.363 A  
HETATM   21  C   UNL     1     -12.515  13.794  64.218  1.00  0.00    -0.308 A  
HETATM   22  C   UNL     1     -11.854  12.936  63.341  1.00  0.00    -0.576 A  
ENDBRANCH  16  17
ENDBRANCH  14  15
ENDBRANCH   2  14
TORSDOF 5
ENDMDL
MODEL       85
REMARK 921   NORMALIZED FREE ENERGY PREDICTED BY IDOCK:   -4.94 KCAL/MOL
REMARK 922        TOTAL FREE ENERGY PREDICTED BY IDOCK:   -7.69 KCAL/MOL
REMARK 923 INTER-LIGAND FREE ENERGY PREDICTED BY IDOCK:   -7.25 KCAL/MOL
REMARK 924 INTRA-LIGAND FREE ENERGY PREDICTED BY IDOCK:   -0.44 KCAL/MOL
REMARK 927      BINDING AFFINITY PREDICTED BY RF-SCORE:    0.00 PKD
ROOT
HETATM    1  C   UNL     1      -9.623  11.475  68.998  1.00  0.00     0.065 C  
HETATM    2  N   UNL     1     -10.421  11.390  67.771  1.00  0.00    -0.180 NA 
ENDROOT
BRANCH   2   3
HETATM    3  C   UNL     1      -9.672  11.903  66.602  1.00  0.00    -0.205 C  
BRANCH   3   4
HETATM    4  C   UNL     1     -10.219  13.205  66.032  1.00  0.00    -0.287 A  
HETATM    5  C   UNL     1      -9.590  14.467  66.249  1.00  0.00    -0.321 A  
HETATM    6  C   UNL     1     -11.409  13.138  65.283  1.00  0.00    -0.321 A  
HETATM    7  C   UNL     1      -8.379  14.634  66.963  1.00  0.00    -0.214 A  
HETATM    8  C   UNL     1      -7.836  15.896  67.212  1.00  0.00    -0.218 A  
HETATM    9  C   UNL     1     -11.995  14.290  64.776  1.00  0.00    -0.449 A  
HETATM   10  C   UNL     1      -8.480  17.029  66.736  1.00  0.00    -0.265 A  
HETATM   11  C   UNL     1     -11.405  15.529  65.010  1.00  0.00    -0.301 A  
HETATM   12  C   UNL     1     -10.217  15.635  65.746  1.00  0.00    -0.391 A  
HETATM   13  C   UNL     1      -9.654  16.897  65.996  1.00  0.00    -0.238 A  
ENDBRANCH   3   4
ENDBRANCH   2   3
BRANCH   2  14
HETATM   14  C   UNL     1     -11.695  12.096  67.961  1.00  0.00    -0.344 C  
BRANCH  14  15
HETATM   15  C   UNL     1     -11.727  12.883  69.241  1.00  0.00    -0.378 C  
HETATM   16  C   UNL     1     -12.479  13.983  69.414  1.00  0.00    -0.108 C  
BRANCH  16  17
HETATM   17  C   UNL     1     -12.612  14.715  70.682  1.00  0.00    -0.419 A  
HETATM   18  C   UNL     1     -11.617  15.565  71.177  1.00  0.00    -0.446 A  
HETATM   19  C   UNL     1     -13.977  15.247  72.624  1.00  0.00    -0.555 A  
HETATM   20  C   UNL     1     -13.802  14.577  71.411  1.00  0.00    -0.441 A  
HETATM   21  C   UNL     1     -12.970  16.071  73.116  1.00  0.00    -0.627 A  
HETATM   22  C   UNL     1     -11.791  16.235  72.391  1.00  0.00    -0.606 A  
ENDBRANCH  16  17
ENDBRANCH  14  15
ENDBRANCH   2  14
TORSDOF 5
ENDMDL
MODEL       86
REMARK 921   NORMALIZED FREE ENERGY PREDICTED BY IDOCK:   -4.94 KCAL/MOL
REMARK 922        TOTAL FREE ENERGY PREDICTED BY IDOCK:   -7.69 KCAL/MOL
REMARK 923 INTER-LIGAND FREE ENERGY PREDICTED BY IDOCK:   -6.50 KCAL/MOL
REMARK 924 INTRA-LIGAND FREE ENERGY PREDICTED BY IDOCK:   -1.18 KCAL/MOL
REMARK 927      BINDING AFFINITY PREDICTED BY RF-SCORE:    0.00 PKD
ROOT
HETATM    1  C   UNL     1     -12.095  13.436  63.523  1.00  0.00    -0.432 C  
HETATM    2  N   UNL     1     -11.205  13.266  64.675  1.00  0.00    -0.332 NA 
ENDROOT
BRANCH   2   3
HETATM    3  C   UNL     1     -11.238  11.878  65.185  1.00  0.00    -0.289 C  
BRANCH   3   4
HETATM    4  C   UNL     1      -9.941  11.106  64.984  1.00  0.00    -0.325 A  
HETATM    5  C   UNL     1      -8.970  10.947  66.017  1.00  0.00    -0.200 A  
HETATM    6  C   UNL     1      -9.701  10.556  63.711  1.00  0.00    -0.385 A  
HETATM    7  C   UNL     1      -9.131  11.438  67.335  1.00  0.00    -0.160 A  
HETATM    8  C   UNL     1      -8.124  11.321  68.295  1.00  0.00    -0.137 A  
HETATM    9  C   UNL     1      -8.516   9.885  63.438  1.00  0.00    -0.182 A  
HETATM   10  C   UNL     1      -6.931  10.692  67.970  1.00  0.00    -0.073 A  
HETATM   11  C   UNL     1      -7.549   9.753  64.432  1.00  0.00    -0.135 A  
HETATM   12  C   UNL     1      -7.756  10.282  65.713  1.00  0.00    -0.143 A  
HETATM   13  C   UNL     1      -6.755  10.163  66.692  1.00  0.00    -0.079 A  
ENDBRANCH   3   4
ENDBRANCH   2   3
BRANCH   2  14
HETATM   14  C   UNL     1     -11.555  14.242  65.716  1.00  0.00    -0.346 C  
BRANCH  14  15
HETATM   15  C   UNL     1     -12.009  13.584  66.988  1.00  0.00    -0.440 C  
HETATM   16  C   UNL     1     -11.520  13.900  68.199  1.00  0.00    -0.346 C  
BRANCH  16  17
HETATM   17  C   UNL     1     -12.015  13.350  69.470  1.00  0.00    -0.377 A  
HETATM   18  C   UNL     1     -12.569  14.147  70.478  1.00  0.00    -0.410 A  
HETATM   19  C   UNL     1     -12.407  11.391  70.858  1.00  0.00    -0.483 A  
HETATM   20  C   UNL     1     -11.954  11.963  69.667  1.00  0.00    -0.365 A  
HETATM   21  C   UNL     1     -12.934  12.197  71.862  1.00  0.00    -0.419 A  
HETATM   22  C   UNL     1     -13.021  13.575  71.671  1.00  0.00    -0.447 A  
ENDBRANCH  16  17
ENDBRANCH  14  15
ENDBRANCH   2  14
TORSDOF 5
ENDMDL
MODEL       87
REMARK 921   NORMALIZED FREE ENERGY PREDICTED BY IDOCK:   -4.92 KCAL/MOL
REMARK 922        TOTAL FREE ENERGY PREDICTED BY IDOCK:   -7.66 KCAL/MOL
REMARK 923 INTER-LIGAND FREE ENERGY PREDICTED BY IDOCK:   -7.29 KCAL/MOL
REMARK 924 INTRA-LIGAND FREE ENERGY PREDICTED BY IDOCK:   -0.37 KCAL/MOL
REMARK 927      BINDING AFFINITY PREDICTED BY RF-SCORE:    0.00 PKD
ROOT
HETATM    1  C   UNL     1     -12.521  12.358  64.190  1.00  0.00    -0.442 C  
HETATM    2  N   UNL     1     -11.546  13.452  64.157  1.00  0.00    -0.396 NA 
ENDROOT
BRANCH   2   3
HETATM    3  C   UNL     1     -10.374  13.158  65.012  1.00  0.00    -0.330 C  
BRANCH   3   4
HETATM    4  C   UNL     1     -10.699  12.353  66.263  1.00  0.00    -0.287 A  
HETATM    5  C   UNL     1     -10.348  10.978  66.409  1.00  0.00    -0.302 A  
HETATM    6  C   UNL     1     -11.397  13.009  67.296  1.00  0.00    -0.348 A  
HETATM    7  C   UNL     1      -9.624  10.241  65.442  1.00  0.00    -0.310 A  
HETATM    8  C   UNL     1      -9.364   8.877  65.595  1.00  0.00    -0.259 A  
HETATM    9  C   UNL     1     -11.773  12.325  68.444  1.00  0.00    -0.390 A  
HETATM   10  C   UNL     1      -9.804   8.215  66.732  1.00  0.00    -0.329 A  
HETATM   11  C   UNL     1     -11.462  10.975  68.581  1.00  0.00    -0.375 A  
HETATM   12  C   UNL     1     -10.763  10.291  67.577  1.00  0.00    -0.348 A  
HETATM   13  C   UNL     1     -10.486   8.921  67.722  1.00  0.00    -0.300 A  
ENDBRANCH   3   4
ENDBRANCH   2   3
BRANCH   2  14
HETATM   14  C   UNL     1     -12.203  14.710  64.540  1.00  0.00    -0.456 C  
BRANCH  14  15
HETATM   15  C   UNL     1     -11.224  15.833  64.728  1.00  0.00    -0.375 C  
HETATM   16  C   UNL     1     -11.153  16.574  65.847  1.00  0.00     0.171 C  
BRANCH  16  17
HETATM   17  C   UNL     1     -10.142  17.609  66.102  1.00  0.00    -0.307 A  
HETATM   18  C   UNL     1     -10.421  18.979  66.031  1.00  0.00    -0.530 A  
HETATM   19  C   UNL     1      -7.849  18.150  66.711  1.00  0.00    -0.257 A  
HETATM   20  C   UNL     1      -8.848  17.205  66.462  1.00  0.00    -0.293 A  
HETATM   21  C   UNL     1      -8.135  19.508  66.614  1.00  0.00    -0.324 A  
HETATM   22  C   UNL     1      -9.422  19.924  66.279  1.00  0.00    -0.505 A  
ENDBRANCH  16  17
ENDBRANCH  14  15
ENDBRANCH   2  14
TORSDOF 5
ENDMDL
MODEL       88
REMARK 921   NORMALIZED FREE ENERGY PREDICTED BY IDOCK:   -4.90 KCAL/MOL
REMARK 922        TOTAL FREE ENERGY PREDICTED BY IDOCK:   -7.64 KCAL/MOL
REMARK 923 INTER-LIGAND FREE ENERGY PREDICTED BY IDOCK:   -6.35 KCAL/MOL
REMARK 924 INTRA-LIGAND FREE ENERGY PREDICTED BY IDOCK:   -1.29 KCAL/MOL
REMARK 927      BINDING AFFINITY PREDICTED BY RF-SCORE:    0.00 PKD
ROOT
HETATM    1  C   UNL     1     -14.407   7.281  71.619  1.00  0.00    -0.421 C  
HETATM    2  N   UNL     1     -13.079   7.895  71.523  1.00  0.00    -0.330 NA 
ENDROOT
BRANCH   2   3
HETATM    3  C   UNL     1     -12.009   6.920  71.828  1.00  0.00    -0.333 C  
BRANCH   3   4
HETATM    4  C   UNL     1     -10.660   7.256  71.205  1.00  0.00    -0.236 A  
HETATM    5  C   UNL     1      -9.502   7.548  71.984  1.00  0.00    -0.174 A  
HETATM    6  C   UNL     1     -10.585   7.297  69.800  1.00  0.00    -0.247 A  
HETATM    7  C   UNL     1      -9.469   7.506  73.398  1.00  0.00    -0.306 A  
HETATM    8  C   UNL     1      -8.331   7.869  74.122  1.00  0.00    -0.312 A  
HETATM    9  C   UNL     1      -9.403   7.647  69.161  1.00  0.00    -0.147 A  
HETATM   10  C   UNL     1      -7.184   8.266  73.450  1.00  0.00    -0.157 A  
HETATM   11  C   UNL     1      -8.276   7.964  69.914  1.00  0.00    -0.120 A  
HETATM   12  C   UNL     1      -8.311   7.928  71.315  1.00  0.00    -0.120 A  
HETATM   13  C   UNL     1      -7.171   8.281  72.056  1.00  0.00    -0.106 A  
ENDBRANCH   3   4
ENDBRANCH   2   3
BRANCH   2  14
HETATM   14  C   UNL     1     -13.016   9.073  72.400  1.00  0.00    -0.405 C  
BRANCH  14  15
HETATM   15  C   UNL     1     -12.553  10.304  71.673  1.00  0.00    -0.534 C  
HETATM   16  C   UNL     1     -12.534  10.408  70.334  1.00  0.00    -0.348 C  
BRANCH  16  17
HETATM   17  C   UNL     1     -12.185  11.631  69.595  1.00  0.00    -0.271 A  
HETATM   18  C   UNL     1     -11.675  11.612  68.292  1.00  0.00    -0.374 A  
HETATM   19  C   UNL     1     -12.083  14.061  69.557  1.00  0.00    -0.397 A  
HETATM   20  C   UNL     1     -12.401  12.870  70.215  1.00  0.00    -0.294 A  
HETATM   21  C   UNL     1     -11.555  14.027  68.271  1.00  0.00    -0.364 A  
HETATM   22  C   UNL     1     -11.355  12.803  67.635  1.00  0.00    -0.359 A  
ENDBRANCH  16  17
ENDBRANCH  14  15
ENDBRANCH   2  14
TORSDOF 5
ENDMDL
MODEL       89
REMARK 921   NORMALIZED FREE ENERGY PREDICTED BY IDOCK:   -4.89 KCAL/MOL
REMARK 922        TOTAL FREE ENERGY PREDICTED BY IDOCK:   -7.63 KCAL/MOL
REMARK 923 INTER-LIGAND FREE ENERGY PREDICTED BY IDOCK:   -7.63 KCAL/MOL
REMARK 924 INTRA-LIGAND FREE ENERGY PREDICTED BY IDOCK:   -0.00 KCAL/MOL
REMARK 927      BINDING AFFINITY PREDICTED BY RF-SCORE:    0.00 PKD
ROOT
HETATM    1  C   UNL     1      -9.922  14.158  67.446  1.00  0.00    -0.240 C  
HETATM    2  N   UNL     1     -11.101  14.688  66.754  1.00  0.00    -0.328 NA 
ENDROOT
BRANCH   2   3
HETATM    3  C   UNL     1     -11.980  13.599  66.271  1.00  0.00    -0.423 C  
BRANCH   3   4
HETATM    4  C   UNL     1     -11.257  12.513  65.486  1.00  0.00    -0.349 A  
HETATM    5  C   UNL     1     -10.871  11.269  66.066  1.00  0.00    -0.273 A  
HETATM    6  C   UNL     1     -10.946  12.782  64.139  1.00  0.00    -0.435 A  
HETATM    7  C   UNL     1     -11.162  10.894  67.399  1.00  0.00    -0.345 A  
HETATM    8  C   UNL     1     -10.702   9.694  67.947  1.00  0.00    -0.302 A  
HETATM    9  C   UNL     1     -10.241  11.861  63.375  1.00  0.00    -0.478 A  
HETATM   10  C   UNL     1      -9.954   8.823  67.168  1.00  0.00    -0.295 A  
HETATM   11  C   UNL     1      -9.833  10.657  63.942  1.00  0.00    -0.398 A  
HETATM   12  C   UNL     1     -10.130  10.352  65.278  1.00  0.00    -0.370 A  
HETATM   13  C   UNL     1      -9.683   9.144  65.839  1.00  0.00    -0.336 A  
ENDBRANCH   3   4
ENDBRANCH   2   3
BRANCH   2  14
HETATM   14  C   UNL     1     -10.674  15.574  65.662  1.00  0.00    -0.366 C  
BRANCH  14  15
HETATM   15  C   UNL     1      -9.584  16.518  66.085  1.00  0.00    -0.344 C  
HETATM   16  C   UNL     1      -9.817  17.754  66.557  1.00  0.00    -0.331 C  
BRANCH  16  17
HETATM   17  C   UNL     1      -8.782  18.661  67.074  1.00  0.00    -0.285 A  
HETATM   18  C   UNL     1      -8.238  18.541  68.357  1.00  0.00    -0.351 A  
HETATM   19  C   UNL     1      -7.320  20.565  66.676  1.00  0.00    -0.288 A  
HETATM   20  C   UNL     1      -8.300  19.673  66.231  1.00  0.00    -0.372 A  
HETATM   21  C   UNL     1      -6.804  20.447  67.962  1.00  0.00    -0.331 A  
HETATM   22  C   UNL     1      -7.258  19.433  68.802  1.00  0.00    -0.390 A  
ENDBRANCH  16  17
ENDBRANCH  14  15
ENDBRANCH   2  14
TORSDOF 5
ENDMDL
MODEL       90
REMARK 921   NORMALIZED FREE ENERGY PREDICTED BY IDOCK:   -4.89 KCAL/MOL
REMARK 922        TOTAL FREE ENERGY PREDICTED BY IDOCK:   -7.63 KCAL/MOL
REMARK 923 INTER-LIGAND FREE ENERGY PREDICTED BY IDOCK:   -7.18 KCAL/MOL
REMARK 924 INTRA-LIGAND FREE ENERGY PREDICTED BY IDOCK:   -0.44 KCAL/MOL
REMARK 927      BINDING AFFINITY PREDICTED BY RF-SCORE:    0.00 PKD
ROOT
HETATM    1  C   UNL     1     -10.428   8.883  71.757  1.00  0.00    -0.360 C  
HETATM    2  N   UNL     1     -11.800   8.547  72.151  1.00  0.00    -0.358 NA 
ENDROOT
BRANCH   2   3
HETATM    3  C   UNL     1     -12.305   7.373  71.405  1.00  0.00    -0.361 C  
BRANCH   3   4
HETATM    4  C   UNL     1     -11.398   6.151  71.474  1.00  0.00    -0.340 A  
HETATM    5  C   UNL     1     -10.748   5.608  70.327  1.00  0.00    -0.364 A  
HETATM    6  C   UNL     1     -11.230   5.536  72.729  1.00  0.00    -0.358 A  
HETATM    7  C   UNL     1     -10.832   6.170  69.030  1.00  0.00    -0.416 A  
HETATM    8  C   UNL     1     -10.236   5.563  67.922  1.00  0.00    -0.231 A  
HETATM    9  C   UNL     1     -10.461   4.387  72.859  1.00  0.00    -0.253 A  
HETATM   10  C   UNL     1      -9.520   4.386  68.082  1.00  0.00    -0.207 A  
HETATM   11  C   UNL     1      -9.848   3.831  71.739  1.00  0.00    -0.244 A  
HETATM   12  C   UNL     1      -9.988   4.420  70.474  1.00  0.00    -0.256 A  
HETATM   13  C   UNL     1      -9.385   3.827  69.352  1.00  0.00    -0.245 A  
ENDBRANCH   3   4
ENDBRANCH   2   3
BRANCH   2  14
HETATM   14  C   UNL     1     -12.665   9.722  71.977  1.00  0.00    -0.376 C  
BRANCH  14  15
HETATM   15  C   UNL     1     -12.059  10.748  71.061  1.00  0.00    -0.452 C  
HETATM   16  C   UNL     1     -12.374  10.856  69.760  1.00  0.00    -0.326 C  
BRANCH  16  17
HETATM   17  C   UNL     1     -11.878  11.911  68.863  1.00  0.00    -0.366 A  
HETATM   18  C   UNL     1     -11.534  11.674  67.528  1.00  0.00    -0.360 A  
HETATM   19  C   UNL     1     -11.305  14.255  68.553  1.00  0.00    -0.309 A  
HETATM   20  C   UNL     1     -11.774  13.217  69.363  1.00  0.00    -0.383 A  
HETATM   21  C   UNL     1     -10.944  14.001  67.234  1.00  0.00    -0.303 A  
HETATM   22  C   UNL     1     -11.063  12.712  66.719  1.00  0.00    -0.318 A  
ENDBRANCH  16  17
ENDBRANCH  14  15
ENDBRANCH   2  14
TORSDOF 5
ENDMDL
MODEL       91
REMARK 921   NORMALIZED FREE ENERGY PREDICTED BY IDOCK:   -4.89 KCAL/MOL
REMARK 922        TOTAL FREE ENERGY PREDICTED BY IDOCK:   -7.62 KCAL/MOL
REMARK 923 INTER-LIGAND FREE ENERGY PREDICTED BY IDOCK:   -7.23 KCAL/MOL
REMARK 924 INTRA-LIGAND FREE ENERGY PREDICTED BY IDOCK:   -0.39 KCAL/MOL
REMARK 927      BINDING AFFINITY PREDICTED BY RF-SCORE:    0.00 PKD
ROOT
HETATM    1  C   UNL     1     -12.119  13.490  66.756  1.00  0.00    -0.375 C  
HETATM    2  N   UNL     1     -11.469  13.825  68.027  1.00  0.00    -0.291 NA 
ENDROOT
BRANCH   2   3
HETATM    3  C   UNL     1     -12.007  13.013  69.140  1.00  0.00    -0.271 C  
BRANCH   3   4
HETATM    4  C   UNL     1     -11.217  11.742  69.426  1.00  0.00    -0.300 A  
HETATM    5  C   UNL     1     -11.668  10.742  70.337  1.00  0.00    -0.445 A  
HETATM    6  C   UNL     1      -9.981  11.584  68.771  1.00  0.00    -0.169 A  
HETATM    7  C   UNL     1     -12.906  10.796  71.021  1.00  0.00    -0.480 A  
HETATM    8  C   UNL     1     -13.276   9.828  71.957  1.00  0.00    -0.557 A  
HETATM    9  C   UNL     1      -9.180  10.477  69.023  1.00  0.00    -0.193 A  
HETATM   10  C   UNL     1     -12.425   8.765  72.223  1.00  0.00    -0.455 A  
HETATM   11  C   UNL     1      -9.599   9.511  69.934  1.00  0.00    -0.250 A  
HETATM   12  C   UNL     1     -10.826   9.632  70.600  1.00  0.00    -0.386 A  
HETATM   13  C   UNL     1     -11.216   8.661  71.537  1.00  0.00    -0.360 A  
ENDBRANCH   3   4
ENDBRANCH   2   3
BRANCH   2  14
HETATM   14  C   UNL     1     -11.602  15.266  68.284  1.00  0.00    -0.341 C  
BRANCH  14  15
HETATM   15  C   UNL     1     -10.312  16.006  68.070  1.00  0.00    -0.266 C  
HETATM   16  C   UNL     1     -10.249  17.253  67.572  1.00  0.00    -0.328 C  
BRANCH  16  17
HETATM   17  C   UNL     1      -9.015  18.042  67.447  1.00  0.00    -0.246 A  
HETATM   18  C   UNL     1      -8.160  17.947  66.343  1.00  0.00    -0.296 A  
HETATM   19  C   UNL     1      -7.534  19.723  68.397  1.00  0.00    -0.349 A  
HETATM   20  C   UNL     1      -8.698  18.952  68.465  1.00  0.00    -0.382 A  
HETATM   21  C   UNL     1      -6.681  19.601  67.304  1.00  0.00    -0.226 A  
HETATM   22  C   UNL     1      -6.996  18.717  66.275  1.00  0.00    -0.267 A  
ENDBRANCH  16  17
ENDBRANCH  14  15
ENDBRANCH   2  14
TORSDOF 5
ENDMDL
MODEL       92
REMARK 921   NORMALIZED FREE ENERGY PREDICTED BY IDOCK:   -4.88 KCAL/MOL
REMARK 922        TOTAL FREE ENERGY PREDICTED BY IDOCK:   -7.61 KCAL/MOL
REMARK 923 INTER-LIGAND FREE ENERGY PREDICTED BY IDOCK:   -6.94 KCAL/MOL
REMARK 924 INTRA-LIGAND FREE ENERGY PREDICTED BY IDOCK:   -0.67 KCAL/MOL
REMARK 927      BINDING AFFINITY PREDICTED BY RF-SCORE:    0.00 PKD
ROOT
HETATM    1  C   UNL     1     -12.805  13.723  65.354  1.00  0.00    -0.410 C  
HETATM    2  N   UNL     1     -11.456  13.852  65.912  1.00  0.00    -0.318 NA 
ENDROOT
BRANCH   2   3
HETATM    3  C   UNL     1     -10.631  14.792  65.122  1.00  0.00    -0.417 C  
BRANCH   3   4
HETATM    4  C   UNL     1     -10.174  16.024  65.893  1.00  0.00    -0.386 A  
HETATM    5  C   UNL     1      -9.191  15.968  66.925  1.00  0.00    -0.244 A  
HETATM    6  C   UNL     1     -10.780  17.254  65.572  1.00  0.00    -0.105 A  
HETATM    7  C   UNL     1      -8.507  14.787  67.301  1.00  0.00    -0.234 A  
HETATM    8  C   UNL     1      -7.603  14.765  68.366  1.00  0.00    -0.116 A  
HETATM    9  C   UNL     1     -10.453  18.410  66.268  1.00  0.00    -0.421 A  
HETATM   10  C   UNL     1      -7.343  15.929  69.074  1.00  0.00    -0.185 A  
HETATM   11  C   UNL     1      -9.518  18.358  67.298  1.00  0.00    -0.279 A  
HETATM   12  C   UNL     1      -8.890  17.153  67.642  1.00  0.00    -0.218 A  
HETATM   13  C   UNL     1      -7.971  17.117  68.704  1.00  0.00    -0.265 A  
ENDBRANCH   3   4
ENDBRANCH   2   3
BRANCH   2  14
HETATM   14  C   UNL     1     -10.834  12.524  66.010  1.00  0.00    -0.276 C  
BRANCH  14  15
HETATM   15  C   UNL     1     -11.378  11.721  67.158  1.00  0.00    -0.387 C  
HETATM   16  C   UNL     1     -10.899  11.804  68.411  1.00  0.00    -0.260 C  
BRANCH  16  17
HETATM   17  C   UNL     1     -11.473  11.111  69.574  1.00  0.00    -0.374 A  
HETATM   18  C   UNL     1     -12.359  11.728  70.464  1.00  0.00    -0.387 A  
HETATM   19  C   UNL     1     -11.656   9.062  70.873  1.00  0.00    -0.344 A  
HETATM   20  C   UNL     1     -11.140   9.765  69.781  1.00  0.00    -0.272 A  
HETATM   21  C   UNL     1     -12.517   9.695  71.764  1.00  0.00    -0.487 A  
HETATM   22  C   UNL     1     -12.873  11.026  71.558  1.00  0.00    -0.555 A  
ENDBRANCH  16  17
ENDBRANCH  14  15
ENDBRANCH   2  14
TORSDOF 5
ENDMDL
MODEL       93
REMARK 921   NORMALIZED FREE ENERGY PREDICTED BY IDOCK:   -4.87 KCAL/MOL
REMARK 922        TOTAL FREE ENERGY PREDICTED BY IDOCK:   -7.60 KCAL/MOL
REMARK 923 INTER-LIGAND FREE ENERGY PREDICTED BY IDOCK:   -6.88 KCAL/MOL
REMARK 924 INTRA-LIGAND FREE ENERGY PREDICTED BY IDOCK:   -0.72 KCAL/MOL
REMARK 927      BINDING AFFINITY PREDICTED BY RF-SCORE:    0.00 PKD
ROOT
HETATM    1  C   UNL     1     -14.194   8.903  72.085  1.00  0.00    -0.388 C  
HETATM    2  N   UNL     1     -12.897   8.686  71.436  1.00  0.00    -0.297 NA 
ENDROOT
BRANCH   2   3
HETATM    3  C   UNL     1     -11.818   8.499  72.432  1.00  0.00    -0.367 C  
BRANCH   3   4
HETATM    4  C   UNL     1     -10.834   7.389  72.086  1.00  0.00    -0.273 A  
HETATM    5  C   UNL     1      -9.587   7.638  71.439  1.00  0.00    -0.178 A  
HETATM    6  C   UNL     1     -11.203   6.069  72.406  1.00  0.00    -0.338 A  
HETATM    7  C   UNL     1      -9.115   8.929  71.103  1.00  0.00    -0.315 A  
HETATM    8  C   UNL     1      -7.920   9.121  70.406  1.00  0.00    -0.155 A  
HETATM    9  C   UNL     1     -10.380   5.001  72.074  1.00  0.00    -0.276 A  
HETATM   10  C   UNL     1      -7.151   8.025  70.043  1.00  0.00    -0.049 A  
HETATM   11  C   UNL     1      -9.176   5.232  71.414  1.00  0.00    -0.176 A  
HETATM   12  C   UNL     1      -8.773   6.533  71.085  1.00  0.00    -0.138 A  
HETATM   13  C   UNL     1      -7.568   6.741  70.393  1.00  0.00    -0.095 A  
ENDBRANCH   3   4
ENDBRANCH   2   3
BRANCH   2  14
HETATM   14  C   UNL     1     -12.612   9.800  70.521  1.00  0.00    -0.024 C  
BRANCH  14  15
HETATM   15  C   UNL     1     -12.524  11.119  71.234  1.00  0.00    -0.466 C  
HETATM   16  C   UNL     1     -12.520  12.304  70.600  1.00  0.00    -0.323 C  
BRANCH  16  17
HETATM   17  C   UNL     1     -12.539  13.612  71.272  1.00  0.00    -0.435 A  
HETATM   18  C   UNL     1     -11.718  14.677  70.884  1.00  0.00    -0.335 A  
HETATM   19  C   UNL     1     -13.495  15.031  73.001  1.00  0.00    -0.520 A  
HETATM   20  C   UNL     1     -13.441  13.808  72.327  1.00  0.00    -0.638 A  
HETATM   21  C   UNL     1     -12.656  16.074  72.620  1.00  0.00    -0.551 A  
HETATM   22  C   UNL     1     -11.771  15.900  71.558  1.00  0.00    -0.545 A  
ENDBRANCH  16  17
ENDBRANCH  14  15
ENDBRANCH   2  14
TORSDOF 5
ENDMDL
MODEL       94
REMARK 921   NORMALIZED FREE ENERGY PREDICTED BY IDOCK:   -4.87 KCAL/MOL
REMARK 922        TOTAL FREE ENERGY PREDICTED BY IDOCK:   -7.60 KCAL/MOL
REMARK 923 INTER-LIGAND FREE ENERGY PREDICTED BY IDOCK:   -6.69 KCAL/MOL
REMARK 924 INTRA-LIGAND FREE ENERGY PREDICTED BY IDOCK:   -0.91 KCAL/MOL
REMARK 927      BINDING AFFINITY PREDICTED BY RF-SCORE:    0.00 PKD
ROOT
HETATM    1  C   UNL     1      -7.174   8.935  70.652  1.00  0.00    -0.075 C  
HETATM    2  N   UNL     1      -8.291   9.673  70.054  1.00  0.00    -0.168 NA 
ENDROOT
BRANCH   2   3
HETATM    3  C   UNL     1      -9.152   8.786  69.242  1.00  0.00    -0.145 C  
BRANCH   3   4
HETATM    4  C   UNL     1     -10.306   8.156  70.012  1.00  0.00    -0.215 A  
HETATM    5  C   UNL     1     -11.343   8.928  70.615  1.00  0.00    -0.299 A  
HETATM    6  C   UNL     1     -10.314   6.754  70.141  1.00  0.00    -0.228 A  
HETATM    7  C   UNL     1     -11.438  10.337  70.517  1.00  0.00    -0.427 A  
HETATM    8  C   UNL     1     -12.432  11.058  71.183  1.00  0.00    -0.502 A  
HETATM    9  C   UNL     1     -11.304   6.114  70.874  1.00  0.00    -0.355 A  
HETATM   10  C   UNL     1     -13.372  10.388  71.951  1.00  0.00    -0.469 A  
HETATM   11  C   UNL     1     -12.302   6.862  71.493  1.00  0.00    -0.420 A  
HETATM   12  C   UNL     1     -12.331   8.259  71.380  1.00  0.00    -0.326 A  
HETATM   13  C   UNL     1     -13.330   8.997  72.037  1.00  0.00    -0.494 A  
ENDBRANCH   3   4
ENDBRANCH   2   3
BRANCH   2  14
HETATM   14  C   UNL     1      -7.772  10.803  69.271  1.00  0.00    -0.129 C  
BRANCH  14  15
HETATM   15  C   UNL     1      -8.741  11.262  68.218  1.00  0.00    -0.158 C  
HETATM   16  C   UNL     1      -9.324  12.472  68.226  1.00  0.00    -0.193 C  
BRANCH  16  17
HETATM   17  C   UNL     1     -10.193  12.989  67.159  1.00  0.00    -0.243 A  
HETATM   18  C   UNL     1     -11.209  12.228  66.570  1.00  0.00    -0.373 A  
HETATM   19  C   UNL     1     -10.812  14.852  65.722  1.00  0.00    -0.343 A  
HETATM   20  C   UNL     1     -10.014  14.314  66.735  1.00  0.00    -0.266 A  
HETATM   21  C   UNL     1     -11.803  14.076  65.129  1.00  0.00    -0.370 A  
HETATM   22  C   UNL     1     -12.006  12.766  65.556  1.00  0.00    -0.497 A  
ENDBRANCH  16  17
ENDBRANCH  14  15
ENDBRANCH   2  14
TORSDOF 5
ENDMDL
MODEL       95
REMARK 921   NORMALIZED FREE ENERGY PREDICTED BY IDOCK:   -4.87 KCAL/MOL
REMARK 922        TOTAL FREE ENERGY PREDICTED BY IDOCK:   -7.60 KCAL/MOL
REMARK 923 INTER-LIGAND FREE ENERGY PREDICTED BY IDOCK:   -7.25 KCAL/MOL
REMARK 924 INTRA-LIGAND FREE ENERGY PREDICTED BY IDOCK:   -0.35 KCAL/MOL
REMARK 927      BINDING AFFINITY PREDICTED BY RF-SCORE:    0.00 PKD
ROOT
HETATM    1  C   UNL     1     -12.192  10.221  71.298  1.00  0.00    -0.395 C  
HETATM    2  N   UNL     1     -11.289  10.704  70.249  1.00  0.00    -0.316 NA 
ENDROOT
BRANCH   2   3
HETATM    3  C   UNL     1     -12.037  11.123  69.042  1.00  0.00    -0.246 C  
BRANCH   3   4
HETATM    4  C   UNL     1     -11.904  12.602  68.706  1.00  0.00    -0.341 A  
HETATM    5  C   UNL     1     -11.706  13.077  67.376  1.00  0.00    -0.427 A  
HETATM    6  C   UNL     1     -11.958  13.519  69.774  1.00  0.00    -0.405 A  
HETATM    7  C   UNL     1     -11.666  12.239  66.236  1.00  0.00    -0.431 A  
HETATM    8  C   UNL     1     -11.399  12.739  64.960  1.00  0.00    -0.344 A  
HETATM    9  C   UNL     1     -11.792  14.879  69.550  1.00  0.00    -0.360 A  
HETATM   10  C   UNL     1     -11.184  14.098  64.784  1.00  0.00    -0.379 A  
HETATM   11  C   UNL     1     -11.566  15.348  68.259  1.00  0.00    -0.361 A  
HETATM   12  C   UNL     1     -11.513  14.466  67.171  1.00  0.00    -0.379 A  
HETATM   13  C   UNL     1     -11.255  14.957  65.880  1.00  0.00    -0.328 A  
ENDBRANCH   3   4
ENDBRANCH   2   3
BRANCH   2  14
HETATM   14  C   UNL     1     -10.290   9.671  69.945  1.00  0.00    -0.249 C  
BRANCH  14  15
HETATM   15  C   UNL     1     -10.399   8.483  70.858  1.00  0.00    -0.245 C  
HETATM   16  C   UNL     1     -10.598   7.228  70.420  1.00  0.00    -0.240 C  
BRANCH  16  17
HETATM   17  C   UNL     1     -10.606   6.034  71.277  1.00  0.00    -0.302 A  
HETATM   18  C   UNL     1     -11.392   5.931  72.430  1.00  0.00    -0.358 A  
HETATM   19  C   UNL     1      -9.783   3.781  71.686  1.00  0.00    -0.239 A  
HETATM   20  C   UNL     1      -9.813   4.939  70.904  1.00  0.00    -0.277 A  
HETATM   21  C   UNL     1     -10.551   3.702  72.843  1.00  0.00    -0.225 A  
HETATM   22  C   UNL     1     -11.360   4.774  73.213  1.00  0.00    -0.408 A  
ENDBRANCH  16  17
ENDBRANCH  14  15
ENDBRANCH   2  14
TORSDOF 5
ENDMDL
MODEL       96
REMARK 921   NORMALIZED FREE ENERGY PREDICTED BY IDOCK:   -4.86 KCAL/MOL
REMARK 922        TOTAL FREE ENERGY PREDICTED BY IDOCK:   -7.59 KCAL/MOL
REMARK 923 INTER-LIGAND FREE ENERGY PREDICTED BY IDOCK:   -7.02 KCAL/MOL
REMARK 924 INTRA-LIGAND FREE ENERGY PREDICTED BY IDOCK:   -0.57 KCAL/MOL
REMARK 927      BINDING AFFINITY PREDICTED BY RF-SCORE:    0.00 PKD
ROOT
HETATM    1  C   UNL     1     -12.469  13.063  70.641  1.00  0.00    -0.268 C  
HETATM    2  N   UNL     1     -12.338  11.607  70.527  1.00  0.00    -0.341 NA 
ENDROOT
BRANCH   2   3
HETATM    3  C   UNL     1     -12.348  10.958  71.856  1.00  0.00     0.182 C  
BRANCH   3   4
HETATM    4  C   UNL     1     -12.628   9.461  71.820  1.00  0.00    -0.470 A  
HETATM    5  C   UNL     1     -11.609   8.481  72.006  1.00  0.00    -0.432 A  
HETATM    6  C   UNL     1     -13.951   9.052  71.565  1.00  0.00    -0.336 A  
HETATM    7  C   UNL     1     -10.258   8.791  72.295  1.00  0.00    -0.310 A  
HETATM    8  C   UNL     1      -9.279   7.800  72.400  1.00  0.00    -0.218 A  
HETATM    9  C   UNL     1     -14.271   7.705  71.464  1.00  0.00    -0.564 A  
HETATM   10  C   UNL     1      -9.627   6.467  72.239  1.00  0.00    -0.149 A  
HETATM   11  C   UNL     1     -13.277   6.742  71.614  1.00  0.00    -0.235 A  
HETATM   12  C   UNL     1     -11.950   7.111  71.875  1.00  0.00    -0.343 A  
HETATM   13  C   UNL     1     -10.956   6.125  71.992  1.00  0.00    -0.305 A  
ENDBRANCH   3   4
ENDBRANCH   2   3
BRANCH   2  14
HETATM   14  C   UNL     1     -11.126  11.279  69.764  1.00  0.00    -0.167 C  
BRANCH  14  15
HETATM   15  C   UNL     1     -11.145  11.864  68.380  1.00  0.00    -0.292 C  
HETATM   16  C   UNL     1     -11.274  11.124  67.266  1.00  0.00    -0.347 C  
BRANCH  16  17
HETATM   17  C   UNL     1     -11.400  11.672  65.908  1.00  0.00    -0.262 A  
HETATM   18  C   UNL     1     -12.325  12.666  65.571  1.00  0.00    -0.455 A  
HETATM   19  C   UNL     1     -10.613  11.682  63.605  1.00  0.00    -0.493 A  
HETATM   20  C   UNL     1     -10.533  11.197  64.913  1.00  0.00    -0.372 A  
HETATM   21  C   UNL     1     -11.554  12.654  63.280  1.00  0.00    -0.419 A  
HETATM   22  C   UNL     1     -12.407  13.151  64.263  1.00  0.00    -0.421 A  
ENDBRANCH  16  17
ENDBRANCH  14  15
ENDBRANCH   2  14
TORSDOF 5
ENDMDL
MODEL       97
REMARK 921   NORMALIZED FREE ENERGY PREDICTED BY IDOCK:   -4.85 KCAL/MOL
REMARK 922        TOTAL FREE ENERGY PREDICTED BY IDOCK:   -7.58 KCAL/MOL
REMARK 923 INTER-LIGAND FREE ENERGY PREDICTED BY IDOCK:   -6.68 KCAL/MOL
REMARK 924 INTRA-LIGAND FREE ENERGY PREDICTED BY IDOCK:   -0.90 KCAL/MOL
REMARK 927      BINDING AFFINITY PREDICTED BY RF-SCORE:    0.00 PKD
ROOT
HETATM    1  C   UNL     1     -11.769  14.856  71.112  1.00  0.00    -0.327 C  
HETATM    2  N   UNL     1     -11.180  15.314  69.850  1.00  0.00    -0.267 NA 
ENDROOT
BRANCH   2   3
HETATM    3  C   UNL     1     -10.695  16.707  69.954  1.00  0.00    -0.202 C  
BRANCH   3   4
HETATM    4  C   UNL     1     -10.029  17.234  68.689  1.00  0.00    -0.327 A  
HETATM    5  C   UNL     1      -8.754  16.779  68.242  1.00  0.00    -0.227 A  
HETATM    6  C   UNL     1     -10.710  18.229  67.962  1.00  0.00    -0.290 A  
HETATM    7  C   UNL     1      -8.005  15.766  68.886  1.00  0.00    -0.197 A  
HETATM    8  C   UNL     1      -6.729  15.401  68.453  1.00  0.00    -0.116 A  
HETATM    9  C   UNL     1     -10.142  18.795  66.829  1.00  0.00    -0.409 A  
HETATM   10  C   UNL     1      -6.170  16.027  67.348  1.00  0.00    -0.191 A  
HETATM   11  C   UNL     1      -8.884  18.379  66.402  1.00  0.00    -0.262 A  
HETATM   12  C   UNL     1      -8.179  17.387  67.097  1.00  0.00    -0.229 A  
HETATM   13  C   UNL     1      -6.897  17.003  66.667  1.00  0.00    -0.279 A  
ENDBRANCH   3   4
ENDBRANCH   2   3
BRANCH   2  14
HETATM   14  C   UNL     1     -12.156  15.152  68.764  1.00  0.00    -0.165 C  
BRANCH  14  15
HETATM   15  C   UNL     1     -11.799  14.024  67.837  1.00  0.00    -0.411 C  
HETATM   16  C   UNL     1     -11.798  14.139  66.499  1.00  0.00    -0.439 C  
BRANCH  16  17
HETATM   17  C   UNL     1     -11.355  13.089  65.569  1.00  0.00    -0.330 A  
HETATM   18  C   UNL     1     -11.424  13.227  64.178  1.00  0.00    -0.438 A  
HETATM   19  C   UNL     1     -10.382  10.881  65.261  1.00  0.00    -0.334 A  
HETATM   20  C   UNL     1     -10.813  11.911  66.102  1.00  0.00    -0.334 A  
HETATM   21  C   UNL     1     -10.477  11.022  63.881  1.00  0.00    -0.422 A  
HETATM   22  C   UNL     1     -10.993  12.197  63.338  1.00  0.00    -0.480 A  
ENDBRANCH  16  17
ENDBRANCH  14  15
ENDBRANCH   2  14
TORSDOF 5
ENDMDL
MODEL       98
REMARK 921   NORMALIZED FREE ENERGY PREDICTED BY IDOCK:   -4.85 KCAL/MOL
REMARK 922        TOTAL FREE ENERGY PREDICTED BY IDOCK:   -7.57 KCAL/MOL
REMARK 923 INTER-LIGAND FREE ENERGY PREDICTED BY IDOCK:   -6.33 KCAL/MOL
REMARK 924 INTRA-LIGAND FREE ENERGY PREDICTED BY IDOCK:   -1.24 KCAL/MOL
REMARK 927      BINDING AFFINITY PREDICTED BY RF-SCORE:    0.00 PKD
ROOT
HETATM    1  C   UNL     1     -13.360  12.236  72.077  1.00  0.00    -0.386 C  
HETATM    2  N   UNL     1     -12.721  11.062  71.476  1.00  0.00    -0.421 NA 
ENDROOT
BRANCH   2   3
HETATM    3  C   UNL     1     -12.880  11.052  70.006  1.00  0.00     0.013 C  
BRANCH   3   4
HETATM    4  C   UNL     1     -11.746  11.731  69.249  1.00  0.00    -0.398 A  
HETATM    5  C   UNL     1     -10.540  11.056  68.897  1.00  0.00    -0.239 A  
HETATM    6  C   UNL     1     -11.908  13.089  68.915  1.00  0.00    -0.358 A  
HETATM    7  C   UNL     1     -10.294   9.687  69.163  1.00  0.00    -0.219 A  
HETATM    8  C   UNL     1      -9.070   9.085  68.864  1.00  0.00    -0.140 A  
HETATM    9  C   UNL     1     -10.895  13.789  68.272  1.00  0.00    -0.266 A  
HETATM   10  C   UNL     1      -8.062   9.829  68.271  1.00  0.00    -0.104 A  
HETATM   11  C   UNL     1      -9.702  13.145  67.953  1.00  0.00    -0.221 A  
HETATM   12  C   UNL     1      -9.507  11.792  68.264  1.00  0.00    -0.193 A  
HETATM   13  C   UNL     1      -8.285  11.170  67.960  1.00  0.00    -0.125 A  
ENDBRANCH   3   4
ENDBRANCH   2   3
BRANCH   2  14
HETATM   14  C   UNL     1     -13.253   9.840  72.095  1.00  0.00    -0.436 C  
BRANCH  14  15
HETATM   15  C   UNL     1     -12.284   8.694  72.026  1.00  0.00    -0.439 C  
HETATM   16  C   UNL     1     -12.540   7.547  71.375  1.00  0.00    -0.382 C  
BRANCH  16  17
HETATM   17  C   UNL     1     -11.577   6.450  71.201  1.00  0.00    -0.378 A  
HETATM   18  C   UNL     1     -11.075   5.702  72.272  1.00  0.00    -0.318 A  
HETATM   19  C   UNL     1     -10.249   5.090  69.682  1.00  0.00    -0.306 A  
HETATM   20  C   UNL     1     -11.166   6.121  69.901  1.00  0.00    -0.484 A  
HETATM   21  C   UNL     1      -9.740   4.370  70.758  1.00  0.00    -0.271 A  
HETATM   22  C   UNL     1     -10.156   4.672  72.053  1.00  0.00    -0.262 A  
ENDBRANCH  16  17
ENDBRANCH  14  15
ENDBRANCH   2  14
TORSDOF 5
ENDMDL
MODEL       99
REMARK 921   NORMALIZED FREE ENERGY PREDICTED BY IDOCK:   -4.85 KCAL/MOL
REMARK 922        TOTAL FREE ENERGY PREDICTED BY IDOCK:   -7.57 KCAL/MOL
REMARK 923 INTER-LIGAND FREE ENERGY PREDICTED BY IDOCK:   -7.06 KCAL/MOL
REMARK 924 INTRA-LIGAND FREE ENERGY PREDICTED BY IDOCK:   -0.51 KCAL/MOL
REMARK 927      BINDING AFFINITY PREDICTED BY RF-SCORE:    0.00 PKD
ROOT
HETATM    1  C   UNL     1      -8.250  13.043  68.264  1.00  0.00    -0.150 C  
HETATM    2  N   UNL     1      -9.653  13.120  67.846  1.00  0.00    -0.211 NA 
ENDROOT
BRANCH   2   3
HETATM    3  C   UNL     1     -10.275  11.779  67.787  1.00  0.00    -0.191 C  
BRANCH   3   4
HETATM    4  C   UNL     1     -10.851  11.297  69.112  1.00  0.00    -0.269 A  
HETATM    5  C   UNL     1     -10.473  10.061  69.713  1.00  0.00    -0.291 A  
HETATM    6  C   UNL     1     -11.813  12.113  69.738  1.00  0.00    -0.397 A  
HETATM    7  C   UNL     1      -9.497   9.187  69.177  1.00  0.00    -0.156 A  
HETATM    8  C   UNL     1      -9.210   7.952  69.763  1.00  0.00    -0.150 A  
HETATM    9  C   UNL     1     -12.420  11.714  70.921  1.00  0.00    -0.440 A  
HETATM   10  C   UNL     1      -9.877   7.563  70.915  1.00  0.00    -0.177 A  
HETATM   11  C   UNL     1     -12.081  10.493  71.499  1.00  0.00    -0.316 A  
HETATM   12  C   UNL     1     -11.123   9.658  70.907  1.00  0.00    -0.422 A  
HETATM   13  C   UNL     1     -10.816   8.417  71.490  1.00  0.00    -0.323 A  
ENDBRANCH   3   4
ENDBRANCH   2   3
BRANCH   2  14
HETATM   14  C   UNL     1      -9.746  13.827  66.561  1.00  0.00    -0.293 C  
BRANCH  14  15
HETATM   15  C   UNL     1      -9.520  15.305  66.703  1.00  0.00    -0.281 C  
HETATM   16  C   UNL     1     -10.516  16.206  66.740  1.00  0.00    -0.294 C  
BRANCH  16  17
HETATM   17  C   UNL     1     -10.335  17.645  66.980  1.00  0.00    -0.330 A  
HETATM   18  C   UNL     1     -10.247  18.196  68.263  1.00  0.00    -0.402 A  
HETATM   19  C   UNL     1     -10.047  19.873  66.047  1.00  0.00    -0.589 A  
HETATM   20  C   UNL     1     -10.217  18.497  65.873  1.00  0.00    -0.264 A  
HETATM   21  C   UNL     1      -9.984  20.410  67.329  1.00  0.00    -0.564 A  
HETATM   22  C   UNL     1     -10.079  19.572  68.438  1.00  0.00    -0.546 A  
ENDBRANCH  16  17
ENDBRANCH  14  15
ENDBRANCH   2  14
TORSDOF 5
ENDMDL
MODEL      100
REMARK 921   NORMALIZED FREE ENERGY PREDICTED BY IDOCK:   -4.81 KCAL/MOL
REMARK 922        TOTAL FREE ENERGY PREDICTED BY IDOCK:   -7.52 KCAL/MOL
REMARK 923 INTER-LIGAND FREE ENERGY PREDICTED BY IDOCK:   -6.58 KCAL/MOL
REMARK 924 INTRA-LIGAND FREE ENERGY PREDICTED BY IDOCK:   -0.94 KCAL/MOL
REMARK 927      BINDING AFFINITY PREDICTED BY RF-SCORE:    0.00 PKD
ROOT
HETATM    1  C   UNL     1     -11.326  15.023  65.876  1.00  0.00    -0.273 C  
HETATM    2  N   UNL     1     -11.691  14.004  66.864  1.00  0.00    -0.388 NA 
ENDROOT
BRANCH   2   3
HETATM    3  C   UNL     1     -10.911  14.158  68.112  1.00  0.00    -0.249 C  
BRANCH   3   4
HETATM    4  C   UNL     1     -11.755  14.162  69.380  1.00  0.00    -0.361 A  
HETATM    5  C   UNL     1     -12.043  12.977  70.119  1.00  0.00    -0.377 A  
HETATM    6  C   UNL     1     -12.281  15.396  69.807  1.00  0.00    -0.336 A  
HETATM    7  C   UNL     1     -11.540  11.696  69.787  1.00  0.00    -0.389 A  
HETATM    8  C   UNL     1     -11.906  10.551  70.498  1.00  0.00    -0.442 A  
HETATM    9  C   UNL     1     -13.102  15.470  70.924  1.00  0.00    -0.508 A  
HETATM   10  C   UNL     1     -12.773  10.656  71.575  1.00  0.00    -0.549 A  
HETATM   11  C   UNL     1     -13.415  14.313  71.633  1.00  0.00    -0.456 A  
HETATM   12  C   UNL     1     -12.905  13.068  71.241  1.00  0.00    -0.370 A  
HETATM   13  C   UNL     1     -13.257  11.908  71.953  1.00  0.00    -0.467 A  
ENDBRANCH   3   4
ENDBRANCH   2   3
BRANCH   2  14
HETATM   14  C   UNL     1     -11.528  12.667  66.276  1.00  0.00    -0.364 C  
BRANCH  14  15
HETATM   15  C   UNL     1     -10.110  12.177  66.352  1.00  0.00    -0.242 C  
HETATM   16  C   UNL     1      -9.774  10.876  66.317  1.00  0.00    -0.245 C  
BRANCH  16  17
HETATM   17  C   UNL     1      -8.394  10.369  66.285  1.00  0.00    -0.146 A  
HETATM   18  C   UNL     1      -8.013   9.248  65.539  1.00  0.00    -0.104 A  
HETATM   19  C   UNL     1      -6.088  10.614  67.020  1.00  0.00    -0.064 A  
HETATM   20  C   UNL     1      -7.413  11.057  67.013  1.00  0.00    -0.127 A  
HETATM   21  C   UNL     1      -5.728   9.484  66.291  1.00  0.00    -0.053 A  
HETATM   22  C   UNL     1      -6.689   8.804  65.546  1.00  0.00    -0.071 A  
ENDBRANCH  16  17
ENDBRANCH  14  15
ENDBRANCH   2  14
TORSDOF 5
ENDMDL
MODEL      101
REMARK 921   NORMALIZED FREE ENERGY PREDICTED BY IDOCK:   -4.80 KCAL/MOL
REMARK 922        TOTAL FREE ENERGY PREDICTED BY IDOCK:   -7.52 KCAL/MOL
REMARK 923 INTER-LIGAND FREE ENERGY PREDICTED BY IDOCK:   -6.37 KCAL/MOL
REMARK 924 INTRA-LIGAND FREE ENERGY PREDICTED BY IDOCK:   -1.15 KCAL/MOL
REMARK 927      BINDING AFFINITY PREDICTED BY RF-SCORE:    0.00 PKD
ROOT
HETATM    1  C   UNL     1     -10.271  10.078  65.712  1.00  0.00    -0.200 C  
HETATM    2  N   UNL     1     -10.571   9.529  67.038  1.00  0.00    -0.231 NA 
ENDROOT
BRANCH   2   3
HETATM    3  C   UNL     1      -9.788  10.208  68.094  1.00  0.00    -0.144 C  
BRANCH   3   4
HETATM    4  C   UNL     1     -10.497  11.395  68.733  1.00  0.00    -0.228 A  
HETATM    5  C   UNL     1     -11.404  11.255  69.825  1.00  0.00    -0.348 A  
HETATM    6  C   UNL     1     -10.249  12.670  68.191  1.00  0.00    -0.240 A  
HETATM    7  C   UNL     1     -11.697  10.022  70.456  1.00  0.00    -0.400 A  
HETATM    8  C   UNL     1     -12.647   9.922  71.475  1.00  0.00    -0.513 A  
HETATM    9  C   UNL     1     -10.900  13.792  68.687  1.00  0.00    -0.280 A  
HETATM   10  C   UNL     1     -13.317  11.056  71.908  1.00  0.00    -0.423 A  
HETATM   11  C   UNL     1     -11.811  13.660  69.731  1.00  0.00    -0.392 A  
HETATM   12  C   UNL     1     -12.078  12.408  70.301  1.00  0.00    -0.377 A  
HETATM   13  C   UNL     1     -13.024  12.293  71.334  1.00  0.00    -0.354 A  
ENDBRANCH   3   4
ENDBRANCH   2   3
BRANCH   2  14
HETATM   14  C   UNL     1     -10.344   8.078  67.033  1.00  0.00    -0.344 C  
BRANCH  14  15
HETATM   15  C   UNL     1     -10.072   7.536  68.408  1.00  0.00    -0.200 C  
HETATM   16  C   UNL     1     -10.998   6.907  69.151  1.00  0.00    -0.240 C  
BRANCH  16  17
HETATM   17  C   UNL     1     -10.738   6.276  70.453  1.00  0.00    -0.329 A  
HETATM   18  C   UNL     1     -11.729   6.105  71.426  1.00  0.00    -0.236 A  
HETATM   19  C   UNL     1      -9.147   5.195  71.942  1.00  0.00    -0.154 A  
HETATM   20  C   UNL     1      -9.447   5.798  70.718  1.00  0.00    -0.197 A  
HETATM   21  C   UNL     1     -10.137   5.052  72.910  1.00  0.00    -0.206 A  
HETATM   22  C   UNL     1     -11.429   5.502  72.651  1.00  0.00    -0.331 A  
ENDBRANCH  16  17
ENDBRANCH  14  15
ENDBRANCH   2  14
TORSDOF 5
ENDMDL
MODEL      102
REMARK 921   NORMALIZED FREE ENERGY PREDICTED BY IDOCK:   -4.79 KCAL/MOL
REMARK 922        TOTAL FREE ENERGY PREDICTED BY IDOCK:   -7.50 KCAL/MOL
REMARK 923 INTER-LIGAND FREE ENERGY PREDICTED BY IDOCK:   -6.20 KCAL/MOL
REMARK 924 INTRA-LIGAND FREE ENERGY PREDICTED BY IDOCK:   -1.30 KCAL/MOL
REMARK 927      BINDING AFFINITY PREDICTED BY RF-SCORE:    0.00 PKD
ROOT
HETATM    1  C   UNL     1      -8.950  11.044  66.699  1.00  0.00    -0.168 C  
HETATM    2  N   UNL     1     -10.063  10.936  67.647  1.00  0.00    -0.175 NA 
ENDROOT
BRANCH   2   3
HETATM    3  C   UNL     1      -9.577  10.740  69.031  1.00  0.00    -0.180 C  
BRANCH   3   4
HETATM    4  C   UNL     1     -10.682  10.537  70.059  1.00  0.00    -0.282 A  
HETATM    5  C   UNL     1     -10.760   9.380  70.890  1.00  0.00    -0.393 A  
HETATM    6  C   UNL     1     -11.671  11.534  70.157  1.00  0.00    -0.395 A  
HETATM    7  C   UNL     1      -9.802   8.338  70.885  1.00  0.00    -0.215 A  
HETATM    8  C   UNL     1      -9.956   7.190  71.665  1.00  0.00    -0.186 A  
HETATM    9  C   UNL     1     -12.738  11.393  71.034  1.00  0.00    -0.447 A  
HETATM   10  C   UNL     1     -11.064   7.059  72.489  1.00  0.00    -0.310 A  
HETATM   11  C   UNL     1     -12.839  10.253  71.826  1.00  0.00    -0.565 A  
HETATM   12  C   UNL     1     -11.870   9.241  71.760  1.00  0.00    -0.454 A  
HETATM   13  C   UNL     1     -12.007   8.085  72.546  1.00  0.00    -0.384 A  
ENDBRANCH   3   4
ENDBRANCH   2   3
BRANCH   2  14
HETATM   14  C   UNL     1     -10.968   9.859  67.224  1.00  0.00    -0.117 C  
BRANCH  14  15
HETATM   15  C   UNL     1     -10.322   8.505  67.303  1.00  0.00    -0.372 C  
HETATM   16  C   UNL     1     -11.004   7.374  67.556  1.00  0.00    -0.176 C  
BRANCH  16  17
HETATM   17  C   UNL     1     -10.421   6.025  67.538  1.00  0.00    -0.302 A  
HETATM   18  C   UNL     1     -10.191   5.281  68.701  1.00  0.00    -0.223 A  
HETATM   19  C   UNL     1      -9.551   4.169  66.227  1.00  0.00    -0.209 A  
HETATM   20  C   UNL     1     -10.110   5.447  66.299  1.00  0.00    -0.209 A  
HETATM   21  C   UNL     1      -9.306   3.450  67.393  1.00  0.00    -0.243 A  
HETATM   22  C   UNL     1      -9.630   4.003  68.630  1.00  0.00    -0.190 A  
ENDBRANCH  16  17
ENDBRANCH  14  15
ENDBRANCH   2  14
TORSDOF 5
ENDMDL
MODEL      103
REMARK 921   NORMALIZED FREE ENERGY PREDICTED BY IDOCK:   -4.78 KCAL/MOL
REMARK 922        TOTAL FREE ENERGY PREDICTED BY IDOCK:   -7.48 KCAL/MOL
REMARK 923 INTER-LIGAND FREE ENERGY PREDICTED BY IDOCK:   -6.37 KCAL/MOL
REMARK 924 INTRA-LIGAND FREE ENERGY PREDICTED BY IDOCK:   -1.11 KCAL/MOL
REMARK 927      BINDING AFFINITY PREDICTED BY RF-SCORE:    0.00 PKD
ROOT
HETATM    1  C   UNL     1     -12.954   6.646  72.049  1.00  0.00    -0.062 C  
HETATM    2  N   UNL     1     -12.180   7.656  71.321  1.00  0.00    -0.316 NA 
ENDROOT
BRANCH   2   3
HETATM    3  C   UNL     1     -10.862   7.130  70.903  1.00  0.00    -0.244 C  
BRANCH   3   4
HETATM    4  C   UNL     1     -10.534   7.359  69.433  1.00  0.00    -0.220 A  
HETATM    5  C   UNL     1      -9.673   8.406  68.989  1.00  0.00    -0.171 A  
HETATM    6  C   UNL     1     -11.137   6.504  68.491  1.00  0.00    -0.347 A  
HETATM    7  C   UNL     1      -8.999   9.297  69.857  1.00  0.00    -0.194 A  
HETATM    8  C   UNL     1      -8.221  10.352  69.375  1.00  0.00    -0.158 A  
HETATM    9  C   UNL     1     -10.927   6.685  67.131  1.00  0.00    -0.478 A  
HETATM   10  C   UNL     1      -8.079  10.535  68.008  1.00  0.00    -0.111 A  
HETATM   11  C   UNL     1     -10.113   7.724  66.687  1.00  0.00    -0.294 A  
HETATM   12  C   UNL     1      -9.491   8.591  67.595  1.00  0.00    -0.173 A  
HETATM   13  C   UNL     1      -8.698   9.651  67.125  1.00  0.00    -0.137 A  
ENDBRANCH   3   4
ENDBRANCH   2   3
BRANCH   2  14
HETATM   14  C   UNL     1     -12.054   8.867  72.142  1.00  0.00    -0.359 C  
BRANCH  14  15
HETATM   15  C   UNL     1     -11.666  10.071  71.331  1.00  0.00    -0.414 C  
HETATM   16  C   UNL     1     -12.482  11.119  71.126  1.00  0.00    -0.498 C  
BRANCH  16  17
HETATM   17  C   UNL     1     -12.099  12.354  70.426  1.00  0.00    -0.381 A  
HETATM   18  C   UNL     1     -11.423  12.354  69.201  1.00  0.00    -0.358 A  
HETATM   19  C   UNL     1     -12.109  14.786  70.376  1.00  0.00    -0.381 A  
HETATM   20  C   UNL     1     -12.453  13.584  70.999  1.00  0.00    -0.451 A  
HETATM   21  C   UNL     1     -11.416  14.772  69.169  1.00  0.00    -0.323 A  
HETATM   22  C   UNL     1     -11.077  13.557  68.578  1.00  0.00    -0.300 A  
ENDBRANCH  16  17
ENDBRANCH  14  15
ENDBRANCH   2  14
TORSDOF 5
ENDMDL
MODEL      104
REMARK 921   NORMALIZED FREE ENERGY PREDICTED BY IDOCK:   -4.77 KCAL/MOL
REMARK 922        TOTAL FREE ENERGY PREDICTED BY IDOCK:   -7.47 KCAL/MOL
REMARK 923 INTER-LIGAND FREE ENERGY PREDICTED BY IDOCK:   -6.31 KCAL/MOL
REMARK 924 INTRA-LIGAND FREE ENERGY PREDICTED BY IDOCK:   -1.15 KCAL/MOL
REMARK 927      BINDING AFFINITY PREDICTED BY RF-SCORE:    0.00 PKD
ROOT
HETATM    1  C   UNL     1     -10.941  15.981  68.557  1.00  0.00    -0.326 C  
HETATM    2  N   UNL     1     -10.895  14.530  68.355  1.00  0.00    -0.237 NA 
ENDROOT
BRANCH   2   3
HETATM    3  C   UNL     1     -10.590  14.189  66.948  1.00  0.00    -0.280 C  
BRANCH   3   4
HETATM    4  C   UNL     1      -9.985  12.805  66.756  1.00  0.00    -0.237 A  
HETATM    5  C   UNL     1      -8.613  12.519  67.018  1.00  0.00    -0.188 A  
HETATM    6  C   UNL     1     -10.830  11.786  66.275  1.00  0.00    -0.325 A  
HETATM    7  C   UNL     1      -7.692  13.466  67.529  1.00  0.00    -0.182 A  
HETATM    8  C   UNL     1      -6.340  13.162  67.704  1.00  0.00    -0.163 A  
HETATM    9  C   UNL     1     -10.337  10.513  66.025  1.00  0.00    -0.279 A  
HETATM   10  C   UNL     1      -5.873  11.894  67.391  1.00  0.00    -0.115 A  
HETATM   11  C   UNL     1      -8.991  10.234  66.248  1.00  0.00    -0.172 A  
HETATM   12  C   UNL     1      -8.121  11.220  66.733  1.00  0.00    -0.159 A  
HETATM   13  C   UNL     1      -6.761  10.926  66.923  1.00  0.00    -0.106 A  
ENDBRANCH   3   4
ENDBRANCH   2   3
BRANCH   2  14
HETATM   14  C   UNL     1     -12.159  13.930  68.804  1.00  0.00    -0.309 C  
BRANCH  14  15
HETATM   15  C   UNL     1     -11.950  12.874  69.853  1.00  0.00    -0.377 C  
HETATM   16  C   UNL     1     -12.106  11.560  69.621  1.00  0.00    -0.363 C  
BRANCH  16  17
HETATM   17  C   UNL     1     -11.810  10.498  70.594  1.00  0.00    -0.458 A  
HETATM   18  C   UNL     1     -12.771   9.980  71.469  1.00  0.00    -0.532 A  
HETATM   19  C   UNL     1     -10.182   8.953  71.532  1.00  0.00    -0.398 A  
HETATM   20  C   UNL     1     -10.515   9.961  70.624  1.00  0.00    -0.301 A  
HETATM   21  C   UNL     1     -11.141   8.463  72.413  1.00  0.00    -0.431 A  
HETATM   22  C   UNL     1     -12.438   8.973  72.378  1.00  0.00    -0.375 A  
ENDBRANCH  16  17
ENDBRANCH  14  15
ENDBRANCH   2  14
TORSDOF 5
ENDMDL
MODEL      105
REMARK 921   NORMALIZED FREE ENERGY PREDICTED BY IDOCK:   -4.76 KCAL/MOL
REMARK 922        TOTAL FREE ENERGY PREDICTED BY IDOCK:   -7.46 KCAL/MOL
REMARK 923 INTER-LIGAND FREE ENERGY PREDICTED BY IDOCK:   -7.03 KCAL/MOL
REMARK 924 INTRA-LIGAND FREE ENERGY PREDICTED BY IDOCK:   -0.43 KCAL/MOL
REMARK 927      BINDING AFFINITY PREDICTED BY RF-SCORE:    0.00 PKD
ROOT
HETATM    1  C   UNL     1     -10.451  14.068  68.644  1.00  0.00    -0.247 C  
HETATM    2  N   UNL     1     -11.085  12.754  68.505  1.00  0.00    -0.251 NA 
ENDROOT
BRANCH   2   3
HETATM    3  C   UNL     1     -12.055  12.736  67.388  1.00  0.00    -0.158 C  
BRANCH   3   4
HETATM    4  C   UNL     1     -11.464  12.302  66.053  1.00  0.00    -0.434 A  
HETATM    5  C   UNL     1     -10.642  11.145  65.913  1.00  0.00    -0.294 A  
HETATM    6  C   UNL     1     -11.735  13.106  64.930  1.00  0.00    -0.377 A  
HETATM    7  C   UNL     1     -10.336  10.260  66.974  1.00  0.00    -0.299 A  
HETATM    8  C   UNL     1      -9.469   9.178  66.807  1.00  0.00    -0.230 A  
HETATM    9  C   UNL     1     -11.187  12.803  63.690  1.00  0.00    -0.482 A  
HETATM   10  C   UNL     1      -8.897   8.938  65.566  1.00  0.00    -0.238 A  
HETATM   11  C   UNL     1     -10.358  11.693  63.551  1.00  0.00    -0.488 A  
HETATM   12  C   UNL     1     -10.071  10.866  64.646  1.00  0.00    -0.391 A  
HETATM   13  C   UNL     1      -9.208   9.768  64.490  1.00  0.00    -0.310 A  
ENDBRANCH   3   4
ENDBRANCH   2   3
BRANCH   2  14
HETATM   14  C   UNL     1     -11.708  12.370  69.780  1.00  0.00    -0.291 C  
BRANCH  14  15
HETATM   15  C   UNL     1     -11.346  10.972  70.195  1.00  0.00    -0.335 C  
HETATM   16  C   UNL     1     -12.147  10.191  70.940  1.00  0.00    -0.453 C  
BRANCH  16  17
HETATM   17  C   UNL     1     -11.870   8.787  71.276  1.00  0.00    -0.358 A  
HETATM   18  C   UNL     1     -10.596   8.218  71.174  1.00  0.00    -0.258 A  
HETATM   19  C   UNL     1     -12.715   6.651  72.077  1.00  0.00    -0.204 A  
HETATM   20  C   UNL     1     -12.925   7.993  71.748  1.00  0.00    -0.354 A  
HETATM   21  C   UNL     1     -11.447   6.092  71.948  1.00  0.00    -0.355 A  
HETATM   22  C   UNL     1     -10.386   6.876  71.502  1.00  0.00    -0.220 A  
ENDBRANCH  16  17
ENDBRANCH  14  15
ENDBRANCH   2  14
TORSDOF 5
ENDMDL
MODEL      106
REMARK 921   NORMALIZED FREE ENERGY PREDICTED BY IDOCK:   -4.76 KCAL/MOL
REMARK 922        TOTAL FREE ENERGY PREDICTED BY IDOCK:   -7.46 KCAL/MOL
REMARK 923 INTER-LIGAND FREE ENERGY PREDICTED BY IDOCK:   -6.89 KCAL/MOL
REMARK 924 INTRA-LIGAND FREE ENERGY PREDICTED BY IDOCK:   -0.56 KCAL/MOL
REMARK 927      BINDING AFFINITY PREDICTED BY RF-SCORE:    0.00 PKD
ROOT
HETATM    1  C   UNL     1     -10.316   9.583  70.717  1.00  0.00    -0.306 C  
HETATM    2  N   UNL     1     -10.555   9.967  69.322  1.00  0.00    -0.212 NA 
ENDROOT
BRANCH   2   3
HETATM    3  C   UNL     1      -9.478  10.842  68.811  1.00  0.00    -0.190 C  
BRANCH   3   4
HETATM    4  C   UNL     1      -9.679  11.309  67.375  1.00  0.00    -0.190 A  
HETATM    5  C   UNL     1      -9.405  10.479  66.248  1.00  0.00    -0.202 A  
HETATM    6  C   UNL     1     -10.134  12.627  67.177  1.00  0.00    -0.224 A  
HETATM    7  C   UNL     1      -8.972   9.134  66.343  1.00  0.00    -0.182 A  
HETATM    8  C   UNL     1      -8.647   8.381  65.213  1.00  0.00    -0.177 A  
HETATM    9  C   UNL     1     -10.291  13.139  65.896  1.00  0.00    -0.295 A  
HETATM   10  C   UNL     1      -8.764   8.945  63.952  1.00  0.00    -0.056 A  
HETATM   11  C   UNL     1      -9.994  12.346  64.790  1.00  0.00    -0.196 A  
HETATM   12  C   UNL     1      -9.546  11.027  64.948  1.00  0.00    -0.289 A  
HETATM   13  C   UNL     1      -9.224  10.254  63.820  1.00  0.00    -0.312 A  
ENDBRANCH   3   4
ENDBRANCH   2   3
BRANCH   2  14
HETATM   14  C   UNL     1     -11.877  10.596  69.204  1.00  0.00    -0.215 C  
BRANCH  14  15
HETATM   15  C   UNL     1     -12.117  11.630  70.267  1.00  0.00    -0.443 C  
HETATM   16  C   UNL     1     -12.002  12.952  70.053  1.00  0.00    -0.380 C  
BRANCH  16  17
HETATM   17  C   UNL     1     -12.328  13.991  71.040  1.00  0.00    -0.443 A  
HETATM   18  C   UNL     1     -11.577  15.163  71.187  1.00  0.00    -0.405 A  
HETATM   19  C   UNL     1     -13.810  14.769  72.806  1.00  0.00    -0.401 A  
HETATM   20  C   UNL     1     -13.459  13.812  71.849  1.00  0.00    -0.514 A  
HETATM   21  C   UNL     1     -13.041  15.918  72.957  1.00  0.00    -0.639 A  
HETATM   22  C   UNL     1     -11.927  16.118  72.144  1.00  0.00    -0.623 A  
ENDBRANCH  16  17
ENDBRANCH  14  15
ENDBRANCH   2  14
TORSDOF 5
ENDMDL
MODEL      107
REMARK 921   NORMALIZED FREE ENERGY PREDICTED BY IDOCK:   -4.74 KCAL/MOL
REMARK 922        TOTAL FREE ENERGY PREDICTED BY IDOCK:   -7.43 KCAL/MOL
REMARK 923 INTER-LIGAND FREE ENERGY PREDICTED BY IDOCK:   -6.65 KCAL/MOL
REMARK 924 INTRA-LIGAND FREE ENERGY PREDICTED BY IDOCK:   -0.78 KCAL/MOL
REMARK 927      BINDING AFFINITY PREDICTED BY RF-SCORE:    0.00 PKD
ROOT
HETATM    1  C   UNL     1      -9.700  14.783  66.248  1.00  0.00    -0.303 C  
HETATM    2  N   UNL     1      -9.040  15.502  67.342  1.00  0.00    -0.195 NA 
ENDROOT
BRANCH   2   3
HETATM    3  C   UNL     1      -8.674  14.588  68.446  1.00  0.00    -0.175 C  
BRANCH   3   4
HETATM    4  C   UNL     1      -8.436  13.147  68.014  1.00  0.00    -0.181 A  
HETATM    5  C   UNL     1      -9.404  12.116  68.197  1.00  0.00    -0.204 A  
HETATM    6  C   UNL     1      -7.190  12.840  67.433  1.00  0.00    -0.134 A  
HETATM    7  C   UNL     1     -10.692  12.330  68.744  1.00  0.00    -0.247 A  
HETATM    8  C   UNL     1     -11.582  11.278  68.971  1.00  0.00    -0.386 A  
HETATM    9  C   UNL     1      -6.881  11.538  67.063  1.00  0.00    -0.147 A  
HETATM   10  C   UNL     1     -11.217   9.982  68.638  1.00  0.00    -0.175 A  
HETATM   11  C   UNL     1      -7.809  10.520  67.267  1.00  0.00    -0.107 A  
HETATM   12  C   UNL     1      -9.061  10.789  67.836  1.00  0.00    -0.150 A  
HETATM   13  C   UNL     1      -9.971   9.742  68.061  1.00  0.00    -0.185 A  
ENDBRANCH   3   4
ENDBRANCH   2   3
BRANCH   2  14
HETATM   14  C   UNL     1      -9.900  16.601  67.799  1.00  0.00    -0.252 C  
BRANCH  14  15
HETATM   15  C   UNL     1     -10.459  16.357  69.173  1.00  0.00    -0.303 C  
HETATM   16  C   UNL     1     -11.652  15.780  69.393  1.00  0.00    -0.371 C  
BRANCH  16  17
HETATM   17  C   UNL     1     -12.181  15.434  70.721  1.00  0.00    -0.430 A  
HETATM   18  C   UNL     1     -13.009  14.328  70.944  1.00  0.00    -0.395 A  
HETATM   19  C   UNL     1     -12.293  15.947  73.096  1.00  0.00    -0.619 A  
HETATM   20  C   UNL     1     -11.815  16.231  71.815  1.00  0.00    -0.510 A  
HETATM   21  C   UNL     1     -13.135  14.858  73.300  1.00  0.00    -0.585 A  
HETATM   22  C   UNL     1     -13.489  14.045  72.226  1.00  0.00    -0.597 A  
ENDBRANCH  16  17
ENDBRANCH  14  15
ENDBRANCH   2  14
TORSDOF 5
ENDMDL
MODEL      108
REMARK 921   NORMALIZED FREE ENERGY PREDICTED BY IDOCK:   -4.71 KCAL/MOL
REMARK 922        TOTAL FREE ENERGY PREDICTED BY IDOCK:   -7.40 KCAL/MOL
REMARK 923 INTER-LIGAND FREE ENERGY PREDICTED BY IDOCK:   -6.61 KCAL/MOL
REMARK 924 INTRA-LIGAND FREE ENERGY PREDICTED BY IDOCK:   -0.79 KCAL/MOL
REMARK 927      BINDING AFFINITY PREDICTED BY RF-SCORE:    0.00 PKD
ROOT
HETATM    1  C   UNL     1     -12.587  12.089  63.374  1.00  0.00    -0.469 C  
HETATM    2  N   UNL     1     -11.793  12.750  64.414  1.00  0.00    -0.360 NA 
ENDROOT
BRANCH   2   3
HETATM    3  C   UNL     1     -12.110  14.193  64.501  1.00  0.00    -0.468 C  
BRANCH   3   4
HETATM    4  C   UNL     1     -11.316  14.946  65.560  1.00  0.00    -0.339 A  
HETATM    5  C   UNL     1     -11.303  14.561  66.934  1.00  0.00    -0.355 A  
HETATM    6  C   UNL     1     -10.591  16.079  65.146  1.00  0.00    -0.394 A  
HETATM    7  C   UNL     1     -11.975  13.424  67.442  1.00  0.00    -0.391 A  
HETATM    8  C   UNL     1     -11.994  13.125  68.806  1.00  0.00    -0.316 A  
HETATM    9  C   UNL     1      -9.886  16.846  66.065  1.00  0.00    -0.281 A  
HETATM   10  C   UNL     1     -11.323  13.945  69.701  1.00  0.00    -0.259 A  
HETATM   11  C   UNL     1      -9.894  16.496  67.412  1.00  0.00    -0.253 A  
HETATM   12  C   UNL     1     -10.599  15.371  67.860  1.00  0.00    -0.267 A  
HETATM   13  C   UNL     1     -10.619  15.052  69.229  1.00  0.00    -0.249 A  
ENDBRANCH   3   4
ENDBRANCH   2   3
BRANCH   2  14
HETATM   14  C   UNL     1     -10.363  12.516  64.167  1.00  0.00    -0.390 C  
BRANCH  14  15
HETATM   15  C   UNL     1      -9.879  11.235  64.785  1.00  0.00    -0.312 C  
HETATM   16  C   UNL     1     -10.260  10.810  66.001  1.00  0.00    -0.310 C  
BRANCH  16  17
HETATM   17  C   UNL     1      -9.886   9.515  66.590  1.00  0.00    -0.293 A  
HETATM   18  C   UNL     1     -10.060   9.219  67.946  1.00  0.00    -0.246 A  
HETATM   19  C   UNL     1      -8.985   7.280  66.258  1.00  0.00    -0.185 A  
HETATM   20  C   UNL     1      -9.360   8.525  65.748  1.00  0.00    -0.187 A  
HETATM   21  C   UNL     1      -9.142   7.007  67.614  1.00  0.00    -0.122 A  
HETATM   22  C   UNL     1      -9.685   7.974  68.457  1.00  0.00    -0.166 A  
ENDBRANCH  16  17
ENDBRANCH  14  15
ENDBRANCH   2  14
TORSDOF 5
ENDMDL
MODEL      109
REMARK 921   NORMALIZED FREE ENERGY PREDICTED BY IDOCK:   -4.70 KCAL/MOL
REMARK 922        TOTAL FREE ENERGY PREDICTED BY IDOCK:   -7.39 KCAL/MOL
REMARK 923 INTER-LIGAND FREE ENERGY PREDICTED BY IDOCK:   -5.51 KCAL/MOL
REMARK 924 INTRA-LIGAND FREE ENERGY PREDICTED BY IDOCK:   -1.88 KCAL/MOL
REMARK 927      BINDING AFFINITY PREDICTED BY RF-SCORE:    0.00 PKD
ROOT
HETATM    1  C   UNL     1     -11.504  13.187  68.186  1.00  0.00    -0.314 C  
HETATM    2  N   UNL     1     -11.048  11.993  68.904  1.00  0.00    -0.235 NA 
ENDROOT
BRANCH   2   3
HETATM    3  C   UNL     1     -10.626  10.928  67.969  1.00  0.00    -0.202 C  
BRANCH   3   4
HETATM    4  C   UNL     1      -9.661   9.914  68.569  1.00  0.00    -0.159 A  
HETATM    5  C   UNL     1      -9.796   8.508  68.369  1.00  0.00    -0.189 A  
HETATM    6  C   UNL     1      -8.615  10.407  69.372  1.00  0.00    -0.143 A  
HETATM    7  C   UNL     1     -10.795   7.917  67.558  1.00  0.00    -0.152 A  
HETATM    8  C   UNL     1     -10.932   6.532  67.448  1.00  0.00    -0.458 A  
HETATM    9  C   UNL     1      -7.728   9.540  69.996  1.00  0.00    -0.146 A  
HETATM   10  C   UNL     1     -10.061   5.696  68.130  1.00  0.00    -0.212 A  
HETATM   11  C   UNL     1      -7.871   8.165  69.832  1.00  0.00    -0.104 A  
HETATM   12  C   UNL     1      -8.897   7.637  69.035  1.00  0.00    -0.135 A  
HETATM   13  C   UNL     1      -9.041   6.245  68.906  1.00  0.00    -0.124 A  
ENDBRANCH   3   4
ENDBRANCH   2   3
BRANCH   2  14
HETATM   14  C   UNL     1     -12.103  11.535  69.818  1.00  0.00    -0.306 C  
BRANCH  14  15
HETATM   15  C   UNL     1     -11.630  10.446  70.739  1.00  0.00    -0.450 C  
HETATM   16  C   UNL     1     -12.145   9.205  70.742  1.00  0.00    -0.200 C  
BRANCH  16  17
HETATM   17  C   UNL     1     -11.637   8.090  71.555  1.00  0.00    -0.313 A  
HETATM   18  C   UNL     1     -11.898   6.749  71.253  1.00  0.00    -0.396 A  
HETATM   19  C   UNL     1     -10.327   7.363  73.472  1.00  0.00    -0.405 A  
HETATM   20  C   UNL     1     -10.832   8.385  72.664  1.00  0.00    -0.308 A  
HETATM   21  C   UNL     1     -10.614   6.034  73.173  1.00  0.00    -0.268 A  
HETATM   22  C   UNL     1     -11.394   5.726  72.062  1.00  0.00    -0.289 A  
ENDBRANCH  16  17
ENDBRANCH  14  15
ENDBRANCH   2  14
TORSDOF 5
ENDMDL
MODEL      110
REMARK 921   NORMALIZED FREE ENERGY PREDICTED BY IDOCK:   -4.70 KCAL/MOL
REMARK 922        TOTAL FREE ENERGY PREDICTED BY IDOCK:   -7.38 KCAL/MOL
REMARK 923 INTER-LIGAND FREE ENERGY PREDICTED BY IDOCK:   -7.16 KCAL/MOL
REMARK 924 INTRA-LIGAND FREE ENERGY PREDICTED BY IDOCK:   -0.23 KCAL/MOL
REMARK 927      BINDING AFFINITY PREDICTED BY RF-SCORE:    0.00 PKD
ROOT
HETATM    1  C   UNL     1     -12.424  13.124  70.996  1.00  0.00    -0.318 C  
HETATM    2  N   UNL     1     -11.705  13.492  69.772  1.00  0.00    -0.302 NA 
ENDROOT
BRANCH   2   3
HETATM    3  C   UNL     1     -12.466  14.478  68.973  1.00  0.00     0.056 C  
BRANCH   3   4
HETATM    4  C   UNL     1     -11.758  14.937  67.705  1.00  0.00    -0.340 A  
HETATM    5  C   UNL     1     -10.895  16.072  67.672  1.00  0.00    -0.311 A  
HETATM    6  C   UNL     1     -12.001  14.209  66.525  1.00  0.00    -0.466 A  
HETATM    7  C   UNL     1     -10.567  16.850  68.808  1.00  0.00    -0.355 A  
HETATM    8  C   UNL     1      -9.774  17.995  68.715  1.00  0.00    -0.336 A  
HETATM    9  C   UNL     1     -11.432  14.599  65.320  1.00  0.00    -0.361 A  
HETATM   10  C   UNL     1      -9.268  18.386  67.484  1.00  0.00    -0.277 A  
HETATM   11  C   UNL     1     -10.614  15.725  65.272  1.00  0.00    -0.446 A  
HETATM   12  C   UNL     1     -10.344  16.470  66.428  1.00  0.00    -0.316 A  
HETATM   13  C   UNL     1      -9.540  17.620  66.351  1.00  0.00    -0.285 A  
ENDBRANCH   3   4
ENDBRANCH   2   3
BRANCH   2  14
HETATM   14  C   UNL     1     -11.395  12.281  69.000  1.00  0.00    -0.280 C  
BRANCH  14  15
HETATM   15  C   UNL     1     -11.663  11.023  69.776  1.00  0.00    -0.410 C  
HETATM   16  C   UNL     1     -10.902   9.920  69.684  1.00  0.00    -0.281 C  
BRANCH  16  17
HETATM   17  C   UNL     1     -11.075   8.712  70.503  1.00  0.00    -0.268 A  
HETATM   18  C   UNL     1     -11.006   7.418  69.975  1.00  0.00    -0.264 A  
HETATM   19  C   UNL     1     -11.466   7.749  72.703  1.00  0.00    -0.430 A  
HETATM   20  C   UNL     1     -11.291   8.864  71.880  1.00  0.00    -0.446 A  
HETATM   21  C   UNL     1     -11.418   6.468  72.160  1.00  0.00    -0.332 A  
HETATM   22  C   UNL     1     -11.182   6.302  70.797  1.00  0.00    -0.387 A  
ENDBRANCH  16  17
ENDBRANCH  14  15
ENDBRANCH   2  14
TORSDOF 5
ENDMDL
MODEL      111
REMARK 921   NORMALIZED FREE ENERGY PREDICTED BY IDOCK:   -4.68 KCAL/MOL
REMARK 922        TOTAL FREE ENERGY PREDICTED BY IDOCK:   -7.36 KCAL/MOL
REMARK 923 INTER-LIGAND FREE ENERGY PREDICTED BY IDOCK:   -6.70 KCAL/MOL
REMARK 924 INTRA-LIGAND FREE ENERGY PREDICTED BY IDOCK:   -0.66 KCAL/MOL
REMARK 927      BINDING AFFINITY PREDICTED BY RF-SCORE:    0.00 PKD
ROOT
HETATM    1  C   UNL     1     -14.348   7.196  71.707  1.00  0.00    -0.354 C  
HETATM    2  N   UNL     1     -12.963   7.652  71.552  1.00  0.00    -0.346 NA 
ENDROOT
BRANCH   2   3
HETATM    3  C   UNL     1     -12.005   6.538  71.725  1.00  0.00    -0.344 C  
BRANCH   3   4
HETATM    4  C   UNL     1     -10.624   6.805  71.139  1.00  0.00    -0.252 A  
HETATM    5  C   UNL     1     -10.346   6.705  69.743  1.00  0.00    -0.226 A  
HETATM    6  C   UNL     1      -9.590   7.137  72.035  1.00  0.00    -0.158 A  
HETATM    7  C   UNL     1     -11.321   6.405  68.762  1.00  0.00    -0.252 A  
HETATM    8  C   UNL     1     -10.990   6.248  67.415  1.00  0.00    -0.447 A  
HETATM    9  C   UNL     1      -8.294   7.341  71.580  1.00  0.00    -0.109 A  
HETATM   10  C   UNL     1      -9.674   6.407  67.005  1.00  0.00    -0.182 A  
HETATM   11  C   UNL     1      -8.007   7.215  70.223  1.00  0.00    -0.116 A  
HETATM   12  C   UNL     1      -9.012   6.892  69.301  1.00  0.00    -0.137 A  
HETATM   13  C   UNL     1      -8.695   6.741  67.940  1.00  0.00    -0.120 A  
ENDBRANCH   3   4
ENDBRANCH   2   3
BRANCH   2  14
HETATM   14  C   UNL     1     -12.700   8.754  72.487  1.00  0.00    -0.311 C  
BRANCH  14  15
HETATM   15  C   UNL     1     -12.507  10.068  71.784  1.00  0.00    -0.475 C  
HETATM   16  C   UNL     1     -13.156  11.193  72.127  1.00  0.00    -0.288 C  
BRANCH  16  17
HETATM   17  C   UNL     1     -12.915  12.514  71.529  1.00  0.00    -0.379 A  
HETATM   18  C   UNL     1     -13.484  13.690  72.028  1.00  0.00    -0.573 A  
HETATM   19  C   UNL     1     -11.792  13.832  69.819  1.00  0.00    -0.394 A  
HETATM   20  C   UNL     1     -12.052  12.600  70.427  1.00  0.00    -0.381 A  
HETATM   21  C   UNL     1     -12.384  14.990  70.312  1.00  0.00    -0.392 A  
HETATM   22  C   UNL     1     -13.226  14.922  71.420  1.00  0.00    -0.462 A  
ENDBRANCH  16  17
ENDBRANCH  14  15
ENDBRANCH   2  14
TORSDOF 5
ENDMDL
MODEL      112
REMARK 921   NORMALIZED FREE ENERGY PREDICTED BY IDOCK:   -4.68 KCAL/MOL
REMARK 922        TOTAL FREE ENERGY PREDICTED BY IDOCK:   -7.36 KCAL/MOL
REMARK 923 INTER-LIGAND FREE ENERGY PREDICTED BY IDOCK:   -6.93 KCAL/MOL
REMARK 924 INTRA-LIGAND FREE ENERGY PREDICTED BY IDOCK:   -0.43 KCAL/MOL
REMARK 927      BINDING AFFINITY PREDICTED BY RF-SCORE:    0.00 PKD
ROOT
HETATM    1  C   UNL     1      -9.842   7.385  66.928  1.00  0.00    -0.216 C  
HETATM    2  N   UNL     1     -10.322   8.752  67.151  1.00  0.00    -0.281 NA 
ENDROOT
BRANCH   2   3
HETATM    3  C   UNL     1      -9.339   9.753  66.683  1.00  0.00    -0.158 C  
BRANCH   3   4
HETATM    4  C   UNL     1      -9.899  10.763  65.690  1.00  0.00    -0.299 A  
HETATM    5  C   UNL     1     -10.650  11.906  66.093  1.00  0.00    -0.295 A  
HETATM    6  C   UNL     1      -9.673  10.523  64.321  1.00  0.00    -0.391 A  
HETATM    7  C   UNL     1     -10.907  12.249  67.442  1.00  0.00    -0.277 A  
HETATM    8  C   UNL     1     -11.708  13.339  67.789  1.00  0.00    -0.398 A  
HETATM    9  C   UNL     1     -10.198  11.371  63.355  1.00  0.00    -0.457 A  
HETATM   10  C   UNL     1     -12.261  14.132  66.794  1.00  0.00    -0.429 A  
HETATM   11  C   UNL     1     -10.960  12.472  63.738  1.00  0.00    -0.496 A  
HETATM   12  C   UNL     1     -11.200  12.746  65.092  1.00  0.00    -0.327 A  
HETATM   13  C   UNL     1     -11.996  13.845  65.455  1.00  0.00    -0.397 A  
ENDBRANCH   3   4
ENDBRANCH   2   3
BRANCH   2  14
HETATM   14  C   UNL     1     -10.656   8.931  68.571  1.00  0.00    -0.141 C  
BRANCH  14  15
HETATM   15  C   UNL     1     -10.319   7.721  69.396  1.00  0.00    -0.219 C  
HETATM   16  C   UNL     1     -11.056   7.309  70.440  1.00  0.00    -0.291 C  
BRANCH  16  17
HETATM   17  C   UNL     1     -10.813   6.075  71.202  1.00  0.00    -0.338 A  
HETATM   18  C   UNL     1     -10.109   4.985  70.678  1.00  0.00    -0.313 A  
HETATM   19  C   UNL     1     -11.080   4.849  73.286  1.00  0.00    -0.410 A  
HETATM   20  C   UNL     1     -11.281   6.001  72.521  1.00  0.00    -0.333 A  
HETATM   21  C   UNL     1     -10.398   3.764  72.744  1.00  0.00    -0.238 A  
HETATM   22  C   UNL     1      -9.908   3.832  71.442  1.00  0.00    -0.226 A  
ENDBRANCH  16  17
ENDBRANCH  14  15
ENDBRANCH   2  14
TORSDOF 5
ENDMDL
MODEL      113
REMARK 921   NORMALIZED FREE ENERGY PREDICTED BY IDOCK:   -4.68 KCAL/MOL
REMARK 922        TOTAL FREE ENERGY PREDICTED BY IDOCK:   -7.35 KCAL/MOL
REMARK 923 INTER-LIGAND FREE ENERGY PREDICTED BY IDOCK:   -6.96 KCAL/MOL
REMARK 924 INTRA-LIGAND FREE ENERGY PREDICTED BY IDOCK:   -0.39 KCAL/MOL
REMARK 927      BINDING AFFINITY PREDICTED BY RF-SCORE:    0.00 PKD
ROOT
HETATM    1  C   UNL     1     -10.806   7.459  73.286  1.00  0.00    -0.368 C  
HETATM    2  N   UNL     1     -11.082   8.012  71.956  1.00  0.00    -0.273 NA 
ENDROOT
BRANCH   2   3
HETATM    3  C   UNL     1     -11.811   7.043  71.108  1.00  0.00    -0.338 C  
BRANCH   3   4
HETATM    4  C   UNL     1     -10.949   5.905  70.577  1.00  0.00    -0.362 A  
HETATM    5  C   UNL     1     -10.634   5.756  69.194  1.00  0.00    -0.365 A  
HETATM    6  C   UNL     1     -10.476   4.959  71.507  1.00  0.00    -0.179 A  
HETATM    7  C   UNL     1     -11.038   6.667  68.189  1.00  0.00    -0.287 A  
HETATM    8  C   UNL     1     -10.767   6.443  66.837  1.00  0.00    -0.408 A  
HETATM    9  C   UNL     1      -9.730   3.865  71.090  1.00  0.00    -0.248 A  
HETATM   10  C   UNL     1     -10.065   5.310  66.453  1.00  0.00    -0.257 A  
HETATM   11  C   UNL     1      -9.444   3.695  69.738  1.00  0.00    -0.254 A  
HETATM   12  C   UNL     1      -9.893   4.619  68.784  1.00  0.00    -0.201 A  
HETATM   13  C   UNL     1      -9.619   4.413  67.422  1.00  0.00    -0.218 A  
ENDBRANCH   3   4
ENDBRANCH   2   3
BRANCH   2  14
HETATM   14  C   UNL     1      -9.826   8.452  71.334  1.00  0.00    -0.197 C  
BRANCH  14  15
HETATM   15  C   UNL     1     -10.048   9.474  70.256  1.00  0.00    -0.314 C  
HETATM   16  C   UNL     1     -11.185  10.180  70.129  1.00  0.00    -0.377 C  
BRANCH  16  17
HETATM   17  C   UNL     1     -11.396  11.257  69.151  1.00  0.00    -0.349 A  
HETATM   18  C   UNL     1     -11.699  12.572  69.523  1.00  0.00    -0.375 A  
HETATM   19  C   UNL     1     -11.451  11.947  66.819  1.00  0.00    -0.384 A  
HETATM   20  C   UNL     1     -11.257  10.959  67.788  1.00  0.00    -0.384 A  
HETATM   21  C   UNL     1     -11.775  13.245  67.202  1.00  0.00    -0.425 A  
HETATM   22  C   UNL     1     -11.895  13.559  68.554  1.00  0.00    -0.398 A  
ENDBRANCH  16  17
ENDBRANCH  14  15
ENDBRANCH   2  14
TORSDOF 5
ENDMDL
MODEL      114
REMARK 921   NORMALIZED FREE ENERGY PREDICTED BY IDOCK:   -4.67 KCAL/MOL
REMARK 922        TOTAL FREE ENERGY PREDICTED BY IDOCK:   -7.34 KCAL/MOL
REMARK 923 INTER-LIGAND FREE ENERGY PREDICTED BY IDOCK:   -6.42 KCAL/MOL
REMARK 924 INTRA-LIGAND FREE ENERGY PREDICTED BY IDOCK:   -0.92 KCAL/MOL
REMARK 927      BINDING AFFINITY PREDICTED BY RF-SCORE:    0.00 PKD
ROOT
HETATM    1  C   UNL     1      -8.099   7.533  66.771  1.00  0.00    -0.123 C  
HETATM    2  N   UNL     1      -9.340   8.195  67.184  1.00  0.00    -0.139 NA 
ENDROOT
BRANCH   2   3
HETATM    3  C   UNL     1     -10.418   7.214  67.438  1.00  0.00    -0.284 C  
BRANCH   3   4
HETATM    4  C   UNL     1     -10.229   6.391  68.706  1.00  0.00    -0.206 A  
HETATM    5  C   UNL     1     -10.459   6.921  70.010  1.00  0.00    -0.231 A  
HETATM    6  C   UNL     1      -9.786   5.063  68.560  1.00  0.00    -0.215 A  
HETATM    7  C   UNL     1     -10.932   8.231  70.259  1.00  0.00    -0.233 A  
HETATM    8  C   UNL     1     -11.075   8.731  71.555  1.00  0.00    -0.377 A  
HETATM    9  C   UNL     1      -9.541   4.270  69.672  1.00  0.00    -0.275 A  
HETATM   10  C   UNL     1     -10.768   7.927  72.642  1.00  0.00    -0.411 A  
HETATM   11  C   UNL     1      -9.732   4.788  70.950  1.00  0.00    -0.260 A  
HETATM   12  C   UNL     1     -10.179   6.104  71.134  1.00  0.00    -0.245 A  
HETATM   13  C   UNL     1     -10.337   6.617  72.433  1.00  0.00    -0.217 A  
ENDBRANCH   3   4
ENDBRANCH   2   3
BRANCH   2  14
HETATM   14  C   UNL     1      -9.729   9.189  66.173  1.00  0.00    -0.287 C  
BRANCH  14  15
HETATM   15  C   UNL     1     -10.047  10.527  66.779  1.00  0.00    -0.270 C  
HETATM   16  C   UNL     1     -11.161  10.771  67.489  1.00  0.00    -0.374 C  
BRANCH  16  17
HETATM   17  C   UNL     1     -11.452  12.035  68.180  1.00  0.00    -0.383 A  
HETATM   18  C   UNL     1     -11.570  13.258  67.511  1.00  0.00    -0.388 A  
HETATM   19  C   UNL     1     -11.925  13.182  70.273  1.00  0.00    -0.366 A  
HETATM   20  C   UNL     1     -11.649  12.008  69.568  1.00  0.00    -0.389 A  
HETATM   21  C   UNL     1     -12.016  14.395  69.597  1.00  0.00    -0.385 A  
HETATM   22  C   UNL     1     -11.844  14.433  68.215  1.00  0.00    -0.361 A  
ENDBRANCH  16  17
ENDBRANCH  14  15
ENDBRANCH   2  14
TORSDOF 5
ENDMDL
MODEL      115
REMARK 921   NORMALIZED FREE ENERGY PREDICTED BY IDOCK:   -4.66 KCAL/MOL
REMARK 922        TOTAL FREE ENERGY PREDICTED BY IDOCK:   -7.33 KCAL/MOL
REMARK 923 INTER-LIGAND FREE ENERGY PREDICTED BY IDOCK:   -5.55 KCAL/MOL
REMARK 924 INTRA-LIGAND FREE ENERGY PREDICTED BY IDOCK:   -1.79 KCAL/MOL
REMARK 927      BINDING AFFINITY PREDICTED BY RF-SCORE:    0.00 PKD
ROOT
HETATM    1  C   UNL     1      -8.368  19.058  68.111  1.00  0.00    -0.312 C  
HETATM    2  N   UNL     1      -8.768  17.659  67.924  1.00  0.00    -0.240 NA 
ENDROOT
BRANCH   2   3
HETATM    3  C   UNL     1     -10.229  17.489  68.082  1.00  0.00    -0.359 C  
BRANCH   3   4
HETATM    4  C   UNL     1     -10.752  16.129  67.636  1.00  0.00    -0.318 A  
HETATM    5  C   UNL     1     -11.262  15.161  68.551  1.00  0.00    -0.301 A  
HETATM    6  C   UNL     1     -10.697  15.830  66.262  1.00  0.00    -0.282 A  
HETATM    7  C   UNL     1     -11.385  15.378  69.944  1.00  0.00    -0.318 A  
HETATM    8  C   UNL     1     -11.824  14.375  70.812  1.00  0.00    -0.349 A  
HETATM    9  C   UNL     1     -11.106  14.591  65.788  1.00  0.00    -0.324 A  
HETATM   10  C   UNL     1     -12.173  13.131  70.308  1.00  0.00    -0.376 A  
HETATM   11  C   UNL     1     -11.576  13.629  66.677  1.00  0.00    -0.391 A  
HETATM   12  C   UNL     1     -11.652  13.893  68.052  1.00  0.00    -0.368 A  
HETATM   13  C   UNL     1     -12.101  12.897  68.935  1.00  0.00    -0.182 A  
ENDBRANCH   3   4
ENDBRANCH   2   3
BRANCH   2  14
HETATM   14  C   UNL     1      -8.011  16.803  68.849  1.00  0.00    -0.237 C  
BRANCH  14  15
HETATM   15  C   UNL     1      -7.455  15.582  68.172  1.00  0.00    -0.119 C  
HETATM   16  C   UNL     1      -7.904  14.338  68.408  1.00  0.00    -0.140 C  
BRANCH  16  17
HETATM   17  C   UNL     1      -7.454  13.136  67.690  1.00  0.00    -0.164 A  
HETATM   18  C   UNL     1      -6.105  12.790  67.559  1.00  0.00    -0.152 A  
HETATM   19  C   UNL     1      -8.048  11.134  66.442  1.00  0.00    -0.159 A  
HETATM   20  C   UNL     1      -8.423  12.286  67.138  1.00  0.00    -0.184 A  
HETATM   21  C   UNL     1      -6.701  10.814  66.300  1.00  0.00    -0.134 A  
HETATM   22  C   UNL     1      -5.729  11.638  66.862  1.00  0.00    -0.139 A  
ENDBRANCH  16  17
ENDBRANCH  14  15
ENDBRANCH   2  14
TORSDOF 5
ENDMDL
MODEL      116
REMARK 921   NORMALIZED FREE ENERGY PREDICTED BY IDOCK:   -4.66 KCAL/MOL
REMARK 922        TOTAL FREE ENERGY PREDICTED BY IDOCK:   -7.33 KCAL/MOL
REMARK 923 INTER-LIGAND FREE ENERGY PREDICTED BY IDOCK:   -6.47 KCAL/MOL
REMARK 924 INTRA-LIGAND FREE ENERGY PREDICTED BY IDOCK:   -0.86 KCAL/MOL
REMARK 927      BINDING AFFINITY PREDICTED BY RF-SCORE:    0.00 PKD
ROOT
HETATM    1  C   UNL     1     -10.997  12.002  64.231  1.00  0.00    -0.346 C  
HETATM    2  N   UNL     1     -10.550  11.339  65.461  1.00  0.00    -0.262 NA 
ENDROOT
BRANCH   2   3
HETATM    3  C   UNL     1      -9.687  12.227  66.271  1.00  0.00    -0.244 C  
BRANCH   3   4
HETATM    4  C   UNL     1     -10.445  13.107  67.256  1.00  0.00    -0.243 A  
HETATM    5  C   UNL     1     -10.382  14.532  67.225  1.00  0.00    -0.260 A  
HETATM    6  C   UNL     1     -11.214  12.464  68.245  1.00  0.00    -0.309 A  
HETATM    7  C   UNL     1      -9.662  15.270  66.255  1.00  0.00    -0.325 A  
HETATM    8  C   UNL     1      -9.570  16.662  66.305  1.00  0.00    -0.325 A  
HETATM    9  C   UNL     1     -11.889  13.200  69.210  1.00  0.00    -0.377 A  
HETATM   10  C   UNL     1     -10.214  17.360  67.316  1.00  0.00    -0.324 A  
HETATM   11  C   UNL     1     -11.808  14.589  69.206  1.00  0.00    -0.361 A  
HETATM   12  C   UNL     1     -11.058  15.265  68.233  1.00  0.00    -0.301 A  
HETATM   13  C   UNL     1     -10.964  16.666  68.265  1.00  0.00    -0.341 A  
ENDBRANCH   3   4
ENDBRANCH   2   3
BRANCH   2  14
HETATM   14  C   UNL     1      -9.878  10.077  65.124  1.00  0.00    -0.318 C  
BRANCH  14  15
HETATM   15  C   UNL     1      -9.610   9.230  66.336  1.00  0.00    -0.301 C  
HETATM   16  C   UNL     1     -10.578   8.770  67.145  1.00  0.00    -0.303 C  
BRANCH  16  17
HETATM   17  C   UNL     1     -10.359   7.856  68.276  1.00  0.00    -0.239 A  
HETATM   18  C   UNL     1      -9.688   8.239  69.443  1.00  0.00    -0.177 A  
HETATM   19  C   UNL     1     -10.687   5.646  69.238  1.00  0.00    -0.350 A  
HETATM   20  C   UNL     1     -10.871   6.554  68.192  1.00  0.00    -0.370 A  
HETATM   21  C   UNL     1      -9.998   6.033  70.383  1.00  0.00    -0.233 A  
HETATM   22  C   UNL     1      -9.503   7.331  70.489  1.00  0.00    -0.165 A  
ENDBRANCH  16  17
ENDBRANCH  14  15
ENDBRANCH   2  14
TORSDOF 5
ENDMDL
MODEL      117
REMARK 921   NORMALIZED FREE ENERGY PREDICTED BY IDOCK:   -4.62 KCAL/MOL
REMARK 922        TOTAL FREE ENERGY PREDICTED BY IDOCK:   -7.28 KCAL/MOL
REMARK 923 INTER-LIGAND FREE ENERGY PREDICTED BY IDOCK:   -6.63 KCAL/MOL
REMARK 924 INTRA-LIGAND FREE ENERGY PREDICTED BY IDOCK:   -0.65 KCAL/MOL
REMARK 927      BINDING AFFINITY PREDICTED BY RF-SCORE:    0.00 PKD
ROOT
HETATM    1  C   UNL     1      -6.473  16.385  69.397  1.00  0.00    -0.206 C  
HETATM    2  N   UNL     1      -6.515  15.441  68.276  1.00  0.00    -0.108 NA 
ENDROOT
BRANCH   2   3
HETATM    3  C   UNL     1      -6.703  16.142  66.986  1.00  0.00    -0.148 C  
BRANCH   3   4
HETATM    4  C   UNL     1      -6.920  17.644  67.116  1.00  0.00    -0.192 A  
HETATM    5  C   UNL     1      -8.211  18.225  67.285  1.00  0.00    -0.239 A  
HETATM    6  C   UNL     1      -5.786  18.474  67.038  1.00  0.00    -0.159 A  
HETATM    7  C   UNL     1      -9.406  17.475  67.403  1.00  0.00    -0.249 A  
HETATM    8  C   UNL     1     -10.657  18.088  67.496  1.00  0.00    -0.402 A  
HETATM    9  C   UNL     1      -5.911  19.856  67.095  1.00  0.00    -0.191 A  
HETATM   10  C   UNL     1     -10.748  19.472  67.494  1.00  0.00    -0.565 A  
HETATM   11  C   UNL     1      -7.171  20.432  67.228  1.00  0.00    -0.345 A  
HETATM   12  C   UNL     1      -8.323  19.638  67.315  1.00  0.00    -0.337 A  
HETATM   13  C   UNL     1      -9.587  20.241  67.419  1.00  0.00    -0.569 A  
ENDBRANCH   3   4
ENDBRANCH   2   3
BRANCH   2  14
HETATM   14  C   UNL     1      -7.563  14.439  68.515  1.00  0.00    -0.125 C  
BRANCH  14  15
HETATM   15  C   UNL     1      -8.384  14.166  67.286  1.00  0.00    -0.212 C  
HETATM   16  C   UNL     1      -9.632  13.669  67.326  1.00  0.00    -0.238 C  
BRANCH  16  17
HETATM   17  C   UNL     1     -10.498  13.487  66.152  1.00  0.00    -0.296 A  
HETATM   18  C   UNL     1     -11.484  14.409  65.785  1.00  0.00    -0.335 A  
HETATM   19  C   UNL     1     -11.105  12.132  64.224  1.00  0.00    -0.403 A  
HETATM   20  C   UNL     1     -10.305  12.354  65.349  1.00  0.00    -0.303 A  
HETATM   21  C   UNL     1     -12.097  13.046  63.884  1.00  0.00    -0.541 A  
HETATM   22  C   UNL     1     -12.285  14.187  64.661  1.00  0.00    -0.465 A  
ENDBRANCH  16  17
ENDBRANCH  14  15
ENDBRANCH   2  14
TORSDOF 5
ENDMDL
MODEL      118
REMARK 921   NORMALIZED FREE ENERGY PREDICTED BY IDOCK:   -4.60 KCAL/MOL
REMARK 922        TOTAL FREE ENERGY PREDICTED BY IDOCK:   -7.26 KCAL/MOL
REMARK 923 INTER-LIGAND FREE ENERGY PREDICTED BY IDOCK:   -6.71 KCAL/MOL
REMARK 924 INTRA-LIGAND FREE ENERGY PREDICTED BY IDOCK:   -0.55 KCAL/MOL
REMARK 927      BINDING AFFINITY PREDICTED BY RF-SCORE:    0.00 PKD
ROOT
HETATM    1  C   UNL     1     -11.288  11.292  69.884  1.00  0.00    -0.249 C  
HETATM    2  N   UNL     1     -10.337  10.828  68.869  1.00  0.00    -0.193 NA 
ENDROOT
BRANCH   2   3
HETATM    3  C   UNL     1     -11.009  10.013  67.832  1.00  0.00    -0.252 C  
BRANCH   3   4
HETATM    4  C   UNL     1     -10.533  10.290  66.412  1.00  0.00    -0.233 A  
HETATM    5  C   UNL     1     -11.018  11.383  65.636  1.00  0.00    -0.254 A  
HETATM    6  C   UNL     1      -9.591   9.403  65.857  1.00  0.00    -0.338 A  
HETATM    7  C   UNL     1     -11.942  12.344  66.113  1.00  0.00    -0.397 A  
HETATM    8  C   UNL     1     -12.444  13.357  65.294  1.00  0.00    -0.532 A  
HETATM    9  C   UNL     1      -9.151   9.562  64.550  1.00  0.00    -0.250 A  
HETATM   10  C   UNL     1     -12.022  13.451  63.976  1.00  0.00    -0.520 A  
HETATM   11  C   UNL     1      -9.644  10.607  63.774  1.00  0.00    -0.354 A  
HETATM   12  C   UNL     1     -10.577  11.514  64.295  1.00  0.00    -0.405 A  
HETATM   13  C   UNL     1     -11.083  12.544  63.485  1.00  0.00    -0.497 A  
ENDBRANCH   3   4
ENDBRANCH   2   3
BRANCH   2  14
HETATM   14  C   UNL     1      -9.241  10.096  69.518  1.00  0.00    -0.204 C  
BRANCH  14  15
HETATM   15  C   UNL     1      -9.736   8.975  70.387  1.00  0.00    -0.245 C  
HETATM   16  C   UNL     1      -8.961   8.328  71.273  1.00  0.00    -0.200 C  
BRANCH  16  17
HETATM   17  C   UNL     1      -9.438   7.299  72.208  1.00  0.00    -0.167 A  
HETATM   18  C   UNL     1      -9.707   7.563  73.556  1.00  0.00    -0.358 A  
HETATM   19  C   UNL     1     -10.110   4.989  72.569  1.00  0.00    -0.231 A  
HETATM   20  C   UNL     1      -9.661   6.004  71.720  1.00  0.00    -0.168 A  
HETATM   21  C   UNL     1     -10.352   5.260  73.912  1.00  0.00    -0.288 A  
HETATM   22  C   UNL     1     -10.156   6.548  74.405  1.00  0.00    -0.371 A  
ENDBRANCH  16  17
ENDBRANCH  14  15
ENDBRANCH   2  14
TORSDOF 5
ENDMDL
MODEL      119
REMARK 921   NORMALIZED FREE ENERGY PREDICTED BY IDOCK:   -4.60 KCAL/MOL
REMARK 922        TOTAL FREE ENERGY PREDICTED BY IDOCK:   -7.25 KCAL/MOL
REMARK 923 INTER-LIGAND FREE ENERGY PREDICTED BY IDOCK:   -6.53 KCAL/MOL
REMARK 924 INTRA-LIGAND FREE ENERGY PREDICTED BY IDOCK:   -0.72 KCAL/MOL
REMARK 927      BINDING AFFINITY PREDICTED BY RF-SCORE:    0.00 PKD
ROOT
HETATM    1  C   UNL     1      -8.609   7.593  68.219  1.00  0.00    -0.124 C  
HETATM    2  N   UNL     1     -10.058   7.807  68.171  1.00  0.00    -0.179 NA 
ENDROOT
BRANCH   2   3
HETATM    3  C   UNL     1     -10.799   6.555  68.439  1.00  0.00    -0.289 C  
BRANCH   3   4
HETATM    4  C   UNL     1     -10.935   6.213  69.917  1.00  0.00    -0.458 A  
HETATM    5  C   UNL     1     -10.400   5.019  70.485  1.00  0.00    -0.285 A  
HETATM    6  C   UNL     1     -11.643   7.117  70.732  1.00  0.00    -0.358 A  
HETATM    7  C   UNL     1      -9.651   4.064  69.757  1.00  0.00    -0.280 A  
HETATM    8  C   UNL     1      -9.207   2.874  70.338  1.00  0.00    -0.211 A  
HETATM    9  C   UNL     1     -11.853   6.846  72.077  1.00  0.00    -0.345 A  
HETATM   10  C   UNL     1      -9.483   2.613  71.672  1.00  0.00    -0.207 A  
HETATM   11  C   UNL     1     -11.362   5.668  72.633  1.00  0.00    -0.356 A  
HETATM   12  C   UNL     1     -10.647   4.747  71.855  1.00  0.00    -0.150 A  
HETATM   13  C   UNL     1     -10.186   3.551  72.428  1.00  0.00    -0.205 A  
ENDBRANCH   3   4
ENDBRANCH   2   3
BRANCH   2  14
HETATM   14  C   UNL     1     -10.427   8.397  66.876  1.00  0.00    -0.289 C  
BRANCH  14  15
HETATM   15  C   UNL     1     -10.784   9.852  66.991  1.00  0.00    -0.237 C  
HETATM   16  C   UNL     1     -11.318  10.397  68.098  1.00  0.00    -0.284 C  
BRANCH  16  17
HETATM   17  C   UNL     1     -11.583  11.831  68.279  1.00  0.00    -0.373 A  
HETATM   18  C   UNL     1     -11.574  12.746  67.220  1.00  0.00    -0.420 A  
HETATM   19  C   UNL     1     -12.143  13.651  69.793  1.00  0.00    -0.396 A  
HETATM   20  C   UNL     1     -11.887  12.297  69.566  1.00  0.00    -0.380 A  
HETATM   21  C   UNL     1     -12.108  14.554  68.735  1.00  0.00    -0.256 A  
HETATM   22  C   UNL     1     -11.828  14.101  67.447  1.00  0.00    -0.447 A  
ENDBRANCH  16  17
ENDBRANCH  14  15
ENDBRANCH   2  14
TORSDOF 5
ENDMDL
MODEL      120
REMARK 921   NORMALIZED FREE ENERGY PREDICTED BY IDOCK:   -4.59 KCAL/MOL
REMARK 922        TOTAL FREE ENERGY PREDICTED BY IDOCK:   -7.24 KCAL/MOL
REMARK 923 INTER-LIGAND FREE ENERGY PREDICTED BY IDOCK:   -6.56 KCAL/MOL
REMARK 924 INTRA-LIGAND FREE ENERGY PREDICTED BY IDOCK:   -0.68 KCAL/MOL
REMARK 927      BINDING AFFINITY PREDICTED BY RF-SCORE:    0.00 PKD
ROOT
HETATM    1  C   UNL     1     -11.062  13.445  66.198  1.00  0.00    -0.288 C  
HETATM    2  N   UNL     1     -10.606  12.454  67.177  1.00  0.00    -0.223 NA 
ENDROOT
BRANCH   2   3
HETATM    3  C   UNL     1     -10.046  11.256  66.513  1.00  0.00    -0.217 C  
BRANCH   3   4
HETATM    4  C   UNL     1      -9.288  10.320  67.446  1.00  0.00    -0.163 A  
HETATM    5  C   UNL     1      -9.608   8.937  67.580  1.00  0.00    -0.183 A  
HETATM    6  C   UNL     1      -8.247  10.874  68.217  1.00  0.00    -0.127 A  
HETATM    7  C   UNL     1     -10.615   8.283  66.831  1.00  0.00    -0.302 A  
HETATM    8  C   UNL     1     -10.943   6.943  67.045  1.00  0.00    -0.404 A  
HETATM    9  C   UNL     1      -7.546  10.094  69.128  1.00  0.00    -0.103 A  
HETATM   10  C   UNL     1     -10.257   6.210  68.003  1.00  0.00    -0.210 A  
HETATM   11  C   UNL     1      -7.873   8.751  69.287  1.00  0.00    -0.100 A  
HETATM   12  C   UNL     1      -8.899   8.164  68.533  1.00  0.00    -0.134 A  
HETATM   13  C   UNL     1      -9.233   6.813  68.731  1.00  0.00    -0.130 A  
ENDBRANCH   3   4
ENDBRANCH   2   3
BRANCH   2  14
HETATM   14  C   UNL     1     -11.710  12.114  68.085  1.00  0.00    -0.341 C  
BRANCH  14  15
HETATM   15  C   UNL     1     -11.615  12.839  69.398  1.00  0.00    -0.361 C  
HETATM   16  C   UNL     1     -12.269  13.983  69.660  1.00  0.00    -0.383 C  
BRANCH  16  17
HETATM   17  C   UNL     1     -12.280  14.661  70.964  1.00  0.00    -0.399 A  
HETATM   18  C   UNL     1     -11.724  15.929  71.166  1.00  0.00    -0.490 A  
HETATM   19  C   UNL     1     -12.935  14.619  73.307  1.00  0.00    -0.569 A  
HETATM   20  C   UNL     1     -12.901  14.019  72.045  1.00  0.00    -0.415 A  
HETATM   21  C   UNL     1     -12.358  15.870  73.499  1.00  0.00    -0.660 A  
HETATM   22  C   UNL     1     -11.756  16.528  72.428  1.00  0.00    -0.358 A  
ENDBRANCH  16  17
ENDBRANCH  14  15
ENDBRANCH   2  14
TORSDOF 5
ENDMDL
MODEL      121
REMARK 921   NORMALIZED FREE ENERGY PREDICTED BY IDOCK:   -4.56 KCAL/MOL
REMARK 922        TOTAL FREE ENERGY PREDICTED BY IDOCK:   -7.21 KCAL/MOL
REMARK 923 INTER-LIGAND FREE ENERGY PREDICTED BY IDOCK:   -6.39 KCAL/MOL
REMARK 924 INTRA-LIGAND FREE ENERGY PREDICTED BY IDOCK:   -0.82 KCAL/MOL
REMARK 927      BINDING AFFINITY PREDICTED BY RF-SCORE:    0.00 PKD
ROOT
HETATM    1  C   UNL     1      -9.069  11.803  67.825  1.00  0.00    -0.178 C  
HETATM    2  N   UNL     1      -9.977  11.180  66.857  1.00  0.00    -0.193 NA 
ENDROOT
BRANCH   2   3
HETATM    3  C   UNL     1     -11.367  11.653  67.036  1.00  0.00    -0.305 C  
BRANCH   3   4
HETATM    4  C   UNL     1     -11.503  12.863  67.952  1.00  0.00    -0.362 A  
HETATM    5  C   UNL     1     -11.944  12.760  69.305  1.00  0.00    -0.300 A  
HETATM    6  C   UNL     1     -11.197  14.126  67.411  1.00  0.00    -0.334 A  
HETATM    7  C   UNL     1     -12.248  11.536  69.946  1.00  0.00    -0.328 A  
HETATM    8  C   UNL     1     -12.745  11.489  71.251  1.00  0.00    -0.469 A  
HETATM    9  C   UNL     1     -11.348  15.279  68.170  1.00  0.00    -0.346 A  
HETATM   10  C   UNL     1     -12.934  12.666  71.959  1.00  0.00    -0.379 A  
HETATM   11  C   UNL     1     -11.809  15.191  69.481  1.00  0.00    -0.358 A  
HETATM   12  C   UNL     1     -12.117  13.950  70.056  1.00  0.00    -0.411 A  
HETATM   13  C   UNL     1     -12.608  13.887  71.370  1.00  0.00    -0.444 A  
ENDBRANCH   3   4
ENDBRANCH   2   3
BRANCH   2  14
HETATM   14  C   UNL     1      -9.876   9.718  66.958  1.00  0.00    -0.193 C  
BRANCH  14  15
HETATM   15  C   UNL     1      -9.713   9.252  68.377  1.00  0.00    -0.168 C  
HETATM   16  C   UNL     1     -10.546   8.381  68.970  1.00  0.00    -0.172 C  
BRANCH  16  17
HETATM   17  C   UNL     1     -10.357   7.827  70.319  1.00  0.00    -0.215 A  
HETATM   18  C   UNL     1      -9.407   6.841  70.610  1.00  0.00    -0.162 A  
HETATM   19  C   UNL     1     -11.004   7.838  72.664  1.00  0.00    -0.422 A  
HETATM   20  C   UNL     1     -11.142   8.333  71.365  1.00  0.00    -0.302 A  
HETATM   21  C   UNL     1     -10.073   6.840  72.934  1.00  0.00    -0.201 A  
HETATM   22  C   UNL     1      -9.270   6.345  71.909  1.00  0.00    -0.149 A  
ENDBRANCH  16  17
ENDBRANCH  14  15
ENDBRANCH   2  14
TORSDOF 5
ENDMDL
MODEL      122
REMARK 921   NORMALIZED FREE ENERGY PREDICTED BY IDOCK:   -4.56 KCAL/MOL
REMARK 922        TOTAL FREE ENERGY PREDICTED BY IDOCK:   -7.20 KCAL/MOL
REMARK 923 INTER-LIGAND FREE ENERGY PREDICTED BY IDOCK:   -6.92 KCAL/MOL
REMARK 924 INTRA-LIGAND FREE ENERGY PREDICTED BY IDOCK:   -0.28 KCAL/MOL
REMARK 927      BINDING AFFINITY PREDICTED BY RF-SCORE:    0.00 PKD
ROOT
HETATM    1  C   UNL     1     -10.641   9.370  71.665  1.00  0.00    -0.178 C  
HETATM    2  N   UNL     1     -11.919   8.653  71.715  1.00  0.00    -0.313 NA 
ENDROOT
BRANCH   2   3
HETATM    3  C   UNL     1     -12.102   7.791  70.527  1.00  0.00     0.090 C  
BRANCH   3   4
HETATM    4  C   UNL     1     -11.029   6.723  70.357  1.00  0.00    -0.330 A  
HETATM    5  C   UNL     1     -10.822   5.681  71.308  1.00  0.00    -0.289 A  
HETATM    6  C   UNL     1     -10.205   6.804  69.219  1.00  0.00    -0.197 A  
HETATM    7  C   UNL     1     -11.614   5.499  72.467  1.00  0.00    -0.272 A  
HETATM    8  C   UNL     1     -11.330   4.506  73.408  1.00  0.00    -0.376 A  
HETATM    9  C   UNL     1      -9.172   5.897  69.024  1.00  0.00    -0.132 A  
HETATM   10  C   UNL     1     -10.255   3.653  73.207  1.00  0.00    -0.223 A  
HETATM   11  C   UNL     1      -8.942   4.895  69.963  1.00  0.00    -0.143 A  
HETATM   12  C   UNL     1      -9.746   4.780  71.106  1.00  0.00    -0.249 A  
HETATM   13  C   UNL     1      -9.478   3.780  72.056  1.00  0.00    -0.200 A  
ENDBRANCH   3   4
ENDBRANCH   2   3
BRANCH   2  14
HETATM   14  C   UNL     1     -13.018   9.616  71.869  1.00  0.00    -0.435 C  
BRANCH  14  15
HETATM   15  C   UNL     1     -12.571  11.034  71.651  1.00  0.00    -0.402 C  
HETATM   16  C   UNL     1     -13.303  12.103  72.008  1.00  0.00    -0.470 C  
BRANCH  16  17
HETATM   17  C   UNL     1     -12.852  13.499  71.904  1.00  0.00    -0.368 A  
HETATM   18  C   UNL     1     -12.844  14.379  72.992  1.00  0.00    -0.521 A  
HETATM   19  C   UNL     1     -11.946  15.276  70.511  1.00  0.00    -0.384 A  
HETATM   20  C   UNL     1     -12.382  13.958  70.665  1.00  0.00    -0.451 A  
HETATM   21  C   UNL     1     -11.965  16.147  71.596  1.00  0.00    -0.528 A  
HETATM   22  C   UNL     1     -12.409  15.698  72.838  1.00  0.00    -0.552 A  
ENDBRANCH  16  17
ENDBRANCH  14  15
ENDBRANCH   2  14
TORSDOF 5
ENDMDL
MODEL      123
REMARK 921   NORMALIZED FREE ENERGY PREDICTED BY IDOCK:   -4.55 KCAL/MOL
REMARK 922        TOTAL FREE ENERGY PREDICTED BY IDOCK:   -7.19 KCAL/MOL
REMARK 923 INTER-LIGAND FREE ENERGY PREDICTED BY IDOCK:   -6.77 KCAL/MOL
REMARK 924 INTRA-LIGAND FREE ENERGY PREDICTED BY IDOCK:   -0.42 KCAL/MOL
REMARK 927      BINDING AFFINITY PREDICTED BY RF-SCORE:    0.00 PKD
ROOT
HETATM    1  C   UNL     1     -11.416  15.951  71.450  1.00  0.00    -0.417 C  
HETATM    2  N   UNL     1     -11.927  14.880  70.589  1.00  0.00    -0.284 NA 
ENDROOT
BRANCH   2   3
HETATM    3  C   UNL     1     -12.024  15.319  69.180  1.00  0.00    -0.280 C  
BRANCH   3   4
HETATM    4  C   UNL     1     -10.794  16.056  68.667  1.00  0.00    -0.301 A  
HETATM    5  C   UNL     1      -9.576  15.389  68.339  1.00  0.00    -0.200 A  
HETATM    6  C   UNL     1     -10.878  17.456  68.544  1.00  0.00    -0.190 A  
HETATM    7  C   UNL     1      -9.401  13.986  68.403  1.00  0.00    -0.210 A  
HETATM    8  C   UNL     1      -8.170  13.382  68.140  1.00  0.00    -0.160 A  
HETATM    9  C   UNL     1      -9.781  18.200  68.134  1.00  0.00    -0.331 A  
HETATM   10  C   UNL     1      -7.080  14.164  67.786  1.00  0.00    -0.185 A  
HETATM   11  C   UNL     1      -8.579  17.561  67.842  1.00  0.00    -0.239 A  
HETATM   12  C   UNL     1      -8.459  16.169  67.947  1.00  0.00    -0.166 A  
HETATM   13  C   UNL     1      -7.229  15.546  67.676  1.00  0.00    -0.203 A  
ENDBRANCH   3   4
ENDBRANCH   2   3
BRANCH   2  14
HETATM   14  C   UNL     1     -13.216  14.403  71.107  1.00  0.00    -0.350 C  
BRANCH  14  15
HETATM   15  C   UNL     1     -13.156  12.973  71.565  1.00  0.00    -0.400 C  
HETATM   16  C   UNL     1     -12.579  11.992  70.852  1.00  0.00    -0.347 C  
BRANCH  16  17
HETATM   17  C   UNL     1     -12.412  10.607  71.316  1.00  0.00    -0.515 A  
HETATM   18  C   UNL     1     -13.373   9.943  72.087  1.00  0.00    -0.498 A  
HETATM   19  C   UNL     1     -11.044   8.596  71.362  1.00  0.00    -0.343 A  
HETATM   20  C   UNL     1     -11.252   9.913  70.944  1.00  0.00    -0.433 A  
HETATM   21  C   UNL     1     -11.997   7.956  72.148  1.00  0.00    -0.379 A  
HETATM   22  C   UNL     1     -13.164   8.626  72.506  1.00  0.00    -0.340 A  
ENDBRANCH  16  17
ENDBRANCH  14  15
ENDBRANCH   2  14
TORSDOF 5
ENDMDL
MODEL      124
REMARK 921   NORMALIZED FREE ENERGY PREDICTED BY IDOCK:   -4.53 KCAL/MOL
REMARK 922        TOTAL FREE ENERGY PREDICTED BY IDOCK:   -7.16 KCAL/MOL
REMARK 923 INTER-LIGAND FREE ENERGY PREDICTED BY IDOCK:   -6.60 KCAL/MOL
REMARK 924 INTRA-LIGAND FREE ENERGY PREDICTED BY IDOCK:   -0.57 KCAL/MOL
REMARK 927      BINDING AFFINITY PREDICTED BY RF-SCORE:    0.00 PKD
ROOT
HETATM    1  C   UNL     1      -8.968   7.185  66.285  1.00  0.00    -0.155 C  
HETATM    2  N   UNL     1      -9.143   7.323  67.734  1.00  0.00    -0.125 NA 
ENDROOT
BRANCH   2   3
HETATM    3  C   UNL     1     -10.411   6.708  68.186  1.00  0.00    -0.190 C  
BRANCH   3   4
HETATM    4  C   UNL     1     -10.285   5.881  69.460  1.00  0.00    -0.288 A  
HETATM    5  C   UNL     1     -10.533   6.420  70.757  1.00  0.00    -0.270 A  
HETATM    6  C   UNL     1      -9.884   4.539  69.327  1.00  0.00    -0.241 A  
HETATM    7  C   UNL     1     -10.967   7.747  70.991  1.00  0.00    -0.260 A  
HETATM    8  C   UNL     1     -11.129   8.254  72.283  1.00  0.00    -0.429 A  
HETATM    9  C   UNL     1      -9.697   3.739  70.447  1.00  0.00    -0.225 A  
HETATM   10  C   UNL     1     -10.880   7.441  73.379  1.00  0.00    -0.362 A  
HETATM   11  C   UNL     1      -9.906   4.266  71.718  1.00  0.00    -0.250 A  
HETATM   12  C   UNL     1     -10.313   5.597  71.889  1.00  0.00    -0.266 A  
HETATM   13  C   UNL     1     -10.489   6.117  73.182  1.00  0.00    -0.254 A  
ENDBRANCH   3   4
ENDBRANCH   2   3
BRANCH   2  14
HETATM   14  C   UNL     1      -9.056   8.741  68.108  1.00  0.00    -0.140 C  
BRANCH  14  15
HETATM   15  C   UNL     1     -10.070   9.585  67.390  1.00  0.00    -0.262 C  
HETATM   16  C   UNL     1      -9.742  10.590  66.561  1.00  0.00    -0.237 C  
BRANCH  16  17
HETATM   17  C   UNL     1     -10.704  11.367  65.765  1.00  0.00    -0.309 A  
HETATM   18  C   UNL     1     -11.617  12.260  66.336  1.00  0.00    -0.445 A  
HETATM   19  C   UNL     1     -11.579  11.940  63.568  1.00  0.00    -0.537 A  
HETATM   20  C   UNL     1     -10.683  11.227  64.370  1.00  0.00    -0.407 A  
HETATM   21  C   UNL     1     -12.498  12.807  64.151  1.00  0.00    -0.450 A  
HETATM   22  C   UNL     1     -12.514  12.971  65.535  1.00  0.00    -0.496 A  
ENDBRANCH  16  17
ENDBRANCH  14  15
ENDBRANCH   2  14
TORSDOF 5
ENDMDL
MODEL      125
REMARK 921   NORMALIZED FREE ENERGY PREDICTED BY IDOCK:   -4.53 KCAL/MOL
REMARK 922        TOTAL FREE ENERGY PREDICTED BY IDOCK:   -7.16 KCAL/MOL
REMARK 923 INTER-LIGAND FREE ENERGY PREDICTED BY IDOCK:   -6.70 KCAL/MOL
REMARK 924 INTRA-LIGAND FREE ENERGY PREDICTED BY IDOCK:   -0.46 KCAL/MOL
REMARK 927      BINDING AFFINITY PREDICTED BY RF-SCORE:    0.00 PKD
ROOT
HETATM    1  C   UNL     1     -10.477  13.345  68.181  1.00  0.00    -0.245 C  
HETATM    2  N   UNL     1      -9.464  13.353  67.121  1.00  0.00    -0.235 NA 
ENDROOT
BRANCH   2   3
HETATM    3  C   UNL     1      -9.555  14.578  66.295  1.00  0.00    -0.304 C  
BRANCH   3   4
HETATM    4  C   UNL     1      -8.579  15.676  66.696  1.00  0.00    -0.330 A  
HETATM    5  C   UNL     1      -8.905  17.063  66.622  1.00  0.00    -0.282 A  
HETATM    6  C   UNL     1      -7.299  15.282  67.131  1.00  0.00    -0.178 A  
HETATM    7  C   UNL     1     -10.170  17.557  66.224  1.00  0.00    -0.356 A  
HETATM    8  C   UNL     1     -10.422  18.925  66.098  1.00  0.00    -0.521 A  
HETATM    9  C   UNL     1      -6.339  16.229  67.463  1.00  0.00    -0.189 A  
HETATM   10  C   UNL     1      -9.421  19.841  66.386  1.00  0.00    -0.496 A  
HETATM   11  C   UNL     1      -6.638  17.585  67.363  1.00  0.00    -0.180 A  
HETATM   12  C   UNL     1      -7.903  18.015  66.939  1.00  0.00    -0.247 A  
HETATM   13  C   UNL     1      -8.174  19.388  66.817  1.00  0.00    -0.311 A  
ENDBRANCH   3   4
ENDBRANCH   2   3
BRANCH   2  14
HETATM   14  C   UNL     1      -9.589  12.134  66.311  1.00  0.00    -0.237 C  
BRANCH  14  15
HETATM   15  C   UNL     1     -10.082  10.963  67.112  1.00  0.00    -0.235 C  
HETATM   16  C   UNL     1      -9.939   9.686  66.720  1.00  0.00    -0.289 C  
BRANCH  16  17
HETATM   17  C   UNL     1     -10.317   8.515  67.526  1.00  0.00    -0.334 A  
HETATM   18  C   UNL     1     -10.655   7.280  66.961  1.00  0.00    -0.415 A  
HETATM   19  C   UNL     1     -10.663   7.555  69.734  1.00  0.00    -0.249 A  
HETATM   20  C   UNL     1     -10.308   8.636  68.923  1.00  0.00    -0.228 A  
HETATM   21  C   UNL     1     -11.020   6.339  69.159  1.00  0.00    -0.442 A  
HETATM   22  C   UNL     1     -11.011   6.200  67.772  1.00  0.00    -0.400 A  
ENDBRANCH  16  17
ENDBRANCH  14  15
ENDBRANCH   2  14
TORSDOF 5
ENDMDL
MODEL      126
REMARK 921   NORMALIZED FREE ENERGY PREDICTED BY IDOCK:   -4.53 KCAL/MOL
REMARK 922        TOTAL FREE ENERGY PREDICTED BY IDOCK:   -7.16 KCAL/MOL
REMARK 923 INTER-LIGAND FREE ENERGY PREDICTED BY IDOCK:   -6.89 KCAL/MOL
REMARK 924 INTRA-LIGAND FREE ENERGY PREDICTED BY IDOCK:   -0.27 KCAL/MOL
REMARK 927      BINDING AFFINITY PREDICTED BY RF-SCORE:    0.00 PKD
ROOT
HETATM    1  C   UNL     1     -11.782  11.987  67.175  1.00  0.00    -0.273 C  
HETATM    2  N   UNL     1     -11.595  13.035  66.167  1.00  0.00    -0.347 NA 
ENDROOT
BRANCH   2   3
HETATM    3  C   UNL     1     -10.367  12.810  65.373  1.00  0.00    -0.293 C  
BRANCH   3   4
HETATM    4  C   UNL     1      -9.569  11.582  65.791  1.00  0.00    -0.259 A  
HETATM    5  C   UNL     1      -8.585  11.616  66.824  1.00  0.00    -0.180 A  
HETATM    6  C   UNL     1      -9.812  10.381  65.098  1.00  0.00    -0.378 A  
HETATM    7  C   UNL     1      -8.289  12.765  67.595  1.00  0.00    -0.175 A  
HETATM    8  C   UNL     1      -7.268  12.772  68.548  1.00  0.00    -0.114 A  
HETATM    9  C   UNL     1      -9.085   9.234  65.388  1.00  0.00    -0.277 A  
HETATM   10  C   UNL     1      -6.526  11.622  68.772  1.00  0.00    -0.064 A  
HETATM   11  C   UNL     1      -8.101   9.267  66.372  1.00  0.00    -0.107 A  
HETATM   12  C   UNL     1      -7.835  10.442  67.088  1.00  0.00    -0.110 A  
HETATM   13  C   UNL     1      -6.818  10.462  68.056  1.00  0.00    -0.069 A  
ENDBRANCH   3   4
ENDBRANCH   2   3
BRANCH   2  14
HETATM   14  C   UNL     1     -11.593  14.351  66.821  1.00  0.00    -0.385 C  
BRANCH  14  15
HETATM   15  C   UNL     1     -12.117  14.293  68.228  1.00  0.00    -0.278 C  
HETATM   16  C   UNL     1     -11.477  14.833  69.279  1.00  0.00    -0.322 C  
BRANCH  16  17
HETATM   17  C   UNL     1     -12.011  14.883  70.648  1.00  0.00    -0.363 A  
HETATM   18  C   UNL     1     -12.819  13.876  71.186  1.00  0.00    -0.423 A  
HETATM   19  C   UNL     1     -12.154  16.073  72.765  1.00  0.00    -0.635 A  
HETATM   20  C   UNL     1     -11.669  15.975  71.458  1.00  0.00    -0.554 A  
HETATM   21  C   UNL     1     -12.975  15.075  73.280  1.00  0.00    -0.642 A  
HETATM   22  C   UNL     1     -13.305  13.973  72.493  1.00  0.00    -0.639 A  
ENDBRANCH  16  17
ENDBRANCH  14  15
ENDBRANCH   2  14
TORSDOF 5
ENDMDL
MODEL      127
REMARK 921   NORMALIZED FREE ENERGY PREDICTED BY IDOCK:   -4.53 KCAL/MOL
REMARK 922        TOTAL FREE ENERGY PREDICTED BY IDOCK:   -7.16 KCAL/MOL
REMARK 923 INTER-LIGAND FREE ENERGY PREDICTED BY IDOCK:   -6.67 KCAL/MOL
REMARK 924 INTRA-LIGAND FREE ENERGY PREDICTED BY IDOCK:   -0.49 KCAL/MOL
REMARK 927      BINDING AFFINITY PREDICTED BY RF-SCORE:    0.00 PKD
ROOT
HETATM    1  C   UNL     1     -12.122  11.256  70.523  1.00  0.00    -0.387 C  
HETATM    2  N   UNL     1     -11.386  10.000  70.344  1.00  0.00    -0.296 NA 
ENDROOT
BRANCH   2   3
HETATM    3  C   UNL     1     -11.104   9.349  71.643  1.00  0.00    -0.339 C  
BRANCH   3   4
HETATM    4  C   UNL     1     -10.594   7.918  71.527  1.00  0.00    -0.262 A  
HETATM    5  C   UNL     1      -9.533   7.411  72.333  1.00  0.00    -0.189 A  
HETATM    6  C   UNL     1     -11.196   7.089  70.561  1.00  0.00    -0.335 A  
HETATM    7  C   UNL     1      -8.885   8.155  73.348  1.00  0.00    -0.322 A  
HETATM    8  C   UNL     1      -7.802   7.641  74.064  1.00  0.00    -0.195 A  
HETATM    9  C   UNL     1     -10.748   5.790  70.363  1.00  0.00    -0.372 A  
HETATM   10  C   UNL     1      -7.348   6.357  73.800  1.00  0.00    -0.085 A  
HETATM   11  C   UNL     1      -9.692   5.296  71.123  1.00  0.00    -0.232 A  
HETATM   12  C   UNL     1      -9.073   6.090  72.098  1.00  0.00    -0.142 A  
HETATM   13  C   UNL     1      -7.989   5.583  72.834  1.00  0.00    -0.101 A  
ENDBRANCH   3   4
ENDBRANCH   2   3
BRANCH   2  14
HETATM   14  C   UNL     1     -10.158  10.254  69.578  1.00  0.00    -0.235 C  
BRANCH  14  15
HETATM   15  C   UNL     1     -10.416  11.047  68.328  1.00  0.00    -0.212 C  
HETATM   16  C   UNL     1     -10.471  10.499  67.103  1.00  0.00    -0.302 C  
BRANCH  16  17
HETATM   17  C   UNL     1     -10.822  11.227  65.875  1.00  0.00    -0.264 A  
HETATM   18  C   UNL     1     -10.246  10.945  64.632  1.00  0.00    -0.411 A  
HETATM   19  C   UNL     1     -12.168  12.954  64.814  1.00  0.00    -0.499 A  
HETATM   20  C   UNL     1     -11.800  12.229  65.951  1.00  0.00    -0.420 A  
HETATM   21  C   UNL     1     -11.570  12.678  63.588  1.00  0.00    -0.575 A  
HETATM   22  C   UNL     1     -10.612  11.670  63.495  1.00  0.00    -0.496 A  
ENDBRANCH  16  17
ENDBRANCH  14  15
ENDBRANCH   2  14
TORSDOF 5
ENDMDL
MODEL      128
REMARK 921   NORMALIZED FREE ENERGY PREDICTED BY IDOCK:   -4.52 KCAL/MOL
REMARK 922        TOTAL FREE ENERGY PREDICTED BY IDOCK:   -7.15 KCAL/MOL
REMARK 923 INTER-LIGAND FREE ENERGY PREDICTED BY IDOCK:   -6.45 KCAL/MOL
REMARK 924 INTRA-LIGAND FREE ENERGY PREDICTED BY IDOCK:   -0.70 KCAL/MOL
REMARK 927      BINDING AFFINITY PREDICTED BY RF-SCORE:    0.00 PKD
ROOT
HETATM    1  C   UNL     1     -12.289  12.500  65.040  1.00  0.00    -0.453 C  
HETATM    2  N   UNL     1     -11.573  12.841  66.272  1.00  0.00    -0.358 NA 
ENDROOT
BRANCH   2   3
HETATM    3  C   UNL     1     -11.619  11.732  67.250  1.00  0.00    -0.269 C  
BRANCH   3   4
HETATM    4  C   UNL     1     -10.250  11.249  67.713  1.00  0.00    -0.203 A  
HETATM    5  C   UNL     1     -10.060  10.509  68.917  1.00  0.00    -0.215 A  
HETATM    6  C   UNL     1      -9.139  11.579  66.913  1.00  0.00    -0.181 A  
HETATM    7  C   UNL     1     -11.114  10.106  69.772  1.00  0.00    -0.328 A  
HETATM    8  C   UNL     1     -10.875   9.444  70.978  1.00  0.00    -0.406 A  
HETATM    9  C   UNL     1      -7.855  11.219  67.299  1.00  0.00    -0.141 A  
HETATM   10  C   UNL     1      -9.573   9.149  71.357  1.00  0.00    -0.316 A  
HETATM   11  C   UNL     1      -7.657  10.525  68.489  1.00  0.00    -0.097 A  
HETATM   12  C   UNL     1      -8.739  10.173  69.307  1.00  0.00    -0.186 A  
HETATM   13  C   UNL     1      -8.514   9.499  70.519  1.00  0.00    -0.213 A  
ENDBRANCH   3   4
ENDBRANCH   2   3
BRANCH   2  14
HETATM   14  C   UNL     1     -12.117  14.087  66.830  1.00  0.00    -0.447 C  
BRANCH  14  15
HETATM   15  C   UNL     1     -11.067  15.151  66.987  1.00  0.00    -0.328 C  
HETATM   16  C   UNL     1     -11.052  16.030  68.003  1.00  0.00    -0.334 C  
BRANCH  16  17
HETATM   17  C   UNL     1      -9.985  17.013  68.242  1.00  0.00    -0.285 A  
HETATM   18  C   UNL     1      -8.658  16.649  68.493  1.00  0.00    -0.234 A  
HETATM   19  C   UNL     1      -9.333  19.351  68.411  1.00  0.00    -0.426 A  
HETATM   20  C   UNL     1     -10.309  18.376  68.186  1.00  0.00    -0.393 A  
HETATM   21  C   UNL     1      -8.022  18.974  68.682  1.00  0.00    -0.387 A  
HETATM   22  C   UNL     1      -7.682  17.623  68.719  1.00  0.00    -0.246 A  
ENDBRANCH  16  17
ENDBRANCH  14  15
ENDBRANCH   2  14
TORSDOF 5
ENDMDL
MODEL      129
REMARK 921   NORMALIZED FREE ENERGY PREDICTED BY IDOCK:   -4.51 KCAL/MOL
REMARK 922        TOTAL FREE ENERGY PREDICTED BY IDOCK:   -7.13 KCAL/MOL
REMARK 923 INTER-LIGAND FREE ENERGY PREDICTED BY IDOCK:   -6.47 KCAL/MOL
REMARK 924 INTRA-LIGAND FREE ENERGY PREDICTED BY IDOCK:   -0.66 KCAL/MOL
REMARK 927      BINDING AFFINITY PREDICTED BY RF-SCORE:    0.00 PKD
ROOT
HETATM    1  C   UNL     1     -12.303  14.554  70.797  1.00  0.00    -0.340 C  
HETATM    2  N   UNL     1     -11.327  14.869  69.750  1.00  0.00    -0.270 NA 
ENDROOT
BRANCH   2   3
HETATM    3  C   UNL     1     -10.932  16.294  69.791  1.00  0.00    -0.354 C  
BRANCH   3   4
HETATM    4  C   UNL     1      -9.602  16.594  69.111  1.00  0.00    -0.208 A  
HETATM    5  C   UNL     1      -9.391  17.751  68.305  1.00  0.00    -0.288 A  
HETATM    6  C   UNL     1      -8.559  15.663  69.282  1.00  0.00    -0.262 A  
HETATM    7  C   UNL     1     -10.365  18.757  68.096  1.00  0.00    -0.419 A  
HETATM    8  C   UNL     1     -10.140  19.838  67.240  1.00  0.00    -0.549 A  
HETATM    9  C   UNL     1      -7.336  15.843  68.650  1.00  0.00    -0.141 A  
HETATM   10  C   UNL     1      -8.924  19.955  66.583  1.00  0.00    -0.452 A  
HETATM   11  C   UNL     1      -7.133  16.953  67.835  1.00  0.00    -0.162 A  
HETATM   12  C   UNL     1      -8.145  17.904  67.647  1.00  0.00    -0.224 A  
HETATM   13  C   UNL     1      -7.929  19.002  66.797  1.00  0.00    -0.270 A  
ENDBRANCH   3   4
ENDBRANCH   2   3
BRANCH   2  14
HETATM   14  C   UNL     1     -11.869  14.486  68.439  1.00  0.00    -0.316 C  
BRANCH  14  15
HETATM   15  C   UNL     1     -11.657  13.030  68.135  1.00  0.00    -0.379 C  
HETATM   16  C   UNL     1     -10.692  12.288  68.706  1.00  0.00    -0.247 C  
BRANCH  16  17
HETATM   17  C   UNL     1     -10.523  10.841  68.509  1.00  0.00    -0.208 A  
HETATM   18  C   UNL     1     -10.546   9.923  69.565  1.00  0.00    -0.264 A  
HETATM   19  C   UNL     1     -10.192   8.993  66.962  1.00  0.00    -0.336 A  
HETATM   20  C   UNL     1     -10.361  10.359  67.203  1.00  0.00    -0.290 A  
HETATM   21  C   UNL     1     -10.194   8.094  68.023  1.00  0.00    -0.263 A  
HETATM   22  C   UNL     1     -10.375   8.557  69.325  1.00  0.00    -0.227 A  
ENDBRANCH  16  17
ENDBRANCH  14  15
ENDBRANCH   2  14
TORSDOF 5
ENDMDL
MODEL      130
REMARK 921   NORMALIZED FREE ENERGY PREDICTED BY IDOCK:   -4.49 KCAL/MOL
REMARK 922        TOTAL FREE ENERGY PREDICTED BY IDOCK:   -7.11 KCAL/MOL
REMARK 923 INTER-LIGAND FREE ENERGY PREDICTED BY IDOCK:   -6.01 KCAL/MOL
REMARK 924 INTRA-LIGAND FREE ENERGY PREDICTED BY IDOCK:   -1.10 KCAL/MOL
REMARK 927      BINDING AFFINITY PREDICTED BY RF-SCORE:    0.00 PKD
ROOT
HETATM    1  C   UNL     1      -8.691  12.254  66.742  1.00  0.00    -0.175 C  
HETATM    2  N   UNL     1      -9.922  11.627  67.232  1.00  0.00    -0.190 NA 
ENDROOT
BRANCH   2   3
HETATM    3  C   UNL     1      -9.727  11.022  68.568  1.00  0.00    -0.189 C  
BRANCH   3   4
HETATM    4  C   UNL     1     -10.842  11.325  69.561  1.00  0.00    -0.207 A  
HETATM    5  C   UNL     1     -11.372  10.343  70.449  1.00  0.00    -0.417 A  
HETATM    6  C   UNL     1     -11.372  12.629  69.566  1.00  0.00    -0.227 A  
HETATM    7  C   UNL     1     -10.889   9.015  70.539  1.00  0.00    -0.296 A  
HETATM    8  C   UNL     1     -11.484   8.067  71.373  1.00  0.00    -0.293 A  
HETATM    9  C   UNL     1     -12.425  12.965  70.406  1.00  0.00    -0.247 A  
HETATM   10  C   UNL     1     -12.571   8.425  72.158  1.00  0.00    -0.412 A  
HETATM   11  C   UNL     1     -12.970  12.004  71.254  1.00  0.00    -0.315 A  
HETATM   12  C   UNL     1     -12.464  10.697  71.281  1.00  0.00    -0.515 A  
HETATM   13  C   UNL     1     -13.047   9.735  72.122  1.00  0.00    -0.513 A  
ENDBRANCH   3   4
ENDBRANCH   2   3
BRANCH   2  14
HETATM   14  C   UNL     1     -10.400  10.644  66.249  1.00  0.00    -0.234 C  
BRANCH  14  15
HETATM   15  C   UNL     1      -9.852   9.268  66.502  1.00  0.00    -0.331 C  
HETATM   16  C   UNL     1     -10.591   8.255  66.984  1.00  0.00    -0.328 C  
BRANCH  16  17
HETATM   17  C   UNL     1     -10.113   6.874  67.146  1.00  0.00    -0.272 A  
HETATM   18  C   UNL     1      -9.253   6.256  66.232  1.00  0.00    -0.165 A  
HETATM   19  C   UNL     1     -10.093   4.840  68.480  1.00  0.00    -0.115 A  
HETATM   20  C   UNL     1     -10.515   6.157  68.282  1.00  0.00    -0.284 A  
HETATM   21  C   UNL     1      -9.256   4.229  67.552  1.00  0.00    -0.174 A  
HETATM   22  C   UNL     1      -8.831   4.938  66.430  1.00  0.00    -0.113 A  
ENDBRANCH  16  17
ENDBRANCH  14  15
ENDBRANCH   2  14
TORSDOF 5
ENDMDL
MODEL      131
REMARK 921   NORMALIZED FREE ENERGY PREDICTED BY IDOCK:   -4.47 KCAL/MOL
REMARK 922        TOTAL FREE ENERGY PREDICTED BY IDOCK:   -7.09 KCAL/MOL
REMARK 923 INTER-LIGAND FREE ENERGY PREDICTED BY IDOCK:   -6.60 KCAL/MOL
REMARK 924 INTRA-LIGAND FREE ENERGY PREDICTED BY IDOCK:   -0.49 KCAL/MOL
REMARK 927      BINDING AFFINITY PREDICTED BY RF-SCORE:    0.00 PKD
ROOT
HETATM    1  C   UNL     1     -10.238   8.910  67.834  1.00  0.00    -0.222 C  
HETATM    2  N   UNL     1      -9.630  10.032  68.556  1.00  0.00    -0.148 NA 
ENDROOT
BRANCH   2   3
HETATM    3  C   UNL     1      -9.921   9.963  70.005  1.00  0.00    -0.254 C  
BRANCH   3   4
HETATM    4  C   UNL     1     -10.391   8.596  70.485  1.00  0.00    -0.234 A  
HETATM    5  C   UNL     1     -11.730   8.346  70.909  1.00  0.00    -0.269 A  
HETATM    6  C   UNL     1      -9.440   7.559  70.526  1.00  0.00    -0.164 A  
HETATM    7  C   UNL     1     -12.762   9.314  70.879  1.00  0.00    -0.124 A  
HETATM    8  C   UNL     1     -14.041   9.044  71.371  1.00  0.00    -0.237 A  
HETATM    9  C   UNL     1      -9.782   6.300  71.002  1.00  0.00    -0.196 A  
HETATM   10  C   UNL     1     -14.331   7.791  71.890  1.00  0.00    -0.545 A  
HETATM   11  C   UNL     1     -11.078   6.056  71.448  1.00  0.00    -0.336 A  
HETATM   12  C   UNL     1     -12.053   7.062  71.416  1.00  0.00    -0.396 A  
HETATM   13  C   UNL     1     -13.347   6.803  71.899  1.00  0.00    -0.140 A  
ENDBRANCH   3   4
ENDBRANCH   2   3
BRANCH   2  14
HETATM   14  C   UNL     1     -10.078  11.300  67.965  1.00  0.00    -0.177 C  
BRANCH  14  15
HETATM   15  C   UNL     1     -10.505  12.297  69.005  1.00  0.00    -0.049 C  
HETATM   16  C   UNL     1     -11.789  12.533  69.321  1.00  0.00    -0.360 C  
BRANCH  16  17
HETATM   17  C   UNL     1     -12.235  13.424  70.402  1.00  0.00    -0.415 A  
HETATM   18  C   UNL     1     -12.992  12.978  71.491  1.00  0.00    -0.398 A  
HETATM   19  C   UNL     1     -12.260  15.663  71.353  1.00  0.00    -0.477 A  
HETATM   20  C   UNL     1     -11.859  14.774  70.353  1.00  0.00    -0.352 A  
HETATM   21  C   UNL     1     -13.032  15.211  72.418  1.00  0.00    -0.452 A  
HETATM   22  C   UNL     1     -13.395  13.867  72.491  1.00  0.00    -0.656 A  
ENDBRANCH  16  17
ENDBRANCH  14  15
ENDBRANCH   2  14
TORSDOF 5
ENDMDL
MODEL      132
REMARK 921   NORMALIZED FREE ENERGY PREDICTED BY IDOCK:   -4.46 KCAL/MOL
REMARK 922        TOTAL FREE ENERGY PREDICTED BY IDOCK:   -7.07 KCAL/MOL
REMARK 923 INTER-LIGAND FREE ENERGY PREDICTED BY IDOCK:   -5.63 KCAL/MOL
REMARK 924 INTRA-LIGAND FREE ENERGY PREDICTED BY IDOCK:   -1.44 KCAL/MOL
REMARK 927      BINDING AFFINITY PREDICTED BY RF-SCORE:    0.00 PKD
ROOT
HETATM    1  C   UNL     1      -9.430   3.972  67.491  1.00  0.00    -0.188 C  
HETATM    2  N   UNL     1      -9.449   5.121  68.402  1.00  0.00    -0.123 NA 
ENDROOT
BRANCH   2   3
HETATM    3  C   UNL     1      -8.182   5.882  68.340  1.00  0.00    -0.109 C  
BRANCH   3   4
HETATM    4  C   UNL     1      -8.244   7.256  68.994  1.00  0.00    -0.125 A  
HETATM    5  C   UNL     1      -9.003   8.335  68.452  1.00  0.00    -0.136 A  
HETATM    6  C   UNL     1      -7.493   7.451  70.169  1.00  0.00    -0.087 A  
HETATM    7  C   UNL     1      -9.810   8.230  67.294  1.00  0.00    -0.258 A  
HETATM    8  C   UNL     1     -10.480   9.332  66.759  1.00  0.00    -0.263 A  
HETATM    9  C   UNL     1      -7.459   8.692  70.792  1.00  0.00    -0.080 A  
HETATM   10  C   UNL     1     -10.378  10.569  67.378  1.00  0.00    -0.269 A  
HETATM   11  C   UNL     1      -8.171   9.759  70.252  1.00  0.00    -0.178 A  
HETATM   12  C   UNL     1      -8.935   9.600  69.087  1.00  0.00    -0.154 A  
HETATM   13  C   UNL     1      -9.622  10.698  68.543  1.00  0.00    -0.175 A  
ENDBRANCH   3   4
ENDBRANCH   2   3
BRANCH   2  14
HETATM   14  C   UNL     1      -9.749   4.663  69.766  1.00  0.00    -0.209 C  
BRANCH  14  15
HETATM   15  C   UNL     1     -10.487   5.698  70.568  1.00  0.00    -0.347 C  
HETATM   16  C   UNL     1     -11.443   6.489  70.052  1.00  0.00    -0.476 C  
BRANCH  16  17
HETATM   17  C   UNL     1     -12.253   7.437  70.831  1.00  0.00    -0.265 A  
HETATM   18  C   UNL     1     -13.513   7.114  71.348  1.00  0.00    -0.374 A  
HETATM   19  C   UNL     1     -12.459   9.650  71.821  1.00  0.00    -0.487 A  
HETATM   20  C   UNL     1     -11.727   8.710  71.090  1.00  0.00    -0.334 A  
HETATM   21  C   UNL     1     -13.720   9.323  72.310  1.00  0.00    -0.527 A  
HETATM   22  C   UNL     1     -14.245   8.054  72.078  1.00  0.00    -0.465 A  
ENDBRANCH  16  17
ENDBRANCH  14  15
ENDBRANCH   2  14
TORSDOF 5
ENDMDL
MODEL      133
REMARK 921   NORMALIZED FREE ENERGY PREDICTED BY IDOCK:   -4.46 KCAL/MOL
REMARK 922        TOTAL FREE ENERGY PREDICTED BY IDOCK:   -7.06 KCAL/MOL
REMARK 923 INTER-LIGAND FREE ENERGY PREDICTED BY IDOCK:   -6.69 KCAL/MOL
REMARK 924 INTRA-LIGAND FREE ENERGY PREDICTED BY IDOCK:   -0.38 KCAL/MOL
REMARK 927      BINDING AFFINITY PREDICTED BY RF-SCORE:    0.00 PKD
ROOT
HETATM    1  C   UNL     1     -10.707  15.682  69.525  1.00  0.00    -0.271 C  
HETATM    2  N   UNL     1     -11.606  15.344  68.417  1.00  0.00    -0.354 NA 
ENDROOT
BRANCH   2   3
HETATM    3  C   UNL     1     -11.892  13.893  68.376  1.00  0.00    -0.374 C  
BRANCH   3   4
HETATM    4  C   UNL     1     -10.923  13.087  67.521  1.00  0.00    -0.282 A  
HETATM    5  C   UNL     1     -11.235  12.657  66.198  1.00  0.00    -0.350 A  
HETATM    6  C   UNL     1      -9.682  12.744  68.093  1.00  0.00    -0.223 A  
HETATM    7  C   UNL     1     -12.441  12.974  65.528  1.00  0.00    -0.496 A  
HETATM    8  C   UNL     1     -12.734  12.472  64.258  1.00  0.00    -0.432 A  
HETATM    9  C   UNL     1      -8.769  11.966  67.393  1.00  0.00    -0.166 A  
HETATM   10  C   UNL     1     -11.820  11.653  63.612  1.00  0.00    -0.390 A  
HETATM   11  C   UNL     1      -9.079  11.515  66.113  1.00  0.00    -0.217 A  
HETATM   12  C   UNL     1     -10.301  11.842  65.509  1.00  0.00    -0.303 A  
HETATM   13  C   UNL     1     -10.606  11.353  64.228  1.00  0.00    -0.416 A  
ENDBRANCH   3   4
ENDBRANCH   2   3
BRANCH   2  14
HETATM   14  C   UNL     1     -11.032  15.826  67.153  1.00  0.00    -0.244 C  
BRANCH  14  15
HETATM   15  C   UNL     1      -9.794  16.651  67.364  1.00  0.00    -0.254 C  
HETATM   16  C   UNL     1      -9.271  17.455  66.423  1.00  0.00    -0.272 C  
BRANCH  16  17
HETATM   17  C   UNL     1      -8.124  18.350  66.631  1.00  0.00    -0.282 A  
HETATM   18  C   UNL     1      -8.224  19.567  67.315  1.00  0.00    -0.321 A  
HETATM   19  C   UNL     1      -5.748  18.769  66.314  1.00  0.00    -0.183 A  
HETATM   20  C   UNL     1      -6.870  17.953  66.146  1.00  0.00    -0.324 A  
HETATM   21  C   UNL     1      -5.867  19.987  66.976  1.00  0.00    -0.186 A  
HETATM   22  C   UNL     1      -7.103  20.384  67.482  1.00  0.00    -0.349 A  
ENDBRANCH  16  17
ENDBRANCH  14  15
ENDBRANCH   2  14
TORSDOF 5
ENDMDL
MODEL      134
REMARK 921   NORMALIZED FREE ENERGY PREDICTED BY IDOCK:   -4.45 KCAL/MOL
REMARK 922        TOTAL FREE ENERGY PREDICTED BY IDOCK:   -7.06 KCAL/MOL
REMARK 923 INTER-LIGAND FREE ENERGY PREDICTED BY IDOCK:   -6.73 KCAL/MOL
REMARK 924 INTRA-LIGAND FREE ENERGY PREDICTED BY IDOCK:   -0.33 KCAL/MOL
REMARK 927      BINDING AFFINITY PREDICTED BY RF-SCORE:    0.00 PKD
ROOT
HETATM    1  C   UNL     1     -10.809   8.846  72.075  1.00  0.00    -0.334 C  
HETATM    2  N   UNL     1     -11.848   8.561  71.081  1.00  0.00    -0.287 NA 
ENDROOT
BRANCH   2   3
HETATM    3  C   UNL     1     -13.045   9.404  71.294  1.00  0.00    -0.294 C  
BRANCH   3   4
HETATM    4  C   UNL     1     -12.812  10.892  71.064  1.00  0.00    -0.472 A  
HETATM    5  C   UNL     1     -12.181  11.402  69.891  1.00  0.00    -0.346 A  
HETATM    6  C   UNL     1     -13.224  11.779  72.077  1.00  0.00    -0.460 A  
HETATM    7  C   UNL     1     -11.758  10.596  68.807  1.00  0.00    -0.259 A  
HETATM    8  C   UNL     1     -11.080  11.130  67.709  1.00  0.00    -0.344 A  
HETATM    9  C   UNL     1     -12.997  13.143  71.961  1.00  0.00    -0.401 A  
HETATM   10  C   UNL     1     -10.823  12.492  67.654  1.00  0.00    -0.255 A  
HETATM   11  C   UNL     1     -12.354  13.647  70.834  1.00  0.00    -0.450 A  
HETATM   12  C   UNL     1     -11.935  12.795  69.803  1.00  0.00    -0.362 A  
HETATM   13  C   UNL     1     -11.261  13.320  68.687  1.00  0.00    -0.311 A  
ENDBRANCH   3   4
ENDBRANCH   2   3
BRANCH   2  14
HETATM   14  C   UNL     1     -12.173   7.129  71.103  1.00  0.00    -0.365 C  
BRANCH  14  15
HETATM   15  C   UNL     1     -11.759   6.428  69.840  1.00  0.00    -0.309 C  
HETATM   16  C   UNL     1     -10.481   6.326  69.435  1.00  0.00    -0.298 C  
BRANCH  16  17
HETATM   17  C   UNL     1     -10.034   5.561  68.262  1.00  0.00    -0.201 A  
HETATM   18  C   UNL     1     -10.536   5.780  66.975  1.00  0.00    -0.373 A  
HETATM   19  C   UNL     1      -8.580   3.833  67.357  1.00  0.00    -0.112 A  
HETATM   20  C   UNL     1      -9.038   4.590  68.439  1.00  0.00    -0.161 A  
HETATM   21  C   UNL     1      -9.106   4.045  66.086  1.00  0.00    -0.141 A  
HETATM   22  C   UNL     1     -10.080   5.022  65.893  1.00  0.00    -0.194 A  
ENDBRANCH  16  17
ENDBRANCH  14  15
ENDBRANCH   2  14
TORSDOF 5
ENDMDL
MODEL      135
REMARK 921   NORMALIZED FREE ENERGY PREDICTED BY IDOCK:   -4.44 KCAL/MOL
REMARK 922        TOTAL FREE ENERGY PREDICTED BY IDOCK:   -7.05 KCAL/MOL
REMARK 923 INTER-LIGAND FREE ENERGY PREDICTED BY IDOCK:   -5.31 KCAL/MOL
REMARK 924 INTRA-LIGAND FREE ENERGY PREDICTED BY IDOCK:   -1.74 KCAL/MOL
REMARK 927      BINDING AFFINITY PREDICTED BY RF-SCORE:    0.00 PKD
ROOT
HETATM    1  C   UNL     1      -9.305  18.999  66.504  1.00  0.00    -0.340 C  
HETATM    2  N   UNL     1      -9.471  17.789  67.316  1.00  0.00    -0.251 NA 
ENDROOT
BRANCH   2   3
HETATM    3  C   UNL     1     -10.730  17.827  68.092  1.00  0.00    -0.284 C  
BRANCH   3   4
HETATM    4  C   UNL     1     -11.029  16.548  68.862  1.00  0.00    -0.325 A  
HETATM    5  C   UNL     1     -11.228  15.290  68.220  1.00  0.00    -0.318 A  
HETATM    6  C   UNL     1     -11.133  16.641  70.263  1.00  0.00    -0.041 A  
HETATM    7  C   UNL     1     -11.117  15.088  66.824  1.00  0.00    -0.326 A  
HETATM    8  C   UNL     1     -11.390  13.854  66.231  1.00  0.00    -0.329 A  
HETATM    9  C   UNL     1     -11.455  15.527  71.027  1.00  0.00    -0.426 A  
HETATM   10  C   UNL     1     -11.763  12.777  67.022  1.00  0.00    -0.440 A  
HETATM   11  C   UNL     1     -11.682  14.302  70.406  1.00  0.00    -0.329 A  
HETATM   12  C   UNL     1     -11.582  14.170  69.014  1.00  0.00    -0.342 A  
HETATM   13  C   UNL     1     -11.844  12.931  68.405  1.00  0.00    -0.357 A  
ENDBRANCH   3   4
ENDBRANCH   2   3
BRANCH   2  14
HETATM   14  C   UNL     1      -8.297  17.611  68.181  1.00  0.00    -0.259 C  
BRANCH  14  15
HETATM   15  C   UNL     1      -7.761  16.208  68.137  1.00  0.00    -0.143 C  
HETATM   16  C   UNL     1      -7.823  15.360  69.177  1.00  0.00    -0.212 C  
BRANCH  16  17
HETATM   17  C   UNL     1      -7.402  13.952  69.134  1.00  0.00    -0.004 A  
HETATM   18  C   UNL     1      -8.101  12.971  68.420  1.00  0.00    -0.131 A  
HETATM   19  C   UNL     1      -5.793  12.257  69.810  1.00  0.00    -0.123 A  
HETATM   20  C   UNL     1      -6.234  13.583  69.815  1.00  0.00    -0.116 A  
HETATM   21  C   UNL     1      -6.510  11.288  69.115  1.00  0.00    -0.081 A  
HETATM   22  C   UNL     1      -7.661  11.645  68.416  1.00  0.00    -0.130 A  
ENDBRANCH  16  17
ENDBRANCH  14  15
ENDBRANCH   2  14
TORSDOF 5
ENDMDL
MODEL      136
REMARK 921   NORMALIZED FREE ENERGY PREDICTED BY IDOCK:   -4.42 KCAL/MOL
REMARK 922        TOTAL FREE ENERGY PREDICTED BY IDOCK:   -7.02 KCAL/MOL
REMARK 923 INTER-LIGAND FREE ENERGY PREDICTED BY IDOCK:   -5.86 KCAL/MOL
REMARK 924 INTRA-LIGAND FREE ENERGY PREDICTED BY IDOCK:   -1.16 KCAL/MOL
REMARK 927      BINDING AFFINITY PREDICTED BY RF-SCORE:    0.00 PKD
ROOT
HETATM    1  C   UNL     1     -12.786  12.517  64.683  1.00  0.00    -0.349 C  
HETATM    2  N   UNL     1     -11.781  12.846  65.699  1.00  0.00    -0.365 NA 
ENDROOT
BRANCH   2   3
HETATM    3  C   UNL     1     -11.395  11.653  66.484  1.00  0.00    -0.263 C  
BRANCH   3   4
HETATM    4  C   UNL     1      -9.999  11.126  66.176  1.00  0.00    -0.273 A  
HETATM    5  C   UNL     1      -8.831  11.605  66.838  1.00  0.00    -0.190 A  
HETATM    6  C   UNL     1      -9.881  10.143  65.175  1.00  0.00    -0.394 A  
HETATM    7  C   UNL     1      -8.848  12.569  67.874  1.00  0.00    -0.185 A  
HETATM    8  C   UNL     1      -7.673  13.062  68.446  1.00  0.00    -0.137 A  
HETATM    9  C   UNL     1      -8.636   9.653  64.804  1.00  0.00    -0.197 A  
HETATM   10  C   UNL     1      -6.444  12.589  68.010  1.00  0.00    -0.087 A  
HETATM   11  C   UNL     1      -7.487  10.139  65.422  1.00  0.00    -0.144 A  
HETATM   12  C   UNL     1      -7.566  11.113  66.427  1.00  0.00    -0.109 A  
HETATM   13  C   UNL     1      -6.392  11.610  67.018  1.00  0.00    -0.149 A  
ENDBRANCH   3   4
ENDBRANCH   2   3
BRANCH   2  14
HETATM   14  C   UNL     1     -12.283  13.929  66.556  1.00  0.00    -0.442 C  
BRANCH  14  15
HETATM   15  C   UNL     1     -11.272  15.025  66.743  1.00  0.00    -0.322 C  
HETATM   16  C   UNL     1     -11.214  15.797  67.841  1.00  0.00    -0.313 C  
BRANCH  16  17
HETATM   17  C   UNL     1     -10.177  16.807  68.100  1.00  0.00    -0.301 A  
HETATM   18  C   UNL     1      -8.840  16.476  68.352  1.00  0.00    -0.218 A  
HETATM   19  C   UNL     1      -9.592  19.159  68.306  1.00  0.00    -0.416 A  
HETATM   20  C   UNL     1     -10.539  18.161  68.063  1.00  0.00    -0.359 A  
HETATM   21  C   UNL     1      -8.271  18.816  68.578  1.00  0.00    -0.379 A  
HETATM   22  C   UNL     1      -7.894  17.475  68.597  1.00  0.00    -0.272 A  
ENDBRANCH  16  17
ENDBRANCH  14  15
ENDBRANCH   2  14
TORSDOF 5
ENDMDL
MODEL      137
REMARK 921   NORMALIZED FREE ENERGY PREDICTED BY IDOCK:   -4.40 KCAL/MOL
REMARK 922        TOTAL FREE ENERGY PREDICTED BY IDOCK:   -6.99 KCAL/MOL
REMARK 923 INTER-LIGAND FREE ENERGY PREDICTED BY IDOCK:   -6.30 KCAL/MOL
REMARK 924 INTRA-LIGAND FREE ENERGY PREDICTED BY IDOCK:   -0.69 KCAL/MOL
REMARK 927      BINDING AFFINITY PREDICTED BY RF-SCORE:    0.00 PKD
ROOT
HETATM    1  C   UNL     1      -8.799   7.301  66.356  1.00  0.00    -0.149 C  
HETATM    2  N   UNL     1      -9.017   7.868  67.690  1.00  0.00    -0.131 NA 
ENDROOT
BRANCH   2   3
HETATM    3  C   UNL     1     -10.430   7.738  68.108  1.00  0.00    -0.176 C  
BRANCH   3   4
HETATM    4  C   UNL     1     -10.649   7.831  69.613  1.00  0.00    -0.242 A  
HETATM    5  C   UNL     1     -10.383   6.746  70.499  1.00  0.00    -0.226 A  
HETATM    6  C   UNL     1     -11.159   9.040  70.123  1.00  0.00    -0.228 A  
HETATM    7  C   UNL     1      -9.845   5.503  70.088  1.00  0.00    -0.261 A  
HETATM    8  C   UNL     1      -9.668   4.443  70.980  1.00  0.00    -0.260 A  
HETATM    9  C   UNL     1     -11.434   9.181  71.476  1.00  0.00    -0.437 A  
HETATM   10  C   UNL     1     -10.005   4.603  72.316  1.00  0.00    -0.235 A  
HETATM   11  C   UNL     1     -11.207   8.116  72.344  1.00  0.00    -0.452 A  
HETATM   12  C   UNL     1     -10.695   6.899  71.874  1.00  0.00    -0.245 A  
HETATM   13  C   UNL     1     -10.501   5.828  72.762  1.00  0.00    -0.242 A  
ENDBRANCH   3   4
ENDBRANCH   2   3
BRANCH   2  14
HETATM   14  C   UNL     1      -8.563   9.265  67.713  1.00  0.00    -0.117 C  
BRANCH  14  15
HETATM   15  C   UNL     1      -9.293  10.120  66.715  1.00  0.00    -0.190 C  
HETATM   16  C   UNL     1     -10.133  11.109  67.063  1.00  0.00    -0.235 C  
BRANCH  16  17
HETATM   17  C   UNL     1     -10.781  12.028  66.116  1.00  0.00    -0.312 A  
HETATM   18  C   UNL     1     -11.475  13.174  66.522  1.00  0.00    -0.378 A  
HETATM   19  C   UNL     1     -11.275  12.599  63.803  1.00  0.00    -0.519 A  
HETATM   20  C   UNL     1     -10.674  11.759  64.744  1.00  0.00    -0.355 A  
HETATM   21  C   UNL     1     -11.981  13.722  64.223  1.00  0.00    -0.481 A  
HETATM   22  C   UNL     1     -12.077  14.013  65.582  1.00  0.00    -0.432 A  
ENDBRANCH  16  17
ENDBRANCH  14  15
ENDBRANCH   2  14
TORSDOF 5
ENDMDL
MODEL      138
REMARK 921   NORMALIZED FREE ENERGY PREDICTED BY IDOCK:   -4.40 KCAL/MOL
REMARK 922        TOTAL FREE ENERGY PREDICTED BY IDOCK:   -6.99 KCAL/MOL
REMARK 923 INTER-LIGAND FREE ENERGY PREDICTED BY IDOCK:   -6.46 KCAL/MOL
REMARK 924 INTRA-LIGAND FREE ENERGY PREDICTED BY IDOCK:   -0.53 KCAL/MOL
REMARK 927      BINDING AFFINITY PREDICTED BY RF-SCORE:    0.00 PKD
ROOT
HETATM    1  C   UNL     1      -5.888  15.450  68.875  1.00  0.00    -0.098 C  
HETATM    2  N   UNL     1      -6.222  15.203  67.470  1.00  0.00    -0.312 NA 
ENDROOT
BRANCH   2   3
HETATM    3  C   UNL     1      -6.456  16.469  66.739  1.00  0.00    -0.088 C  
BRANCH   3   4
HETATM    4  C   UNL     1      -6.991  17.602  67.605  1.00  0.00    -0.186 A  
HETATM    5  C   UNL     1      -8.304  18.137  67.451  1.00  0.00    -0.239 A  
HETATM    6  C   UNL     1      -6.125  18.143  68.575  1.00  0.00    -0.192 A  
HETATM    7  C   UNL     1      -9.254  17.644  66.526  1.00  0.00    -0.286 A  
HETATM    8  C   UNL     1     -10.504  18.244  66.360  1.00  0.00    -0.387 A  
HETATM    9  C   UNL     1      -6.525  19.213  69.365  1.00  0.00    -0.337 A  
HETATM   10  C   UNL     1     -10.848  19.346  67.129  1.00  0.00    -0.561 A  
HETATM   11  C   UNL     1      -7.794  19.762  69.200  1.00  0.00    -0.134 A  
HETATM   12  C   UNL     1      -8.684  19.245  68.249  1.00  0.00    -0.377 A  
HETATM   13  C   UNL     1      -9.949  19.833  68.078  1.00  0.00    -0.553 A  
ENDBRANCH   3   4
ENDBRANCH   2   3
BRANCH   2  14
HETATM   14  C   UNL     1      -7.378  14.301  67.389  1.00  0.00    -0.128 C  
BRANCH  14  15
HETATM   15  C   UNL     1      -8.401  14.584  68.453  1.00  0.00    -0.153 C  
HETATM   16  C   UNL     1      -9.725  14.466  68.256  1.00  0.00    -0.222 C  
BRANCH  16  17
HETATM   17  C   UNL     1     -10.744  14.635  69.302  1.00  0.00    -0.254 A  
HETATM   18  C   UNL     1     -11.732  13.679  69.562  1.00  0.00    -0.380 A  
HETATM   19  C   UNL     1     -11.653  16.003  71.097  1.00  0.00    -0.492 A  
HETATM   20  C   UNL     1     -10.705  15.793  70.092  1.00  0.00    -0.354 A  
HETATM   21  C   UNL     1     -12.644  15.055  71.329  1.00  0.00    -0.409 A  
HETATM   22  C   UNL     1     -12.682  13.890  70.566  1.00  0.00    -0.318 A  
ENDBRANCH  16  17
ENDBRANCH  14  15
ENDBRANCH   2  14
TORSDOF 5
ENDMDL
MODEL      139
REMARK 921   NORMALIZED FREE ENERGY PREDICTED BY IDOCK:   -4.38 KCAL/MOL
REMARK 922        TOTAL FREE ENERGY PREDICTED BY IDOCK:   -6.97 KCAL/MOL
REMARK 923 INTER-LIGAND FREE ENERGY PREDICTED BY IDOCK:   -5.03 KCAL/MOL
REMARK 924 INTRA-LIGAND FREE ENERGY PREDICTED BY IDOCK:   -1.93 KCAL/MOL
REMARK 927      BINDING AFFINITY PREDICTED BY RF-SCORE:    0.00 PKD
ROOT
HETATM    1  C   UNL     1      -9.468   2.755  70.965  1.00  0.00    -0.156 C  
HETATM    2  N   UNL     1      -9.834   4.173  70.903  1.00  0.00    -0.193 NA 
ENDROOT
BRANCH   2   3
HETATM    3  C   UNL     1      -8.653   5.026  70.647  1.00  0.00    -0.114 C  
BRANCH   3   4
HETATM    4  C   UNL     1      -8.830   6.013  69.500  1.00  0.00    -0.125 A  
HETATM    5  C   UNL     1      -8.466   7.388  69.603  1.00  0.00    -0.133 A  
HETATM    6  C   UNL     1      -9.402   5.530  68.308  1.00  0.00    -0.127 A  
HETATM    7  C   UNL     1      -7.861   7.962  70.747  1.00  0.00    -0.091 A  
HETATM    8  C   UNL     1      -7.587   9.329  70.830  1.00  0.00    -0.154 A  
HETATM    9  C   UNL     1      -9.643   6.382  67.239  1.00  0.00    -0.143 A  
HETATM   10  C   UNL     1      -7.892  10.160  69.762  1.00  0.00    -0.175 A  
HETATM   11  C   UNL     1      -9.320   7.733  67.342  1.00  0.00    -0.168 A  
HETATM   12  C   UNL     1      -8.744   8.249  68.511  1.00  0.00    -0.133 A  
HETATM   13  C   UNL     1      -8.453   9.620  68.605  1.00  0.00    -0.119 A  
ENDBRANCH   3   4
ENDBRANCH   2   3
BRANCH   2  14
HETATM   14  C   UNL     1     -10.532   4.557  72.138  1.00  0.00    -0.122 C  
BRANCH  14  15
HETATM   15  C   UNL     1     -10.842   6.027  72.187  1.00  0.00    -0.297 C  
HETATM   16  C   UNL     1     -11.794   6.606  71.437  1.00  0.00    -0.388 C  
BRANCH  16  17
HETATM   17  C   UNL     1     -12.192   8.018  71.535  1.00  0.00    -0.328 A  
HETATM   18  C   UNL     1     -13.309   8.445  72.262  1.00  0.00    -0.298 A  
HETATM   19  C   UNL     1     -11.736  10.337  70.955  1.00  0.00    -0.461 A  
HETATM   20  C   UNL     1     -11.399   8.982  70.896  1.00  0.00    -0.351 A  
HETATM   21  C   UNL     1     -12.863  10.744  71.662  1.00  0.00    -0.562 A  
HETATM   22  C   UNL     1     -13.647   9.799  72.320  1.00  0.00    -0.397 A  
ENDBRANCH  16  17
ENDBRANCH  14  15
ENDBRANCH   2  14
TORSDOF 5
ENDMDL
MODEL      140
REMARK 921   NORMALIZED FREE ENERGY PREDICTED BY IDOCK:   -4.37 KCAL/MOL
REMARK 922        TOTAL FREE ENERGY PREDICTED BY IDOCK:   -6.95 KCAL/MOL
REMARK 923 INTER-LIGAND FREE ENERGY PREDICTED BY IDOCK:   -6.51 KCAL/MOL
REMARK 924 INTRA-LIGAND FREE ENERGY PREDICTED BY IDOCK:   -0.44 KCAL/MOL
REMARK 927      BINDING AFFINITY PREDICTED BY RF-SCORE:    0.00 PKD
ROOT
HETATM    1  C   UNL     1     -12.212  14.521  64.947  1.00  0.00    -0.402 C  
HETATM    2  N   UNL     1     -11.252  14.943  65.972  1.00  0.00    -0.338 NA 
ENDROOT
BRANCH   2   3
HETATM    3  C   UNL     1      -9.994  15.431  65.366  1.00  0.00    -0.321 C  
BRANCH   3   4
HETATM    4  C   UNL     1      -9.113  16.233  66.315  1.00  0.00    -0.366 A  
HETATM    5  C   UNL     1      -9.395  17.585  66.673  1.00  0.00    -0.275 A  
HETATM    6  C   UNL     1      -7.965  15.600  66.828  1.00  0.00    -0.246 A  
HETATM    7  C   UNL     1     -10.536  18.297  66.232  1.00  0.00    -0.397 A  
HETATM    8  C   UNL     1     -10.735  19.643  66.551  1.00  0.00    -0.543 A  
HETATM    9  C   UNL     1      -7.086  16.285  67.656  1.00  0.00    -0.164 A  
HETATM   10  C   UNL     1      -9.807  20.310  67.336  1.00  0.00    -0.586 A  
HETATM   11  C   UNL     1      -7.337  17.615  67.985  1.00  0.00    -0.214 A  
HETATM   12  C   UNL     1      -8.473  18.276  67.499  1.00  0.00    -0.252 A  
HETATM   13  C   UNL     1      -8.691  19.626  67.819  1.00  0.00    -0.372 A  
ENDBRANCH   3   4
ENDBRANCH   2   3
BRANCH   2  14
HETATM   14  C   UNL     1     -11.017  13.837  66.911  1.00  0.00    -0.290 C  
BRANCH  14  15
HETATM   15  C   UNL     1     -10.038  12.831  66.376  1.00  0.00    -0.266 C  
HETATM   16  C   UNL     1     -10.396  11.614  65.933  1.00  0.00    -0.289 C  
BRANCH  16  17
HETATM   17  C   UNL     1      -9.481  10.647  65.310  1.00  0.00    -0.270 A  
HETATM   18  C   UNL     1      -9.513  10.340  63.945  1.00  0.00    -0.356 A  
HETATM   19  C   UNL     1      -7.622   9.100  65.573  1.00  0.00    -0.090 A  
HETATM   20  C   UNL     1      -8.513  10.029  66.115  1.00  0.00    -0.131 A  
HETATM   21  C   UNL     1      -7.680   8.786  64.219  1.00  0.00    -0.125 A  
HETATM   22  C   UNL     1      -8.622   9.410  63.403  1.00  0.00    -0.218 A  
ENDBRANCH  16  17
ENDBRANCH  14  15
ENDBRANCH   2  14
TORSDOF 5
ENDMDL
MODEL      141
REMARK 921   NORMALIZED FREE ENERGY PREDICTED BY IDOCK:   -4.35 KCAL/MOL
REMARK 922        TOTAL FREE ENERGY PREDICTED BY IDOCK:   -6.93 KCAL/MOL
REMARK 923 INTER-LIGAND FREE ENERGY PREDICTED BY IDOCK:   -6.78 KCAL/MOL
REMARK 924 INTRA-LIGAND FREE ENERGY PREDICTED BY IDOCK:   -0.15 KCAL/MOL
REMARK 927      BINDING AFFINITY PREDICTED BY RF-SCORE:    0.00 PKD
ROOT
HETATM    1  C   UNL     1     -11.842  11.846  67.715  1.00  0.00    -0.219 C  
HETATM    2  N   UNL     1     -11.627  12.791  66.615  1.00  0.00    -0.350 NA 
ENDROOT
BRANCH   2   3
HETATM    3  C   UNL     1     -10.521  12.354  65.734  1.00  0.00    -0.259 C  
BRANCH   3   4
HETATM    4  C   UNL     1      -9.312  11.798  66.476  1.00  0.00    -0.217 A  
HETATM    5  C   UNL     1      -9.059  10.400  66.601  1.00  0.00    -0.169 A  
HETATM    6  C   UNL     1      -8.436  12.723  67.076  1.00  0.00    -0.154 A  
HETATM    7  C   UNL     1      -9.863   9.396  66.012  1.00  0.00    -0.366 A  
HETATM    8  C   UNL     1      -9.618   8.037  66.220  1.00  0.00    -0.223 A  
HETATM    9  C   UNL     1      -7.343  12.290  67.814  1.00  0.00    -0.118 A  
HETATM   10  C   UNL     1      -8.548   7.642  67.008  1.00  0.00    -0.122 A  
HETATM   11  C   UNL     1      -7.106  10.926  67.968  1.00  0.00    -0.077 A  
HETATM   12  C   UNL     1      -7.953   9.977  67.380  1.00  0.00    -0.106 A  
HETATM   13  C   UNL     1      -7.712   8.606  67.572  1.00  0.00    -0.098 A  
ENDBRANCH   3   4
ENDBRANCH   2   3
BRANCH   2  14
HETATM   14  C   UNL     1     -11.397  14.136  67.159  1.00  0.00    -0.332 C  
BRANCH  14  15
HETATM   15  C   UNL     1     -12.125  14.362  68.454  1.00  0.00    -0.278 C  
HETATM   16  C   UNL     1     -11.557  14.925  69.533  1.00  0.00    -0.333 C  
BRANCH  16  17
HETATM   17  C   UNL     1     -12.267  15.253  70.778  1.00  0.00    -0.411 A  
HETATM   18  C   UNL     1     -13.632  15.003  70.963  1.00  0.00    -0.442 A  
HETATM   19  C   UNL     1     -12.167  16.149  73.038  1.00  0.00    -0.641 A  
HETATM   20  C   UNL     1     -11.538  15.815  71.835  1.00  0.00    -0.545 A  
HETATM   21  C   UNL     1     -13.529  15.916  73.199  1.00  0.00    -0.650 A  
HETATM   22  C   UNL     1     -14.261  15.339  72.164  1.00  0.00    -0.667 A  
ENDBRANCH  16  17
ENDBRANCH  14  15
ENDBRANCH   2  14
TORSDOF 5
ENDMDL
MODEL      142
REMARK 921   NORMALIZED FREE ENERGY PREDICTED BY IDOCK:   -4.35 KCAL/MOL
REMARK 922        TOTAL FREE ENERGY PREDICTED BY IDOCK:   -6.93 KCAL/MOL
REMARK 923 INTER-LIGAND FREE ENERGY PREDICTED BY IDOCK:   -6.23 KCAL/MOL
REMARK 924 INTRA-LIGAND FREE ENERGY PREDICTED BY IDOCK:   -0.69 KCAL/MOL
REMARK 927      BINDING AFFINITY PREDICTED BY RF-SCORE:    0.00 PKD
ROOT
HETATM    1  C   UNL     1     -12.452   7.345  71.700  1.00  0.00    -0.349 C  
HETATM    2  N   UNL     1     -12.080   8.671  71.196  1.00  0.00    -0.284 NA 
ENDROOT
BRANCH   2   3
HETATM    3  C   UNL     1     -10.735   9.070  71.666  1.00  0.00    -0.371 C  
BRANCH   3   4
HETATM    4  C   UNL     1      -9.621   8.823  70.657  1.00  0.00    -0.240 A  
HETATM    5  C   UNL     1      -8.452   8.068  70.968  1.00  0.00    -0.134 A  
HETATM    6  C   UNL     1      -9.763   9.394  69.378  1.00  0.00    -0.181 A  
HETATM    7  C   UNL     1      -8.230   7.432  72.213  1.00  0.00    -0.115 A  
HETATM    8  C   UNL     1      -7.038   6.762  72.498  1.00  0.00    -0.075 A  
HETATM    9  C   UNL     1      -8.765   9.257  68.423  1.00  0.00    -0.129 A  
HETATM   10  C   UNL     1      -6.039   6.692  71.537  1.00  0.00    -0.037 A  
HETATM   11  C   UNL     1      -7.606   8.548  68.729  1.00  0.00    -0.097 A  
HETATM   12  C   UNL     1      -7.432   7.960  69.989  1.00  0.00    -0.079 A  
HETATM   13  C   UNL     1      -6.242   7.274  70.287  1.00  0.00    -0.030 A  
ENDBRANCH   3   4
ENDBRANCH   2   3
BRANCH   2  14
HETATM   14  C   UNL     1     -13.108   9.649  71.577  1.00  0.00    -0.400 C  
BRANCH  14  15
HETATM   15  C   UNL     1     -12.584  11.058  71.579  1.00  0.00    -0.461 C  
HETATM   16  C   UNL     1     -13.374  12.140  71.679  1.00  0.00    -0.244 C  
BRANCH  16  17
HETATM   17  C   UNL     1     -12.888  13.523  71.788  1.00  0.00    -0.399 A  
HETATM   18  C   UNL     1     -12.044  14.110  70.838  1.00  0.00    -0.416 A  
HETATM   19  C   UNL     1     -12.878  15.616  73.029  1.00  0.00    -0.599 A  
HETATM   20  C   UNL     1     -13.314  14.297  72.877  1.00  0.00    -0.561 A  
HETATM   21  C   UNL     1     -12.020  16.179  72.089  1.00  0.00    -0.623 A  
HETATM   22  C   UNL     1     -11.606  15.428  70.991  1.00  0.00    -0.410 A  
ENDBRANCH  16  17
ENDBRANCH  14  15
ENDBRANCH   2  14
TORSDOF 5
ENDMDL
MODEL      143
REMARK 921   NORMALIZED FREE ENERGY PREDICTED BY IDOCK:   -4.34 KCAL/MOL
REMARK 922        TOTAL FREE ENERGY PREDICTED BY IDOCK:   -6.92 KCAL/MOL
REMARK 923 INTER-LIGAND FREE ENERGY PREDICTED BY IDOCK:   -5.79 KCAL/MOL
REMARK 924 INTRA-LIGAND FREE ENERGY PREDICTED BY IDOCK:   -1.14 KCAL/MOL
REMARK 927      BINDING AFFINITY PREDICTED BY RF-SCORE:    0.00 PKD
ROOT
HETATM    1  C   UNL     1      -7.327   6.047  70.012  1.00  0.00    -0.075 C  
HETATM    2  N   UNL     1      -8.418   6.754  69.332  1.00  0.00    -0.131 NA 
ENDROOT
BRANCH   2   3
HETATM    3  C   UNL     1      -9.693   6.615  70.068  1.00  0.00    -0.162 C  
BRANCH   3   4
HETATM    4  C   UNL     1     -10.382   7.937  70.381  1.00  0.00    -0.212 A  
HETATM    5  C   UNL     1     -11.692   8.011  70.940  1.00  0.00    -0.265 A  
HETATM    6  C   UNL     1      -9.686   9.122  70.075  1.00  0.00    -0.217 A  
HETATM    7  C   UNL     1     -12.460   6.881  71.308  1.00  0.00    -0.409 A  
HETATM    8  C   UNL     1     -13.767   6.998  71.785  1.00  0.00    -0.309 A  
HETATM    9  C   UNL     1     -10.271  10.364  70.283  1.00  0.00     0.056 A  
HETATM   10  C   UNL     1     -14.338   8.254  71.929  1.00  0.00    -0.564 A  
HETATM   11  C   UNL     1     -11.561  10.445  70.799  1.00  0.00    -0.450 A  
HETATM   12  C   UNL     1     -12.283   9.287  71.122  1.00  0.00    -0.373 A  
HETATM   13  C   UNL     1     -13.595   9.391  71.613  1.00  0.00    -0.437 A  
ENDBRANCH   3   4
ENDBRANCH   2   3
BRANCH   2  14
HETATM   14  C   UNL     1      -8.528   6.274  67.947  1.00  0.00    -0.117 C  
BRANCH  14  15
HETATM   15  C   UNL     1      -8.607   7.401  66.956  1.00  0.00    -0.119 C  
HETATM   16  C   UNL     1      -9.717   8.129  66.752  1.00  0.00    -0.303 C  
BRANCH  16  17
HETATM   17  C   UNL     1      -9.799   9.301  65.867  1.00  0.00    -0.335 A  
HETATM   18  C   UNL     1     -10.488  10.468  66.214  1.00  0.00    -0.250 A  
HETATM   19  C   UNL     1      -9.179  10.341  63.757  1.00  0.00    -0.312 A  
HETATM   20  C   UNL     1      -9.130   9.256  64.636  1.00  0.00    -0.177 A  
HETATM   21  C   UNL     1      -9.888  11.487  64.104  1.00  0.00    -0.288 A  
HETATM   22  C   UNL     1     -10.539  11.553  65.335  1.00  0.00    -0.336 A  
ENDBRANCH  16  17
ENDBRANCH  14  15
ENDBRANCH   2  14
TORSDOF 5
ENDMDL
MODEL      144
REMARK 921   NORMALIZED FREE ENERGY PREDICTED BY IDOCK:   -4.34 KCAL/MOL
REMARK 922        TOTAL FREE ENERGY PREDICTED BY IDOCK:   -6.92 KCAL/MOL
REMARK 923 INTER-LIGAND FREE ENERGY PREDICTED BY IDOCK:   -6.38 KCAL/MOL
REMARK 924 INTRA-LIGAND FREE ENERGY PREDICTED BY IDOCK:   -0.54 KCAL/MOL
REMARK 927      BINDING AFFINITY PREDICTED BY RF-SCORE:    0.00 PKD
ROOT
HETATM    1  C   UNL     1      -8.025  11.060  68.630  1.00  0.00    -0.143 C  
HETATM    2  N   UNL     1      -9.220  11.230  67.798  1.00  0.00    -0.153 NA 
ENDROOT
BRANCH   2   3
HETATM    3  C   UNL     1     -10.114  12.276  68.344  1.00  0.00    -0.215 C  
BRANCH   3   4
HETATM    4  C   UNL     1     -10.183  13.543  67.501  1.00  0.00    -0.234 A  
HETATM    5  C   UNL     1     -10.965  13.637  66.313  1.00  0.00    -0.300 A  
HETATM    6  C   UNL     1      -9.413  14.645  67.920  1.00  0.00    -0.210 A  
HETATM    7  C   UNL     1     -11.792  12.597  65.825  1.00  0.00    -0.497 A  
HETATM    8  C   UNL     1     -12.486  12.708  64.619  1.00  0.00    -0.538 A  
HETATM    9  C   UNL     1      -9.384  15.816  67.174  1.00  0.00    -0.224 A  
HETATM   10  C   UNL     1     -12.389  13.873  63.872  1.00  0.00    -0.323 A  
HETATM   11  C   UNL     1     -10.120  15.906  65.995  1.00  0.00    -0.359 A  
HETATM   12  C   UNL     1     -10.903  14.831  65.550  1.00  0.00    -0.359 A  
HETATM   13  C   UNL     1     -11.614  14.932  64.343  1.00  0.00    -0.296 A  
ENDBRANCH   3   4
ENDBRANCH   2   3
BRANCH   2  14
HETATM   14  C   UNL     1      -9.908   9.940  67.653  1.00  0.00    -0.163 C  
BRANCH  14  15
HETATM   15  C   UNL     1      -9.785   9.084  68.882  1.00  0.00    -0.166 C  
HETATM   16  C   UNL     1     -10.780   8.917  69.769  1.00  0.00    -0.230 C  
BRANCH  16  17
HETATM   17  C   UNL     1     -10.727   8.008  70.923  1.00  0.00    -0.240 A  
HETATM   18  C   UNL     1     -10.388   8.434  72.212  1.00  0.00    -0.403 A  
HETATM   19  C   UNL     1     -11.022   5.754  71.791  1.00  0.00    -0.317 A  
HETATM   20  C   UNL     1     -11.060   6.660  70.728  1.00  0.00    -0.336 A  
HETATM   21  C   UNL     1     -10.660   6.187  73.063  1.00  0.00    -0.263 A  
HETATM   22  C   UNL     1     -10.348   7.528  73.275  1.00  0.00    -0.412 A  
ENDBRANCH  16  17
ENDBRANCH  14  15
ENDBRANCH   2  14
TORSDOF 5
ENDMDL
MODEL      145
REMARK 921   NORMALIZED FREE ENERGY PREDICTED BY IDOCK:   -4.34 KCAL/MOL
REMARK 922        TOTAL FREE ENERGY PREDICTED BY IDOCK:   -6.91 KCAL/MOL
REMARK 923 INTER-LIGAND FREE ENERGY PREDICTED BY IDOCK:   -5.58 KCAL/MOL
REMARK 924 INTRA-LIGAND FREE ENERGY PREDICTED BY IDOCK:   -1.33 KCAL/MOL
REMARK 927      BINDING AFFINITY PREDICTED BY RF-SCORE:    0.00 PKD
ROOT
HETATM    1  C   UNL     1     -11.071  13.015  68.443  1.00  0.00    -0.262 C  
HETATM    2  N   UNL     1     -10.856  11.597  68.744  1.00  0.00    -0.211 NA 
ENDROOT
BRANCH   2   3
HETATM    3  C   UNL     1     -11.144  10.745  67.569  1.00  0.00    -0.308 C  
BRANCH   3   4
HETATM    4  C   UNL     1      -9.921  10.049  66.986  1.00  0.00    -0.257 A  
HETATM    5  C   UNL     1      -9.826   8.631  66.862  1.00  0.00    -0.305 A  
HETATM    6  C   UNL     1      -8.843  10.859  66.581  1.00  0.00    -0.164 A  
HETATM    7  C   UNL     1     -10.863   7.736  67.214  1.00  0.00    -0.225 A  
HETATM    8  C   UNL     1     -10.700   6.351  67.144  1.00  0.00    -0.433 A  
HETATM    9  C   UNL     1      -7.674  10.293  66.089  1.00  0.00    -0.123 A  
HETATM   10  C   UNL     1      -9.498   5.820  66.699  1.00  0.00    -0.161 A  
HETATM   11  C   UNL     1      -7.560   8.909  65.995  1.00  0.00    -0.094 A  
HETATM   12  C   UNL     1      -8.615   8.071  66.383  1.00  0.00    -0.155 A  
HETATM   13  C   UNL     1      -8.468   6.675  66.307  1.00  0.00    -0.130 A  
ENDBRANCH   3   4
ENDBRANCH   2   3
BRANCH   2  14
HETATM   14  C   UNL     1     -11.662  11.213  69.911  1.00  0.00    -0.355 C  
BRANCH  14  15
HETATM   15  C   UNL     1     -11.044  10.084  70.687  1.00  0.00    -0.408 C  
HETATM   16  C   UNL     1     -11.662   8.911  70.902  1.00  0.00    -0.312 C  
BRANCH  16  17
HETATM   17  C   UNL     1     -11.048   7.751  71.566  1.00  0.00    -0.270 A  
HETATM   18  C   UNL     1     -10.407   6.724  70.864  1.00  0.00    -0.222 A  
HETATM   19  C   UNL     1     -10.515   6.607  73.646  1.00  0.00    -0.353 A  
HETATM   20  C   UNL     1     -11.081   7.689  72.967  1.00  0.00    -0.437 A  
HETATM   21  C   UNL     1      -9.902   5.581  72.934  1.00  0.00    -0.182 A  
HETATM   22  C   UNL     1      -9.843   5.641  71.543  1.00  0.00    -0.213 A  
ENDBRANCH  16  17
ENDBRANCH  14  15
ENDBRANCH   2  14
TORSDOF 5
ENDMDL
MODEL      146
REMARK 921   NORMALIZED FREE ENERGY PREDICTED BY IDOCK:   -4.34 KCAL/MOL
REMARK 922        TOTAL FREE ENERGY PREDICTED BY IDOCK:   -6.91 KCAL/MOL
REMARK 923 INTER-LIGAND FREE ENERGY PREDICTED BY IDOCK:   -6.90 KCAL/MOL
REMARK 924 INTRA-LIGAND FREE ENERGY PREDICTED BY IDOCK:   -0.01 KCAL/MOL
REMARK 927      BINDING AFFINITY PREDICTED BY RF-SCORE:    0.00 PKD
ROOT
HETATM    1  C   UNL     1     -11.662  13.351  69.378  1.00  0.00    -0.325 C  
HETATM    2  N   UNL     1     -10.816  12.204  69.031  1.00  0.00    -0.197 NA 
ENDROOT
BRANCH   2   3
HETATM    3  C   UNL     1      -9.924  12.515  67.892  1.00  0.00    -0.212 C  
BRANCH   3   4
HETATM    4  C   UNL     1     -10.648  13.014  66.649  1.00  0.00    -0.275 A  
HETATM    5  C   UNL     1     -10.591  14.371  66.215  1.00  0.00    -0.292 A  
HETATM    6  C   UNL     1     -11.420  12.083  65.928  1.00  0.00    -0.392 A  
HETATM    7  C   UNL     1      -9.822  15.373  66.854  1.00  0.00    -0.251 A  
HETATM    8  C   UNL     1      -9.851  16.706  66.436  1.00  0.00    -0.308 A  
HETATM    9  C   UNL     1     -12.151  12.476  64.814  1.00  0.00    -0.497 A  
HETATM   10  C   UNL     1     -10.636  17.071  65.352  1.00  0.00    -0.147 A  
HETATM   11  C   UNL     1     -12.125  13.805  64.402  1.00  0.00    -0.474 A  
HETATM   12  C   UNL     1     -11.363  14.759  65.091  1.00  0.00    -0.379 A  
HETATM   13  C   UNL     1     -11.375  16.101  64.676  1.00  0.00    -0.287 A  
ENDBRANCH   3   4
ENDBRANCH   2   3
BRANCH   2  14
HETATM   14  C   UNL     1     -11.660  11.032  68.765  1.00  0.00    -0.318 C  
BRANCH  14  15
HETATM   15  C   UNL     1     -11.256   9.838  69.582  1.00  0.00    -0.216 C  
HETATM   16  C   UNL     1     -11.525   9.713  70.893  1.00  0.00    -0.427 C  
BRANCH  16  17
HETATM   17  C   UNL     1     -11.236   8.517  71.697  1.00  0.00    -0.361 A  
HETATM   18  C   UNL     1     -12.086   7.407  71.741  1.00  0.00    -0.345 A  
HETATM   19  C   UNL     1      -9.720   7.365  73.211  1.00  0.00    -0.300 A  
HETATM   20  C   UNL     1     -10.040   8.477  72.428  1.00  0.00    -0.365 A  
HETATM   21  C   UNL     1     -10.586   6.277  73.263  1.00  0.00    -0.284 A  
HETATM   22  C   UNL     1     -11.767   6.295  72.525  1.00  0.00    -0.245 A  
ENDBRANCH  16  17
ENDBRANCH  14  15
ENDBRANCH   2  14
TORSDOF 5
ENDMDL
MODEL      147
REMARK 921   NORMALIZED FREE ENERGY PREDICTED BY IDOCK:   -4.33 KCAL/MOL
REMARK 922        TOTAL FREE ENERGY PREDICTED BY IDOCK:   -6.90 KCAL/MOL
REMARK 923 INTER-LIGAND FREE ENERGY PREDICTED BY IDOCK:   -5.27 KCAL/MOL
REMARK 924 INTRA-LIGAND FREE ENERGY PREDICTED BY IDOCK:   -1.62 KCAL/MOL
REMARK 927      BINDING AFFINITY PREDICTED BY RF-SCORE:    0.00 PKD
ROOT
HETATM    1  C   UNL     1      -6.608   9.423  62.682  1.00  0.00    -0.096 C  
HETATM    2  N   UNL     1      -7.758   9.537  63.584  1.00  0.00    -0.119 NA 
ENDROOT
BRANCH   2   3
HETATM    3  C   UNL     1      -7.804   8.416  64.547  1.00  0.00    -0.136 C  
BRANCH   3   4
HETATM    4  C   UNL     1      -8.761   8.630  65.712  1.00  0.00    -0.212 A  
HETATM    5  C   UNL     1      -8.717   9.787  66.544  1.00  0.00    -0.139 A  
HETATM    6  C   UNL     1      -9.705   7.618  65.973  1.00  0.00     0.100 A  
HETATM    7  C   UNL     1      -7.826  10.869  66.347  1.00  0.00    -0.154 A  
HETATM    8  C   UNL     1      -7.769  11.950  67.229  1.00  0.00    -0.164 A  
HETATM    9  C   UNL     1     -10.575   7.719  67.050  1.00  0.00    -0.396 A  
HETATM   10  C   UNL     1      -8.617  11.990  68.326  1.00  0.00    -0.174 A  
HETATM   11  C   UNL     1     -10.517   8.830  67.887  1.00  0.00    -0.275 A  
HETATM   12  C   UNL     1      -9.596   9.861  67.654  1.00  0.00    -0.172 A  
HETATM   13  C   UNL     1      -9.534  10.959  68.528  1.00  0.00    -0.185 A  
ENDBRANCH   3   4
ENDBRANCH   2   3
BRANCH   2  14
HETATM   14  C   UNL     1      -8.994   9.636  62.796  1.00  0.00    -0.252 C  
BRANCH  14  15
HETATM   15  C   UNL     1      -9.781  10.875  63.119  1.00  0.00    -0.396 C  
HETATM   16  C   UNL     1     -10.711  10.929  64.087  1.00  0.00    -0.231 C  
BRANCH  16  17
HETATM   17  C   UNL     1     -11.423  12.148  64.496  1.00  0.00    -0.397 A  
HETATM   18  C   UNL     1     -11.958  13.060  63.580  1.00  0.00    -0.615 A  
HETATM   19  C   UNL     1     -12.266  13.537  66.308  1.00  0.00    -0.468 A  
HETATM   20  C   UNL     1     -11.599  12.391  65.866  1.00  0.00    -0.449 A  
HETATM   21  C   UNL     1     -12.772  14.447  65.385  1.00  0.00    -0.297 A  
HETATM   22  C   UNL     1     -12.623  14.207  64.021  1.00  0.00    -0.045 A  
ENDBRANCH  16  17
ENDBRANCH  14  15
ENDBRANCH   2  14
TORSDOF 5
ENDMDL
MODEL      148
REMARK 921   NORMALIZED FREE ENERGY PREDICTED BY IDOCK:   -4.31 KCAL/MOL
REMARK 922        TOTAL FREE ENERGY PREDICTED BY IDOCK:   -6.88 KCAL/MOL
REMARK 923 INTER-LIGAND FREE ENERGY PREDICTED BY IDOCK:   -5.75 KCAL/MOL
REMARK 924 INTRA-LIGAND FREE ENERGY PREDICTED BY IDOCK:   -1.13 KCAL/MOL
REMARK 927      BINDING AFFINITY PREDICTED BY RF-SCORE:    0.00 PKD
ROOT
HETATM    1  C   UNL     1      -7.701   4.198  68.749  1.00  0.00    -0.058 C  
HETATM    2  N   UNL     1      -8.777   5.144  68.437  1.00  0.00    -0.101 NA 
ENDROOT
BRANCH   2   3
HETATM    3  C   UNL     1      -8.303   6.543  68.502  1.00  0.00    -0.121 C  
BRANCH   3   4
HETATM    4  C   UNL     1      -8.325   7.274  67.165  1.00  0.00    -0.118 A  
HETATM    5  C   UNL     1      -9.110   8.442  66.937  1.00  0.00    -0.179 A  
HETATM    6  C   UNL     1      -7.547   6.741  66.120  1.00  0.00    -0.086 A  
HETATM    7  C   UNL     1      -9.902   9.069  67.930  1.00  0.00    -0.207 A  
HETATM    8  C   UNL     1     -10.711  10.170  67.643  1.00  0.00    -0.339 A  
HETATM    9  C   UNL     1      -7.557   7.322  64.859  1.00  0.00    -0.102 A  
HETATM   10  C   UNL     1     -10.738  10.690  66.357  1.00  0.00    -0.198 A  
HETATM   11  C   UNL     1      -8.346   8.444  64.619  1.00  0.00    -0.137 A  
HETATM   12  C   UNL     1      -9.129   9.006  65.637  1.00  0.00    -0.278 A  
HETATM   13  C   UNL     1      -9.940  10.120  65.365  1.00  0.00    -0.377 A  
ENDBRANCH   3   4
ENDBRANCH   2   3
BRANCH   2  14
HETATM   14  C   UNL     1      -9.917   4.907  69.334  1.00  0.00    -0.212 C  
BRANCH  14  15
HETATM   15  C   UNL     1     -10.578   6.185  69.768  1.00  0.00    -0.343 C  
HETATM   16  C   UNL     1     -11.695   6.223  70.513  1.00  0.00    -0.289 C  
BRANCH  16  17
HETATM   17  C   UNL     1     -12.308   7.451  71.040  1.00  0.00    -0.303 A  
HETATM   18  C   UNL     1     -13.628   7.506  71.500  1.00  0.00    -0.439 A  
HETATM   19  C   UNL     1     -12.058   9.805  71.603  1.00  0.00    -0.475 A  
HETATM   20  C   UNL     1     -11.523   8.611  71.113  1.00  0.00    -0.332 A  
HETATM   21  C   UNL     1     -13.380   9.851  72.034  1.00  0.00    -0.532 A  
HETATM   22  C   UNL     1     -14.164   8.700  71.988  1.00  0.00    -0.524 A  
ENDBRANCH  16  17
ENDBRANCH  14  15
ENDBRANCH   2  14
TORSDOF 5
ENDMDL
MODEL      149
REMARK 921   NORMALIZED FREE ENERGY PREDICTED BY IDOCK:   -4.31 KCAL/MOL
REMARK 922        TOTAL FREE ENERGY PREDICTED BY IDOCK:   -6.88 KCAL/MOL
REMARK 923 INTER-LIGAND FREE ENERGY PREDICTED BY IDOCK:   -6.75 KCAL/MOL
REMARK 924 INTRA-LIGAND FREE ENERGY PREDICTED BY IDOCK:   -0.12 KCAL/MOL
REMARK 927      BINDING AFFINITY PREDICTED BY RF-SCORE:    0.00 PKD
ROOT
HETATM    1  C   UNL     1      -9.027  10.219  67.529  1.00  0.00    -0.134 C  
HETATM    2  N   UNL     1     -10.397  10.114  67.018  1.00  0.00    -0.233 NA 
ENDROOT
BRANCH   2   3
HETATM    3  C   UNL     1     -11.351  10.851  67.875  1.00  0.00    -0.308 C  
BRANCH   3   4
HETATM    4  C   UNL     1     -11.603  12.289  67.440  1.00  0.00    -0.425 A  
HETATM    5  C   UNL     1     -11.834  12.654  66.080  1.00  0.00    -0.477 A  
HETATM    6  C   UNL     1     -11.579  13.284  68.435  1.00  0.00    -0.372 A  
HETATM    7  C   UNL     1     -11.905  11.726  65.014  1.00  0.00    -0.104 A  
HETATM    8  C   UNL     1     -12.063  12.135  63.688  1.00  0.00    -0.648 A  
HETATM    9  C   UNL     1     -11.747  14.622  68.106  1.00  0.00    -0.360 A  
HETATM   10  C   UNL     1     -12.173  13.485  63.391  1.00  0.00    -0.338 A  
HETATM   11  C   UNL     1     -11.941  14.991  66.778  1.00  0.00     0.006 A  
HETATM   12  C   UNL     1     -11.979  14.027  65.760  1.00  0.00    -0.417 A  
HETATM   13  C   UNL     1     -12.146  14.423  64.423  1.00  0.00    -0.491 A  
ENDBRANCH   3   4
ENDBRANCH   2   3
BRANCH   2  14
HETATM   14  C   UNL     1     -10.763   8.699  66.877  1.00  0.00    -0.082 C  
BRANCH  14  15
HETATM   15  C   UNL     1     -10.456   7.902  68.114  1.00  0.00    -0.227 C  
HETATM   16  C   UNL     1     -10.971   6.685  68.357  1.00  0.00    -0.313 C  
BRANCH  16  17
HETATM   17  C   UNL     1     -10.611   5.838  69.504  1.00  0.00    -0.390 A  
HETATM   18  C   UNL     1      -9.899   4.641  69.371  1.00  0.00    -0.272 A  
HETATM   19  C   UNL     1     -10.660   5.496  71.912  1.00  0.00    -0.293 A  
HETATM   20  C   UNL     1     -10.974   6.266  70.789  1.00  0.00    -0.357 A  
HETATM   21  C   UNL     1      -9.972   4.296  71.763  1.00  0.00    -0.254 A  
HETATM   22  C   UNL     1      -9.586   3.870  70.494  1.00  0.00    -0.263 A  
ENDBRANCH  16  17
ENDBRANCH  14  15
ENDBRANCH   2  14
TORSDOF 5
ENDMDL
MODEL      150
REMARK 921   NORMALIZED FREE ENERGY PREDICTED BY IDOCK:   -4.30 KCAL/MOL
REMARK 922        TOTAL FREE ENERGY PREDICTED BY IDOCK:   -6.87 KCAL/MOL
REMARK 923 INTER-LIGAND FREE ENERGY PREDICTED BY IDOCK:   -5.16 KCAL/MOL
REMARK 924 INTRA-LIGAND FREE ENERGY PREDICTED BY IDOCK:   -1.71 KCAL/MOL
REMARK 927      BINDING AFFINITY PREDICTED BY RF-SCORE:    0.00 PKD
ROOT
HETATM    1  C   UNL     1     -10.599   5.186  74.097  1.00  0.00    -0.276 C  
HETATM    2  N   UNL     1     -10.245   5.253  72.676  1.00  0.00    -0.177 NA 
ENDROOT
BRANCH   2   3
HETATM    3  C   UNL     1     -11.323   5.876  71.878  1.00  0.00    -0.247 C  
BRANCH   3   4
HETATM    4  C   UNL     1     -10.916   7.163  71.172  1.00  0.00    -0.272 A  
HETATM    5  C   UNL     1     -10.820   7.267  69.753  1.00  0.00    -0.251 A  
HETATM    6  C   UNL     1     -10.602   8.275  71.977  1.00  0.00    -0.365 A  
HETATM    7  C   UNL     1     -11.139   6.217  68.860  1.00  0.00    -0.434 A  
HETATM    8  C   UNL     1     -10.962   6.341  67.480  1.00  0.00    -0.444 A  
HETATM    9  C   UNL     1     -10.172   9.466  71.407  1.00  0.00    -0.297 A  
HETATM   10  C   UNL     1     -10.478   7.528  66.951  1.00  0.00    -0.385 A  
HETATM   11  C   UNL     1     -10.045   9.567  70.024  1.00  0.00    -0.279 A  
HETATM   12  C   UNL     1     -10.354   8.483  69.191  1.00  0.00    -0.227 A  
HETATM   13  C   UNL     1     -10.190   8.596  67.800  1.00  0.00    -0.282 A  
ENDBRANCH   3   4
ENDBRANCH   2   3
BRANCH   2  14
HETATM   14  C   UNL     1      -9.907   3.908  72.189  1.00  0.00    -0.166 C  
BRANCH  14  15
HETATM   15  C   UNL     1      -9.141   3.943  70.896  1.00  0.00    -0.179 C  
HETATM   16  C   UNL     1      -9.470   3.206  69.822  1.00  0.00    -0.198 C  
BRANCH  16  17
HETATM   17  C   UNL     1      -8.806   3.293  68.513  1.00  0.00    -0.164 A  
HETATM   18  C   UNL     1      -8.975   2.332  67.510  1.00  0.00    -0.185 A  
HETATM   19  C   UNL     1      -7.336   4.532  67.022  1.00  0.00    -0.080 A  
HETATM   20  C   UNL     1      -7.992   4.404  68.249  1.00  0.00    -0.079 A  
HETATM   21  C   UNL     1      -7.494   3.557  66.042  1.00  0.00    -0.076 A  
HETATM   22  C   UNL     1      -8.317   2.459  66.283  1.00  0.00    -0.094 A  
ENDBRANCH  16  17
ENDBRANCH  14  15
ENDBRANCH   2  14
TORSDOF 5
ENDMDL
MODEL      151
REMARK 921   NORMALIZED FREE ENERGY PREDICTED BY IDOCK:   -4.29 KCAL/MOL
REMARK 922        TOTAL FREE ENERGY PREDICTED BY IDOCK:   -6.85 KCAL/MOL
REMARK 923 INTER-LIGAND FREE ENERGY PREDICTED BY IDOCK:   -6.41 KCAL/MOL
REMARK 924 INTRA-LIGAND FREE ENERGY PREDICTED BY IDOCK:   -0.44 KCAL/MOL
REMARK 927      BINDING AFFINITY PREDICTED BY RF-SCORE:    0.00 PKD
ROOT
HETATM    1  C   UNL     1     -10.364   8.206  67.680  1.00  0.00    -0.247 C  
HETATM    2  N   UNL     1     -10.399   9.175  68.780  1.00  0.00    -0.211 NA 
ENDROOT
BRANCH   2   3
HETATM    3  C   UNL     1     -11.090   8.623  69.965  1.00  0.00    -0.157 C  
BRANCH   3   4
HETATM    4  C   UNL     1     -10.416   7.397  70.568  1.00  0.00    -0.227 A  
HETATM    5  C   UNL     1      -9.125   7.446  71.172  1.00  0.00    -0.148 A  
HETATM    6  C   UNL     1     -11.106   6.172  70.493  1.00  0.00    -0.405 A  
HETATM    7  C   UNL     1      -8.366   8.632  71.321  1.00  0.00    -0.211 A  
HETATM    8  C   UNL     1      -7.075   8.621  71.854  1.00  0.00    -0.090 A  
HETATM    9  C   UNL     1     -10.531   5.003  70.974  1.00  0.00    -0.211 A  
HETATM   10  C   UNL     1      -6.513   7.425  72.274  1.00  0.00    -0.050 A  
HETATM   11  C   UNL     1      -9.258   5.036  71.536  1.00  0.00    -0.181 A  
HETATM   12  C   UNL     1      -8.544   6.238  71.634  1.00  0.00    -0.133 A  
HETATM   13  C   UNL     1      -7.248   6.244  72.177  1.00  0.00    -0.091 A  
ENDBRANCH   3   4
ENDBRANCH   2   3
BRANCH   2  14
HETATM   14  C   UNL     1     -11.017  10.425  68.316  1.00  0.00    -0.270 C  
BRANCH  14  15
HETATM   15  C   UNL     1     -11.657  11.196  69.435  1.00  0.00    -0.388 C  
HETATM   16  C   UNL     1     -11.763  12.536  69.444  1.00  0.00    -0.383 C  
BRANCH  16  17
HETATM   17  C   UNL     1     -12.473  13.312  70.471  1.00  0.00    -0.332 A  
HETATM   18  C   UNL     1     -13.075  12.723  71.589  1.00  0.00    -0.428 A  
HETATM   19  C   UNL     1     -13.190  15.490  71.284  1.00  0.00    -0.588 A  
HETATM   20  C   UNL     1     -12.524  14.707  70.338  1.00  0.00    -0.410 A  
HETATM   21  C   UNL     1     -13.803  14.889  72.378  1.00  0.00    -0.587 A  
HETATM   22  C   UNL     1     -13.742  13.506  72.534  1.00  0.00    -0.664 A  
ENDBRANCH  16  17
ENDBRANCH  14  15
ENDBRANCH   2  14
TORSDOF 5
ENDMDL
MODEL      152
REMARK 921   NORMALIZED FREE ENERGY PREDICTED BY IDOCK:   -4.28 KCAL/MOL
REMARK 922        TOTAL FREE ENERGY PREDICTED BY IDOCK:   -6.84 KCAL/MOL
REMARK 923 INTER-LIGAND FREE ENERGY PREDICTED BY IDOCK:   -6.73 KCAL/MOL
REMARK 924 INTRA-LIGAND FREE ENERGY PREDICTED BY IDOCK:   -0.11 KCAL/MOL
REMARK 927      BINDING AFFINITY PREDICTED BY RF-SCORE:    0.00 PKD
ROOT
HETATM    1  C   UNL     1     -12.724  10.565  69.647  1.00  0.00     0.268 C  
HETATM    2  N   UNL     1     -11.667  10.660  68.635  1.00  0.00    -0.358 NA 
ENDROOT
BRANCH   2   3
HETATM    3  C   UNL     1     -10.411  10.036  69.105  1.00  0.00    -0.219 C  
BRANCH   3   4
HETATM    4  C   UNL     1     -10.499   8.529  69.308  1.00  0.00    -0.224 A  
HETATM    5  C   UNL     1     -10.477   7.922  70.599  1.00  0.00    -0.216 A  
HETATM    6  C   UNL     1     -10.580   7.721  68.158  1.00  0.00    -0.182 A  
HETATM    7  C   UNL     1     -10.425   8.647  71.813  1.00  0.00    -0.394 A  
HETATM    8  C   UNL     1     -10.334   8.009  73.052  1.00  0.00    -0.351 A  
HETATM    9  C   UNL     1     -10.610   6.337  68.263  1.00  0.00    -0.318 A  
HETATM   10  C   UNL     1     -10.311   6.624  73.114  1.00  0.00    -0.256 A  
HETATM   11  C   UNL     1     -10.557   5.735  69.517  1.00  0.00    -0.390 A  
HETATM   12  C   UNL     1     -10.482   6.507  70.684  1.00  0.00    -0.257 A  
HETATM   13  C   UNL     1     -10.399   5.878  71.938  1.00  0.00    -0.255 A  
ENDBRANCH   3   4
ENDBRANCH   2   3
BRANCH   2  14
HETATM   14  C   UNL     1     -11.474  12.067  68.256  1.00  0.00    -0.303 C  
BRANCH  14  15
HETATM   15  C   UNL     1     -12.166  13.013  69.195  1.00  0.00    -0.106 C  
HETATM   16  C   UNL     1     -11.691  13.327  70.412  1.00  0.00    -0.161 C  
BRANCH  16  17
HETATM   17  C   UNL     1     -12.288  14.325  71.312  1.00  0.00    -0.439 A  
HETATM   18  C   UNL     1     -11.532  15.294  71.980  1.00  0.00    -0.500 A  
HETATM   19  C   UNL     1     -14.297  15.248  72.329  1.00  0.00    -0.586 A  
HETATM   20  C   UNL     1     -13.680  14.323  71.482  1.00  0.00    -0.428 A  
HETATM   21  C   UNL     1     -13.530  16.191  73.006  1.00  0.00    -0.415 A  
HETATM   22  C   UNL     1     -12.148  16.218  72.828  1.00  0.00    -0.637 A  
ENDBRANCH  16  17
ENDBRANCH  14  15
ENDBRANCH   2  14
TORSDOF 5
ENDMDL
MODEL      153
REMARK 921   NORMALIZED FREE ENERGY PREDICTED BY IDOCK:   -4.27 KCAL/MOL
REMARK 922        TOTAL FREE ENERGY PREDICTED BY IDOCK:   -6.83 KCAL/MOL
REMARK 923 INTER-LIGAND FREE ENERGY PREDICTED BY IDOCK:   -4.75 KCAL/MOL
REMARK 924 INTRA-LIGAND FREE ENERGY PREDICTED BY IDOCK:   -2.08 KCAL/MOL
REMARK 927      BINDING AFFINITY PREDICTED BY RF-SCORE:    0.00 PKD
ROOT
HETATM    1  C   UNL     1      -5.827  15.731  70.059  1.00  0.00    -0.159 C  
HETATM    2  N   UNL     1      -6.722  15.155  69.051  1.00  0.00    -0.113 NA 
ENDROOT
BRANCH   2   3
HETATM    3  C   UNL     1      -8.136  15.490  69.330  1.00  0.00    -0.241 C  
BRANCH   3   4
HETATM    4  C   UNL     1      -8.971  15.770  68.087  1.00  0.00    -0.180 A  
HETATM    5  C   UNL     1     -10.127  15.008  67.746  1.00  0.00    -0.234 A  
HETATM    6  C   UNL     1      -8.549  16.814  67.242  1.00  0.00    -0.208 A  
HETATM    7  C   UNL     1     -10.646  13.959  68.543  1.00  0.00    -0.260 A  
HETATM    8  C   UNL     1     -11.739  13.193  68.134  1.00  0.00    -0.391 A  
HETATM    9  C   UNL     1      -9.228  17.094  66.064  1.00  0.00    -0.147 A  
HETATM   10  C   UNL     1     -12.359  13.466  66.924  1.00  0.00    -0.262 A  
HETATM   11  C   UNL     1     -10.339  16.334  65.707  1.00  0.00    -0.393 A  
HETATM   12  C   UNL     1     -10.792  15.291  66.526  1.00  0.00    -0.311 A  
HETATM   13  C   UNL     1     -11.897  14.518  66.133  1.00  0.00    -0.344 A  
ENDBRANCH   3   4
ENDBRANCH   2   3
BRANCH   2  14
HETATM   14  C   UNL     1      -6.507  13.704  68.970  1.00  0.00    -0.106 C  
BRANCH  14  15
HETATM   15  C   UNL     1      -7.169  13.093  67.768  1.00  0.00    -0.147 C  
HETATM   16  C   UNL     1      -7.931  11.988  67.825  1.00  0.00    -0.147 C  
BRANCH  16  17
HETATM   17  C   UNL     1      -8.675  11.425  66.690  1.00  0.00    -0.178 A  
HETATM   18  C   UNL     1      -9.090  12.193  65.596  1.00  0.00     0.132 A  
HETATM   19  C   UNL     1      -9.664   9.467  65.637  1.00  0.00    -0.361 A  
HETATM   20  C   UNL     1      -8.956  10.051  66.690  1.00  0.00    -0.156 A  
HETATM   21  C   UNL     1     -10.090  10.248  64.567  1.00  0.00    -0.286 A  
HETATM   22  C   UNL     1      -9.799  11.610  64.543  1.00  0.00    -0.254 A  
ENDBRANCH  16  17
ENDBRANCH  14  15
ENDBRANCH   2  14
TORSDOF 5
ENDMDL
MODEL      154
REMARK 921   NORMALIZED FREE ENERGY PREDICTED BY IDOCK:   -4.23 KCAL/MOL
REMARK 922        TOTAL FREE ENERGY PREDICTED BY IDOCK:   -6.78 KCAL/MOL
REMARK 923 INTER-LIGAND FREE ENERGY PREDICTED BY IDOCK:   -6.33 KCAL/MOL
REMARK 924 INTRA-LIGAND FREE ENERGY PREDICTED BY IDOCK:   -0.44 KCAL/MOL
REMARK 927      BINDING AFFINITY PREDICTED BY RF-SCORE:    0.00 PKD
ROOT
HETATM    1  C   UNL     1     -12.415  13.990  65.879  1.00  0.00    -0.481 C  
HETATM    2  N   UNL     1     -11.349  14.991  65.767  1.00  0.00    -0.317 NA 
ENDROOT
BRANCH   2   3
HETATM    3  C   UNL     1     -10.073  14.377  65.339  1.00  0.00    -0.359 C  
BRANCH   3   4
HETATM    4  C   UNL     1      -9.049  14.220  66.455  1.00  0.00    -0.212 A  
HETATM    5  C   UNL     1      -8.151  15.263  66.830  1.00  0.00    -0.224 A  
HETATM    6  C   UNL     1      -8.989  12.977  67.113  1.00  0.00    -0.223 A  
HETATM    7  C   UNL     1      -8.152  16.554  66.249  1.00  0.00    -0.341 A  
HETATM    8  C   UNL     1      -7.208  17.522  66.598  1.00  0.00    -0.269 A  
HETATM    9  C   UNL     1      -8.045  12.743  68.105  1.00  0.00    -0.158 A  
HETATM   10  C   UNL     1      -6.245  17.233  67.554  1.00  0.00    -0.169 A  
HETATM   11  C   UNL     1      -7.144  13.745  68.455  1.00  0.00    -0.105 A  
HETATM   12  C   UNL     1      -7.178  14.997  67.826  1.00  0.00    -0.186 A  
HETATM   13  C   UNL     1      -6.240  15.984  68.174  1.00  0.00    -0.127 A  
ENDBRANCH   3   4
ENDBRANCH   2   3
BRANCH   2  14
HETATM   14  C   UNL     1     -11.213  15.711  67.041  1.00  0.00    -0.127 C  
BRANCH  14  15
HETATM   15  C   UNL     1     -12.071  15.123  68.125  1.00  0.00    -0.009 C  
HETATM   16  C   UNL     1     -11.575  14.598  69.258  1.00  0.00    -0.335 C  
BRANCH  16  17
HETATM   17  C   UNL     1     -12.389  14.109  70.380  1.00  0.00    -0.428 A  
HETATM   18  C   UNL     1     -13.298  14.920  71.069  1.00  0.00    -0.449 A  
HETATM   19  C   UNL     1     -13.016  12.251  71.820  1.00  0.00    -0.431 A  
HETATM   20  C   UNL     1     -12.269  12.764  70.757  1.00  0.00    -0.338 A  
HETATM   21  C   UNL     1     -13.900  13.075  72.511  1.00  0.00    -0.420 A  
HETATM   22  C   UNL     1     -14.045  14.408  72.133  1.00  0.00    -0.627 A  
ENDBRANCH  16  17
ENDBRANCH  14  15
ENDBRANCH   2  14
TORSDOF 5
ENDMDL
MODEL      155
REMARK 921   NORMALIZED FREE ENERGY PREDICTED BY IDOCK:   -4.23 KCAL/MOL
REMARK 922        TOTAL FREE ENERGY PREDICTED BY IDOCK:   -6.77 KCAL/MOL
REMARK 923 INTER-LIGAND FREE ENERGY PREDICTED BY IDOCK:   -6.07 KCAL/MOL
REMARK 924 INTRA-LIGAND FREE ENERGY PREDICTED BY IDOCK:   -0.70 KCAL/MOL
REMARK 927      BINDING AFFINITY PREDICTED BY RF-SCORE:    0.00 PKD
ROOT
HETATM    1  C   UNL     1      -8.622   7.291  65.370  1.00  0.00    -0.031 C  
HETATM    2  N   UNL     1      -8.799   7.095  66.812  1.00  0.00    -0.125 NA 
ENDROOT
BRANCH   2   3
HETATM    3  C   UNL     1      -9.954   6.216  67.101  1.00  0.00    -0.154 C  
BRANCH   3   4
HETATM    4  C   UNL     1      -9.832   5.431  68.400  1.00  0.00    -0.197 A  
HETATM    5  C   UNL     1     -10.567   5.766  69.576  1.00  0.00    -0.390 A  
HETATM    6  C   UNL     1      -8.933   4.348  68.425  1.00  0.00    -0.149 A  
HETATM    7  C   UNL     1     -11.514   6.816  69.644  1.00  0.00    -0.286 A  
HETATM    8  C   UNL     1     -12.159   7.153  70.836  1.00  0.00    -0.368 A  
HETATM    9  C   UNL     1      -8.730   3.619  69.588  1.00  0.00    -0.127 A  
HETATM   10  C   UNL     1     -11.890   6.436  71.992  1.00  0.00    -0.382 A  
HETATM   11  C   UNL     1      -9.420   3.959  70.749  1.00  0.00    -0.233 A  
HETATM   12  C   UNL     1     -10.328   5.026  70.761  1.00  0.00    -0.265 A  
HETATM   13  C   UNL     1     -10.991   5.371  71.951  1.00  0.00    -0.219 A  
ENDBRANCH   3   4
ENDBRANCH   2   3
BRANCH   2  14
HETATM   14  C   UNL     1      -8.922   8.400  67.475  1.00  0.00    -0.135 C  
BRANCH  14  15
HETATM   15  C   UNL     1      -9.556   9.435  66.589  1.00  0.00    -0.250 C  
HETATM   16  C   UNL     1     -10.365  10.405  67.047  1.00  0.00    -0.295 C  
BRANCH  16  17
HETATM   17  C   UNL     1     -10.918  11.491  66.224  1.00  0.00    -0.328 A  
HETATM   18  C   UNL     1     -10.875  11.483  64.826  1.00  0.00    -0.360 A  
HETATM   19  C   UNL     1     -12.078  13.628  66.136  1.00  0.00    -0.477 A  
HETATM   20  C   UNL     1     -11.541  12.568  66.871  1.00  0.00    -0.436 A  
HETATM   21  C   UNL     1     -12.008  13.617  64.746  1.00  0.00    -0.426 A  
HETATM   22  C   UNL     1     -11.411  12.543  64.090  1.00  0.00    -0.440 A  
ENDBRANCH  16  17
ENDBRANCH  14  15
ENDBRANCH   2  14
TORSDOF 5
ENDMDL
MODEL      156
REMARK 921   NORMALIZED FREE ENERGY PREDICTED BY IDOCK:   -4.20 KCAL/MOL
REMARK 922        TOTAL FREE ENERGY PREDICTED BY IDOCK:   -6.74 KCAL/MOL
REMARK 923 INTER-LIGAND FREE ENERGY PREDICTED BY IDOCK:   -6.33 KCAL/MOL
REMARK 924 INTRA-LIGAND FREE ENERGY PREDICTED BY IDOCK:   -0.41 KCAL/MOL
REMARK 927      BINDING AFFINITY PREDICTED BY RF-SCORE:    0.00 PKD
ROOT
HETATM    1  C   UNL     1      -8.581  11.845  67.882  1.00  0.00    -0.162 C  
HETATM    2  N   UNL     1     -10.000  11.671  67.559  1.00  0.00    -0.186 NA 
ENDROOT
BRANCH   2   3
HETATM    3  C   UNL     1     -10.843  11.734  68.774  1.00  0.00    -0.227 C  
BRANCH   3   4
HETATM    4  C   UNL     1     -11.389  13.122  69.084  1.00  0.00    -0.335 A  
HETATM    5  C   UNL     1     -12.214  13.390  70.216  1.00  0.00    -0.405 A  
HETATM    6  C   UNL     1     -11.072  14.161  68.189  1.00  0.00    -0.276 A  
HETATM    7  C   UNL     1     -12.565  12.421  71.186  1.00  0.00    -0.349 A  
HETATM    8  C   UNL     1     -13.434  12.712  72.240  1.00  0.00    -0.541 A  
HETATM    9  C   UNL     1     -11.577  15.441  68.379  1.00  0.00    -0.368 A  
HETATM   10  C   UNL     1     -13.963  13.988  72.366  1.00  0.00    -0.622 A  
HETATM   11  C   UNL     1     -12.409  15.704  69.463  1.00  0.00    -0.141 A  
HETATM   12  C   UNL     1     -12.742  14.696  70.379  1.00  0.00    -0.370 A  
HETATM   13  C   UNL     1     -13.607  14.977  71.449  1.00  0.00    -0.538 A  
ENDBRANCH   3   4
ENDBRANCH   2   3
BRANCH   2  14
HETATM   14  C   UNL     1     -10.188  10.412  66.825  1.00  0.00    -0.226 C  
BRANCH  14  15
HETATM   15  C   UNL     1      -9.675   9.223  67.588  1.00  0.00    -0.195 C  
HETATM   16  C   UNL     1     -10.454   8.198  67.971  1.00  0.00    -0.242 C  
BRANCH  16  17
HETATM   17  C   UNL     1      -9.966   6.975  68.626  1.00  0.00    -0.156 A  
HETATM   18  C   UNL     1     -10.822   6.012  69.171  1.00  0.00    -0.422 A  
HETATM   19  C   UNL     1      -8.068   5.608  69.293  1.00  0.00    -0.096 A  
HETATM   20  C   UNL     1      -8.583   6.752  68.678  1.00  0.00    -0.122 A  
HETATM   21  C   UNL     1      -8.930   4.669  69.852  1.00  0.00    -0.144 A  
HETATM   22  C   UNL     1     -10.307   4.868  69.787  1.00  0.00    -0.203 A  
ENDBRANCH  16  17
ENDBRANCH  14  15
ENDBRANCH   2  14
TORSDOF 5
ENDMDL
MODEL      157
REMARK 921   NORMALIZED FREE ENERGY PREDICTED BY IDOCK:   -4.19 KCAL/MOL
REMARK 922        TOTAL FREE ENERGY PREDICTED BY IDOCK:   -6.73 KCAL/MOL
REMARK 923 INTER-LIGAND FREE ENERGY PREDICTED BY IDOCK:   -5.40 KCAL/MOL
REMARK 924 INTRA-LIGAND FREE ENERGY PREDICTED BY IDOCK:   -1.33 KCAL/MOL
REMARK 927      BINDING AFFINITY PREDICTED BY RF-SCORE:    0.00 PKD
ROOT
HETATM    1  C   UNL     1      -5.861   8.642  65.060  1.00  0.00    -0.048 C  
HETATM    2  N   UNL     1      -7.089   8.696  65.859  1.00  0.00    -0.075 NA 
ENDROOT
BRANCH   2   3
HETATM    3  C   UNL     1      -6.921   8.006  67.157  1.00  0.00    -0.075 C  
BRANCH   3   4
HETATM    4  C   UNL     1      -7.921   8.429  68.225  1.00  0.00    -0.119 A  
HETATM    5  C   UNL     1      -8.975   7.579  68.674  1.00  0.00    -0.132 A  
HETATM    6  C   UNL     1      -7.795   9.726  68.758  1.00  0.00    -0.082 A  
HETATM    7  C   UNL     1      -9.169   6.252  68.221  1.00  0.00    -0.111 A  
HETATM    8  C   UNL     1     -10.257   5.481  68.636  1.00  0.00    -0.261 A  
HETATM    9  C   UNL     1      -8.702  10.200  69.696  1.00  0.00    -0.176 A  
HETATM   10  C   UNL     1     -11.173   6.008  69.533  1.00  0.00    -0.416 A  
HETATM   11  C   UNL     1      -9.752   9.389  70.117  1.00  0.00    -0.274 A  
HETATM   12  C   UNL     1      -9.907   8.090  69.613  1.00  0.00    -0.184 A  
HETATM   13  C   UNL     1     -10.991   7.299  70.029  1.00  0.00    -0.273 A  
ENDBRANCH   3   4
ENDBRANCH   2   3
BRANCH   2  14
HETATM   14  C   UNL     1      -8.207   8.142  65.082  1.00  0.00    -0.154 C  
BRANCH  14  15
HETATM   15  C   UNL     1      -9.402   9.052  65.069  1.00  0.00    -0.025 C  
HETATM   16  C   UNL     1      -9.325  10.376  65.288  1.00  0.00    -0.263 C  
BRANCH  16  17
HETATM   17  C   UNL     1     -10.457  11.308  65.180  1.00  0.00    -0.351 A  
HETATM   18  C   UNL     1     -10.962  12.019  66.274  1.00  0.00    -0.340 A  
HETATM   19  C   UNL     1     -12.114  12.388  63.764  1.00  0.00    -0.618 A  
HETATM   20  C   UNL     1     -11.034  11.516  63.919  1.00  0.00    -0.474 A  
HETATM   21  C   UNL     1     -12.622  13.071  64.865  1.00  0.00    -0.490 A  
HETATM   22  C   UNL     1     -12.044  12.891  66.120  1.00  0.00    -0.458 A  
ENDBRANCH  16  17
ENDBRANCH  14  15
ENDBRANCH   2  14
TORSDOF 5
ENDMDL
MODEL      158
REMARK 921   NORMALIZED FREE ENERGY PREDICTED BY IDOCK:   -4.17 KCAL/MOL
REMARK 922        TOTAL FREE ENERGY PREDICTED BY IDOCK:   -6.70 KCAL/MOL
REMARK 923 INTER-LIGAND FREE ENERGY PREDICTED BY IDOCK:   -4.80 KCAL/MOL
REMARK 924 INTRA-LIGAND FREE ENERGY PREDICTED BY IDOCK:   -1.91 KCAL/MOL
REMARK 927      BINDING AFFINITY PREDICTED BY RF-SCORE:    0.00 PKD
ROOT
HETATM    1  C   UNL     1      -9.449   4.660  64.962  1.00  0.00    -0.121 C  
HETATM    2  N   UNL     1      -9.706   5.674  65.989  1.00  0.00    -0.102 NA 
ENDROOT
BRANCH   2   3
HETATM    3  C   UNL     1      -8.489   6.461  66.288  1.00  0.00    -0.131 C  
BRANCH   3   4
HETATM    4  C   UNL     1      -8.761   7.904  66.692  1.00  0.00    -0.154 A  
HETATM    5  C   UNL     1      -8.220   8.489  67.875  1.00  0.00    -0.119 A  
HETATM    6  C   UNL     1      -9.605   8.665  65.860  1.00  0.00    -0.210 A  
HETATM    7  C   UNL     1      -7.342   7.817  68.759  1.00  0.00    -0.087 A  
HETATM    8  C   UNL     1      -6.892   8.405  69.943  1.00  0.00    -0.043 A  
HETATM    9  C   UNL     1      -9.940   9.970  66.192  1.00  0.00    -0.322 A  
HETATM   10  C   UNL     1      -7.293   9.692  70.269  1.00  0.00    -0.153 A  
HETATM   11  C   UNL     1      -9.442  10.539  67.361  1.00  0.00    -0.172 A  
HETATM   12  C   UNL     1      -8.594   9.815  68.211  1.00  0.00    -0.119 A  
HETATM   13  C   UNL     1      -8.126  10.397  69.401  1.00  0.00    -0.161 A  
ENDBRANCH   3   4
ENDBRANCH   2   3
BRANCH   2  14
HETATM   14  C   UNL     1     -10.253   5.030  67.191  1.00  0.00    -0.186 C  
BRANCH  14  15
HETATM   15  C   UNL     1     -10.979   6.000  68.080  1.00  0.00    -0.340 C  
HETATM   16  C   UNL     1     -10.797   6.063  69.410  1.00  0.00    -0.433 C  
BRANCH  16  17
HETATM   17  C   UNL     1     -11.412   7.066  70.292  1.00  0.00    -0.333 A  
HETATM   18  C   UNL     1     -12.217   6.726  71.385  1.00  0.00    -0.413 A  
HETATM   19  C   UNL     1     -11.718   9.414  70.849  1.00  0.00    -0.378 A  
HETATM   20  C   UNL     1     -11.155   8.422  70.043  1.00  0.00    -0.148 A  
HETATM   21  C   UNL     1     -12.536   9.062  71.919  1.00  0.00    -0.454 A  
HETATM   22  C   UNL     1     -12.781   7.718  72.191  1.00  0.00    -0.220 A  
ENDBRANCH  16  17
ENDBRANCH  14  15
ENDBRANCH   2  14
TORSDOF 5
ENDMDL
MODEL      159
REMARK 921   NORMALIZED FREE ENERGY PREDICTED BY IDOCK:   -4.14 KCAL/MOL
REMARK 922        TOTAL FREE ENERGY PREDICTED BY IDOCK:   -6.66 KCAL/MOL
REMARK 923 INTER-LIGAND FREE ENERGY PREDICTED BY IDOCK:   -5.90 KCAL/MOL
REMARK 924 INTRA-LIGAND FREE ENERGY PREDICTED BY IDOCK:   -0.76 KCAL/MOL
REMARK 927      BINDING AFFINITY PREDICTED BY RF-SCORE:    0.00 PKD
ROOT
HETATM    1  C   UNL     1      -9.493  11.302  63.312  1.00  0.00    -0.327 C  
HETATM    2  N   UNL     1      -9.972  11.197  64.693  1.00  0.00    -0.269 NA 
ENDROOT
BRANCH   2   3
HETATM    3  C   UNL     1      -9.924   9.800  65.178  1.00  0.00    -0.127 C  
BRANCH   3   4
HETATM    4  C   UNL     1      -9.625   9.664  66.665  1.00  0.00    -0.241 A  
HETATM    5  C   UNL     1     -10.010   8.522  67.428  1.00  0.00    -0.275 A  
HETATM    6  C   UNL     1      -8.961  10.733  67.296  1.00  0.00    -0.143 A  
HETATM    7  C   UNL     1     -10.655   7.387  66.881  1.00  0.00    -0.375 A  
HETATM    8  C   UNL     1     -11.077   6.321  67.679  1.00  0.00    -0.368 A  
HETATM    9  C   UNL     1      -8.701  10.703  68.659  1.00  0.00    -0.148 A  
HETATM   10  C   UNL     1     -10.849   6.351  69.047  1.00  0.00    -0.385 A  
HETATM   11  C   UNL     1      -9.101   9.607  69.418  1.00  0.00    -0.194 A  
HETATM   12  C   UNL     1      -9.759   8.521  68.823  1.00  0.00    -0.168 A  
HETATM   13  C   UNL     1     -10.181   7.437  69.612  1.00  0.00    -0.210 A  
ENDBRANCH   3   4
ENDBRANCH   2   3
BRANCH   2  14
HETATM   14  C   UNL     1     -11.323  11.767  64.790  1.00  0.00    -0.249 C  
BRANCH  14  15
HETATM   15  C   UNL     1     -11.318  13.158  65.359  1.00  0.00    -0.323 C  
HETATM   16  C   UNL     1     -10.412  13.588  66.253  1.00  0.00    -0.290 C  
BRANCH  16  17
HETATM   17  C   UNL     1     -10.317  14.968  66.750  1.00  0.00    -0.270 A  
HETATM   18  C   UNL     1     -11.190  15.493  67.710  1.00  0.00    -0.302 A  
HETATM   19  C   UNL     1      -9.155  17.105  66.698  1.00  0.00    -0.280 A  
HETATM   20  C   UNL     1      -9.287  15.785  66.261  1.00  0.00    -0.360 A  
HETATM   21  C   UNL     1     -10.044  17.621  67.635  1.00  0.00    -0.339 A  
HETATM   22  C   UNL     1     -11.059  16.814  68.145  1.00  0.00    -0.254 A  
ENDBRANCH  16  17
ENDBRANCH  14  15
ENDBRANCH   2  14
TORSDOF 5
ENDMDL
MODEL      160
REMARK 921   NORMALIZED FREE ENERGY PREDICTED BY IDOCK:   -4.14 KCAL/MOL
REMARK 922        TOTAL FREE ENERGY PREDICTED BY IDOCK:   -6.66 KCAL/MOL
REMARK 923 INTER-LIGAND FREE ENERGY PREDICTED BY IDOCK:   -5.01 KCAL/MOL
REMARK 924 INTRA-LIGAND FREE ENERGY PREDICTED BY IDOCK:   -1.65 KCAL/MOL
REMARK 927      BINDING AFFINITY PREDICTED BY RF-SCORE:    0.00 PKD
ROOT
HETATM    1  C   UNL     1     -12.863   8.488  72.420  1.00  0.00    -0.321 C  
HETATM    2  N   UNL     1     -11.877   8.350  71.345  1.00  0.00    -0.287 NA 
ENDROOT
BRANCH   2   3
HETATM    3  C   UNL     1     -11.079   7.113  71.497  1.00  0.00    -0.239 C  
BRANCH   3   4
HETATM    4  C   UNL     1     -10.444   6.615  70.206  1.00  0.00    -0.247 A  
HETATM    5  C   UNL     1      -9.055   6.311  70.096  1.00  0.00    -0.155 A  
HETATM    6  C   UNL     1     -11.279   6.479  69.080  1.00  0.00    -0.367 A  
HETATM    7  C   UNL     1      -8.141   6.389  71.174  1.00  0.00    -0.117 A  
HETATM    8  C   UNL     1      -6.776   6.152  71.005  1.00  0.00    -0.061 A  
HETATM    9  C   UNL     1     -10.761   6.080  67.855  1.00  0.00    -0.363 A  
HETATM   10  C   UNL     1      -6.286   5.809  69.753  1.00  0.00    -0.026 A  
HETATM   11  C   UNL     1      -9.400   5.813  67.731  1.00  0.00    -0.105 A  
HETATM   12  C   UNL     1      -8.539   5.931  68.831  1.00  0.00    -0.110 A  
HETATM   13  C   UNL     1      -7.165   5.685  68.678  1.00  0.00    -0.078 A  
ENDBRANCH   3   4
ENDBRANCH   2   3
BRANCH   2  14
HETATM   14  C   UNL     1     -11.028   9.548  71.297  1.00  0.00    -0.370 C  
BRANCH  14  15
HETATM   15  C   UNL     1     -10.936  10.130  69.915  1.00  0.00    -0.344 C  
HETATM   16  C   UNL     1      -9.921   9.877  69.073  1.00  0.00    -0.193 C  
BRANCH  16  17
HETATM   17  C   UNL     1      -9.851  10.346  67.681  1.00  0.00    -0.197 A  
HETATM   18  C   UNL     1      -9.970   9.487  66.582  1.00  0.00    -0.314 A  
HETATM   19  C   UNL     1      -9.613  12.215  66.142  1.00  0.00    -0.250 A  
HETATM   20  C   UNL     1      -9.689  11.719  67.446  1.00  0.00    -0.186 A  
HETATM   21  C   UNL     1      -9.709  11.347  65.059  1.00  0.00    -0.286 A  
HETATM   22  C   UNL     1      -9.893   9.983  65.278  1.00  0.00    -0.388 A  
ENDBRANCH  16  17
ENDBRANCH  14  15
ENDBRANCH   2  14
TORSDOF 5
ENDMDL
MODEL      161
REMARK 921   NORMALIZED FREE ENERGY PREDICTED BY IDOCK:   -4.14 KCAL/MOL
REMARK 922        TOTAL FREE ENERGY PREDICTED BY IDOCK:   -6.65 KCAL/MOL
REMARK 923 INTER-LIGAND FREE ENERGY PREDICTED BY IDOCK:   -4.81 KCAL/MOL
REMARK 924 INTRA-LIGAND FREE ENERGY PREDICTED BY IDOCK:   -1.84 KCAL/MOL
REMARK 927      BINDING AFFINITY PREDICTED BY RF-SCORE:    0.00 PKD
ROOT
HETATM    1  C   UNL     1      -6.070  10.708  70.076  1.00  0.00    -0.099 C  
HETATM    2  N   UNL     1      -6.922  11.358  69.076  1.00  0.00    -0.098 NA 
ENDROOT
BRANCH   2   3
HETATM    3  C   UNL     1      -7.823  10.386  68.419  1.00  0.00    -0.104 C  
BRANCH   3   4
HETATM    4  C   UNL     1      -9.255  10.877  68.245  1.00  0.00    -0.161 A  
HETATM    5  C   UNL     1      -9.809  11.203  66.972  1.00  0.00    -0.212 A  
HETATM    6  C   UNL     1     -10.035  11.031  69.407  1.00  0.00    -0.019 A  
HETATM    7  C   UNL     1      -9.116  11.056  65.747  1.00  0.00    -0.219 A  
HETATM    8  C   UNL     1      -9.673  11.455  64.530  1.00  0.00    -0.268 A  
HETATM    9  C   UNL     1     -11.330  11.525  69.332  1.00  0.00    -0.355 A  
HETATM   10  C   UNL     1     -10.951  11.995  64.501  1.00  0.00    -0.369 A  
HETATM   11  C   UNL     1     -11.869  11.876  68.097  1.00  0.00    -0.338 A  
HETATM   12  C   UNL     1     -11.124  11.730  66.918  1.00  0.00    -0.361 A  
HETATM   13  C   UNL     1     -11.676  12.118  65.686  1.00  0.00    -0.385 A  
ENDBRANCH   3   4
ENDBRANCH   2   3
BRANCH   2  14
HETATM   14  C   UNL     1      -6.083  12.073  68.104  1.00  0.00    -0.053 C  
BRANCH  14  15
HETATM   15  C   UNL     1      -6.836  13.160  67.389  1.00  0.00    -0.113 C  
HETATM   16  C   UNL     1      -7.758  13.935  67.984  1.00  0.00    -0.151 C  
BRANCH  16  17
HETATM   17  C   UNL     1      -8.436  15.071  67.342  1.00  0.00    -0.202 A  
HETATM   18  C   UNL     1      -9.714  14.976  66.781  1.00  0.00    -0.253 A  
HETATM   19  C   UNL     1      -8.381  17.422  66.717  1.00  0.00    -0.276 A  
HETATM   20  C   UNL     1      -7.783  16.312  67.319  1.00  0.00    -0.210 A  
HETATM   21  C   UNL     1      -9.643  17.307  66.143  1.00  0.00    -0.224 A  
HETATM   22  C   UNL     1     -10.313  16.085  66.179  1.00  0.00    -0.340 A  
ENDBRANCH  16  17
ENDBRANCH  14  15
ENDBRANCH   2  14
TORSDOF 5
ENDMDL
MODEL      162
REMARK 921   NORMALIZED FREE ENERGY PREDICTED BY IDOCK:   -4.12 KCAL/MOL
REMARK 922        TOTAL FREE ENERGY PREDICTED BY IDOCK:   -6.63 KCAL/MOL
REMARK 923 INTER-LIGAND FREE ENERGY PREDICTED BY IDOCK:   -5.87 KCAL/MOL
REMARK 924 INTRA-LIGAND FREE ENERGY PREDICTED BY IDOCK:   -0.76 KCAL/MOL
REMARK 927      BINDING AFFINITY PREDICTED BY RF-SCORE:    0.00 PKD
ROOT
HETATM    1  C   UNL     1     -13.501   8.761  71.848  1.00  0.00    -0.404 C  
HETATM    2  N   UNL     1     -12.345   9.113  71.019  1.00  0.00    -0.259 NA 
ENDROOT
BRANCH   2   3
HETATM    3  C   UNL     1     -11.215   8.186  71.245  1.00  0.00    -0.260 C  
BRANCH   3   4
HETATM    4  C   UNL     1     -10.696   7.511  69.982  1.00  0.00    -0.248 A  
HETATM    5  C   UNL     1     -10.041   6.244  69.998  1.00  0.00    -0.217 A  
HETATM    6  C   UNL     1     -10.860   8.197  68.764  1.00  0.00     0.025 A  
HETATM    7  C   UNL     1      -9.853   5.466  71.165  1.00  0.00    -0.243 A  
HETATM    8  C   UNL     1      -9.142   4.263  71.145  1.00  0.00    -0.183 A  
HETATM    9  C   UNL     1     -10.366   7.668  67.579  1.00  0.00    -0.326 A  
HETATM   10  C   UNL     1      -8.615   3.794  69.951  1.00  0.00    -0.103 A  
HETATM   11  C   UNL     1      -9.697   6.447  67.590  1.00  0.00    -0.130 A  
HETATM   12  C   UNL     1      -9.520   5.733  68.782  1.00  0.00    -0.147 A  
HETATM   13  C   UNL     1      -8.816   4.517  68.776  1.00  0.00    -0.132 A  
ENDBRANCH   3   4
ENDBRANCH   2   3
BRANCH   2  14
HETATM   14  C   UNL     1     -11.967  10.511  71.268  1.00  0.00    -0.289 C  
BRANCH  14  15
HETATM   15  C   UNL     1     -12.182  11.385  70.064  1.00  0.00    -0.377 C  
HETATM   16  C   UNL     1     -11.344  11.416  69.014  1.00  0.00    -0.345 C  
BRANCH  16  17
HETATM   17  C   UNL     1     -11.578  12.180  67.780  1.00  0.00    -0.410 A  
HETATM   18  C   UNL     1     -11.911  13.539  67.778  1.00  0.00    -0.398 A  
HETATM   19  C   UNL     1     -11.647  12.202  65.348  1.00  0.00    -0.383 A  
HETATM   20  C   UNL     1     -11.432  11.523  66.550  1.00  0.00    -0.178 A  
HETATM   21  C   UNL     1     -12.000  13.548  65.362  1.00  0.00    -0.406 A  
HETATM   22  C   UNL     1     -12.127  14.219  66.577  1.00  0.00    -0.454 A  
ENDBRANCH  16  17
ENDBRANCH  14  15
ENDBRANCH   2  14
TORSDOF 5
ENDMDL
MODEL      163
REMARK 921   NORMALIZED FREE ENERGY PREDICTED BY IDOCK:   -4.09 KCAL/MOL
REMARK 922        TOTAL FREE ENERGY PREDICTED BY IDOCK:   -6.59 KCAL/MOL
REMARK 923 INTER-LIGAND FREE ENERGY PREDICTED BY IDOCK:   -6.04 KCAL/MOL
REMARK 924 INTRA-LIGAND FREE ENERGY PREDICTED BY IDOCK:   -0.55 KCAL/MOL
REMARK 927      BINDING AFFINITY PREDICTED BY RF-SCORE:    0.00 PKD
ROOT
HETATM    1  C   UNL     1      -8.529   7.981  72.530  1.00  0.00    -0.162 C  
HETATM    2  N   UNL     1      -9.781   7.231  72.388  1.00  0.00    -0.152 NA 
ENDROOT
BRANCH   2   3
HETATM    3  C   UNL     1      -9.793   6.428  71.146  1.00  0.00    -0.179 C  
BRANCH   3   4
HETATM    4  C   UNL     1      -9.707   4.924  71.372  1.00  0.00    -0.237 A  
HETATM    5  C   UNL     1      -9.541   3.992  70.306  1.00  0.00    -0.271 A  
HETATM    6  C   UNL     1      -9.824   4.458  72.695  1.00  0.00    -0.205 A  
HETATM    7  C   UNL     1      -9.386   4.362  68.948  1.00  0.00    -0.216 A  
HETATM    8  C   UNL     1      -9.297   3.412  67.928  1.00  0.00    -0.242 A  
HETATM    9  C   UNL     1      -9.808   3.097  72.973  1.00  0.00    -0.184 A  
HETATM   10  C   UNL     1      -9.340   2.061  68.239  1.00  0.00    -0.251 A  
HETATM   11  C   UNL     1      -9.678   2.179  71.935  1.00  0.00    -0.210 A  
HETATM   12  C   UNL     1      -9.553   2.606  70.606  1.00  0.00    -0.167 A  
HETATM   13  C   UNL     1      -9.452   1.662  69.570  1.00  0.00    -0.126 A  
ENDBRANCH   3   4
ENDBRANCH   2   3
BRANCH   2  14
HETATM   14  C   UNL     1     -10.920   8.157  72.454  1.00  0.00    -0.345 C  
BRANCH  14  15
HETATM   15  C   UNL     1     -10.805   9.278  71.460  1.00  0.00    -0.442 C  
HETATM   16  C   UNL     1     -11.843   9.736  70.740  1.00  0.00    -0.400 C  
BRANCH  16  17
HETATM   17  C   UNL     1     -11.787  10.896  69.837  1.00  0.00    -0.427 A  
HETATM   18  C   UNL     1     -11.912  12.215  70.286  1.00  0.00    -0.389 A  
HETATM   19  C   UNL     1     -11.513  11.736  67.570  1.00  0.00    -0.373 A  
HETATM   20  C   UNL     1     -11.570  10.669  68.471  1.00  0.00    -0.279 A  
HETATM   21  C   UNL     1     -11.662  13.041  68.028  1.00  0.00    -0.397 A  
HETATM   22  C   UNL     1     -11.856  13.282  69.386  1.00  0.00    -0.386 A  
ENDBRANCH  16  17
ENDBRANCH  14  15
ENDBRANCH   2  14
TORSDOF 5
ENDMDL
MODEL      164
REMARK 921   NORMALIZED FREE ENERGY PREDICTED BY IDOCK:   -4.07 KCAL/MOL
REMARK 922        TOTAL FREE ENERGY PREDICTED BY IDOCK:   -6.57 KCAL/MOL
REMARK 923 INTER-LIGAND FREE ENERGY PREDICTED BY IDOCK:   -5.77 KCAL/MOL
REMARK 924 INTRA-LIGAND FREE ENERGY PREDICTED BY IDOCK:   -0.80 KCAL/MOL
REMARK 927      BINDING AFFINITY PREDICTED BY RF-SCORE:    0.00 PKD
ROOT
HETATM    1  C   UNL     1      -9.032  10.052  66.012  1.00  0.00    -0.148 C  
HETATM    2  N   UNL     1      -9.215  10.617  67.352  1.00  0.00    -0.143 NA 
ENDROOT
BRANCH   2   3
HETATM    3  C   UNL     1      -8.626  11.970  67.455  1.00  0.00    -0.171 C  
BRANCH   3   4
HETATM    4  C   UNL     1      -9.645  13.101  67.410  1.00  0.00    -0.219 A  
HETATM    5  C   UNL     1      -9.277  14.463  67.201  1.00  0.00    -0.230 A  
HETATM    6  C   UNL     1     -10.998  12.766  67.609  1.00  0.00    -0.274 A  
HETATM    7  C   UNL     1      -7.950  14.896  66.963  1.00  0.00    -0.170 A  
HETATM    8  C   UNL     1      -7.626  16.248  66.835  1.00  0.00    -0.279 A  
HETATM    9  C   UNL     1     -11.977  13.751  67.634  1.00  0.00    -0.392 A  
HETATM   10  C   UNL     1      -8.624  17.208  66.920  1.00  0.00    -0.256 A  
HETATM   11  C   UNL     1     -11.623  15.086  67.463  1.00  0.00    -0.315 A  
HETATM   12  C   UNL     1     -10.287  15.457  67.255  1.00  0.00    -0.271 A  
HETATM   13  C   UNL     1      -9.947  16.813  67.114  1.00  0.00    -0.274 A  
ENDBRANCH   3   4
ENDBRANCH   2   3
BRANCH   2  14
HETATM   14  C   UNL     1      -8.659   9.697  68.355  1.00  0.00    -0.119 C  
BRANCH  14  15
HETATM   15  C   UNL     1      -9.720   9.108  69.241  1.00  0.00    -0.164 C  
HETATM   16  C   UNL     1     -10.392   9.819  70.162  1.00  0.00    -0.335 C  
BRANCH  16  17
HETATM   17  C   UNL     1     -11.504   9.299  70.972  1.00  0.00    -0.387 A  
HETATM   18  C   UNL     1     -11.601   7.957  71.358  1.00  0.00    -0.304 A  
HETATM   19  C   UNL     1     -13.573   9.751  72.169  1.00  0.00    -0.432 A  
HETATM   20  C   UNL     1     -12.494  10.195  71.401  1.00  0.00    -0.524 A  
HETATM   21  C   UNL     1     -13.669   8.409  72.526  1.00  0.00    -0.194 A  
HETATM   22  C   UNL     1     -12.681   7.513  72.125  1.00  0.00    -0.163 A  
ENDBRANCH  16  17
ENDBRANCH  14  15
ENDBRANCH   2  14
TORSDOF 5
ENDMDL
MODEL      165
REMARK 921   NORMALIZED FREE ENERGY PREDICTED BY IDOCK:   -4.06 KCAL/MOL
REMARK 922        TOTAL FREE ENERGY PREDICTED BY IDOCK:   -6.56 KCAL/MOL
REMARK 923 INTER-LIGAND FREE ENERGY PREDICTED BY IDOCK:   -6.14 KCAL/MOL
REMARK 924 INTRA-LIGAND FREE ENERGY PREDICTED BY IDOCK:   -0.41 KCAL/MOL
REMARK 927      BINDING AFFINITY PREDICTED BY RF-SCORE:    0.00 PKD
ROOT
HETATM    1  C   UNL     1      -8.912   7.640  65.971  1.00  0.00    -0.139 C  
HETATM    2  N   UNL     1      -8.417   7.945  67.317  1.00  0.00    -0.121 NA 
ENDROOT
BRANCH   2   3
HETATM    3  C   UNL     1      -8.661   6.822  68.249  1.00  0.00    -0.123 C  
BRANCH   3   4
HETATM    4  C   UNL     1      -8.690   7.224  69.718  1.00  0.00    -0.142 A  
HETATM    5  C   UNL     1      -9.893   7.260  70.484  1.00  0.00    -0.183 A  
HETATM    6  C   UNL     1      -7.470   7.594  70.316  1.00  0.00    -0.083 A  
HETATM    7  C   UNL     1     -11.161   6.881  69.984  1.00  0.00    -0.347 A  
HETATM    8  C   UNL     1     -12.323   7.000  70.749  1.00  0.00    -0.307 A  
HETATM    9  C   UNL     1      -7.427   8.023  71.636  1.00  0.00    -0.082 A  
HETATM   10  C   UNL     1     -12.248   7.484  72.046  1.00  0.00    -0.314 A  
HETATM   11  C   UNL     1      -8.601   8.091  72.382  1.00  0.00    -0.220 A  
HETATM   12  C   UNL     1      -9.833   7.725  71.823  1.00  0.00    -0.210 A  
HETATM   13  C   UNL     1     -11.009   7.830  72.584  1.00  0.00    -0.422 A  
ENDBRANCH   3   4
ENDBRANCH   2   3
BRANCH   2  14
HETATM   14  C   UNL     1      -9.022   9.196  67.793  1.00  0.00    -0.127 C  
BRANCH  14  15
HETATM   15  C   UNL     1      -9.633   9.997  66.677  1.00  0.00    -0.234 C  
HETATM   16  C   UNL     1     -10.589  10.922  66.868  1.00  0.00    -0.312 C  
BRANCH  16  17
HETATM   17  C   UNL     1     -11.132  11.793  65.816  1.00  0.00    -0.351 A  
HETATM   18  C   UNL     1     -10.889  11.582  64.454  1.00  0.00    -0.405 A  
HETATM   19  C   UNL     1     -12.494  13.723  65.233  1.00  0.00    -0.512 A  
HETATM   20  C   UNL     1     -11.955  12.863  66.194  1.00  0.00    -0.491 A  
HETATM   21  C   UNL     1     -12.225  13.516  63.884  1.00  0.00    -0.458 A  
HETATM   22  C   UNL     1     -11.427  12.443  63.493  1.00  0.00    -0.561 A  
ENDBRANCH  16  17
ENDBRANCH  14  15
ENDBRANCH   2  14
TORSDOF 5
ENDMDL
MODEL      166
REMARK 921   NORMALIZED FREE ENERGY PREDICTED BY IDOCK:   -4.04 KCAL/MOL
REMARK 922        TOTAL FREE ENERGY PREDICTED BY IDOCK:   -6.53 KCAL/MOL
REMARK 923 INTER-LIGAND FREE ENERGY PREDICTED BY IDOCK:   -5.49 KCAL/MOL
REMARK 924 INTRA-LIGAND FREE ENERGY PREDICTED BY IDOCK:   -1.04 KCAL/MOL
REMARK 927      BINDING AFFINITY PREDICTED BY RF-SCORE:    0.00 PKD
ROOT
HETATM    1  C   UNL     1      -8.628   7.794  66.258  1.00  0.00    -0.150 C  
HETATM    2  N   UNL     1      -8.535   7.355  67.654  1.00  0.00    -0.120 NA 
ENDROOT
BRANCH   2   3
HETATM    3  C   UNL     1      -9.771   6.666  68.087  1.00  0.00    -0.130 C  
BRANCH   3   4
HETATM    4  C   UNL     1      -9.532   5.450  68.974  1.00  0.00    -0.176 A  
HETATM    5  C   UNL     1     -10.101   5.320  70.275  1.00  0.00    -0.329 A  
HETATM    6  C   UNL     1      -8.690   4.438  68.476  1.00  0.00    -0.117 A  
HETATM    7  C   UNL     1     -10.980   6.269  70.851  1.00  0.00    -0.344 A  
HETATM    8  C   UNL     1     -11.458   6.135  72.157  1.00  0.00    -0.361 A  
HETATM    9  C   UNL     1      -8.384   3.325  69.248  1.00  0.00    -0.086 A  
HETATM   10  C   UNL     1     -11.086   5.037  72.918  1.00  0.00    -0.348 A  
HETATM   11  C   UNL     1      -8.910   3.205  70.531  1.00  0.00    -0.148 A  
HETATM   12  C   UNL     1      -9.757   4.190  71.058  1.00  0.00    -0.260 A  
HETATM   13  C   UNL     1     -10.253   4.064  72.366  1.00  0.00    -0.232 A  
ENDBRANCH   3   4
ENDBRANCH   2   3
BRANCH   2  14
HETATM   14  C   UNL     1      -8.217   8.504  68.512  1.00  0.00    -0.123 C  
BRANCH  14  15
HETATM   15  C   UNL     1      -9.441   9.285  68.900  1.00  0.00    -0.154 C  
HETATM   16  C   UNL     1      -9.926   9.327  70.152  1.00  0.00    -0.251 C  
BRANCH  16  17
HETATM   17  C   UNL     1     -11.057  10.161  70.584  1.00  0.00    -0.397 A  
HETATM   18  C   UNL     1     -11.967   9.758  71.568  1.00  0.00    -0.488 A  
HETATM   19  C   UNL     1     -12.273  12.258  70.377  1.00  0.00    -0.371 A  
HETATM   20  C   UNL     1     -11.212  11.428  70.004  1.00  0.00    -0.160 A  
HETATM   21  C   UNL     1     -13.183  11.835  71.340  1.00  0.00    -0.193 A  
HETATM   22  C   UNL     1     -13.028  10.587  71.940  1.00  0.00    -0.553 A  
ENDBRANCH  16  17
ENDBRANCH  14  15
ENDBRANCH   2  14
TORSDOF 5
ENDMDL
MODEL      167
REMARK 921   NORMALIZED FREE ENERGY PREDICTED BY IDOCK:   -4.04 KCAL/MOL
REMARK 922        TOTAL FREE ENERGY PREDICTED BY IDOCK:   -6.53 KCAL/MOL
REMARK 923 INTER-LIGAND FREE ENERGY PREDICTED BY IDOCK:   -6.73 KCAL/MOL
REMARK 924 INTRA-LIGAND FREE ENERGY PREDICTED BY IDOCK:    0.21 KCAL/MOL
REMARK 927      BINDING AFFINITY PREDICTED BY RF-SCORE:    0.00 PKD
ROOT
HETATM    1  C   UNL     1      -9.573  14.729  67.534  1.00  0.00    -0.208 C  
HETATM    2  N   UNL     1     -10.798  15.090  68.255  1.00  0.00    -0.252 NA 
ENDROOT
BRANCH   2   3
HETATM    3  C   UNL     1     -11.868  14.091  68.038  1.00  0.00    -0.368 C  
BRANCH   3   4
HETATM    4  C   UNL     1     -11.798  12.887  68.968  1.00  0.00    -0.352 A  
HETATM    5  C   UNL     1     -11.257  11.631  68.565  1.00  0.00    -0.312 A  
HETATM    6  C   UNL     1     -12.318  13.038  70.268  1.00  0.00    -0.311 A  
HETATM    7  C   UNL     1     -10.686  11.388  67.293  1.00  0.00    -0.283 A  
HETATM    8  C   UNL     1     -10.232  10.122  66.916  1.00  0.00    -0.295 A  
HETATM    9  C   UNL     1     -12.337  11.970  71.154  1.00  0.00    -0.282 A  
HETATM   10  C   UNL     1     -10.318   9.065  67.810  1.00  0.00    -0.304 A  
HETATM   11  C   UNL     1     -11.840  10.731  70.758  1.00  0.00    -0.443 A  
HETATM   12  C   UNL     1     -11.308  10.545  69.475  1.00  0.00    -0.341 A  
HETATM   13  C   UNL     1     -10.839   9.279  69.085  1.00  0.00    -0.154 A  
ENDBRANCH   3   4
ENDBRANCH   2   3
BRANCH   2  14
HETATM   14  C   UNL     1     -11.220  16.442  67.864  1.00  0.00    -0.184 C  
BRANCH  14  15
HETATM   15  C   UNL     1     -10.204  17.487  68.227  1.00  0.00    -0.365 C  
HETATM   16  C   UNL     1      -9.027  17.625  67.595  1.00  0.00    -0.240 C  
BRANCH  16  17
HETATM   17  C   UNL     1      -8.057  18.699  67.856  1.00  0.00    -0.283 A  
HETATM   18  C   UNL     1      -7.979  19.859  67.079  1.00  0.00    -0.336 A  
HETATM   19  C   UNL     1      -6.250  19.555  69.242  1.00  0.00    -0.328 A  
HETATM   20  C   UNL     1      -7.192  18.565  68.952  1.00  0.00    -0.301 A  
HETATM   21  C   UNL     1      -6.168  20.694  68.446  1.00  0.00    -0.365 A  
HETATM   22  C   UNL     1      -7.036  20.849  67.367  1.00  0.00    -0.426 A  
ENDBRANCH  16  17
ENDBRANCH  14  15
ENDBRANCH   2  14
TORSDOF 5
ENDMDL
MODEL      168
REMARK 921   NORMALIZED FREE ENERGY PREDICTED BY IDOCK:   -3.99 KCAL/MOL
REMARK 922        TOTAL FREE ENERGY PREDICTED BY IDOCK:   -6.46 KCAL/MOL
REMARK 923 INTER-LIGAND FREE ENERGY PREDICTED BY IDOCK:   -5.67 KCAL/MOL
REMARK 924 INTRA-LIGAND FREE ENERGY PREDICTED BY IDOCK:   -0.78 KCAL/MOL
REMARK 927      BINDING AFFINITY PREDICTED BY RF-SCORE:    0.00 PKD
ROOT
HETATM    1  C   UNL     1      -7.035  11.677  68.364  1.00  0.00    -0.079 C  
HETATM    2  N   UNL     1      -7.894  11.288  67.241  1.00  0.00    -0.134 NA 
ENDROOT
BRANCH   2   3
HETATM    3  C   UNL     1      -9.254  10.928  67.700  1.00  0.00    -0.152 C  
BRANCH   3   4
HETATM    4  C   UNL     1     -10.325  11.950  67.344  1.00  0.00    -0.228 A  
HETATM    5  C   UNL     1     -10.851  12.090  66.026  1.00  0.00    -0.329 A  
HETATM    6  C   UNL     1     -10.782  12.798  68.372  1.00  0.00    -0.269 A  
HETATM    7  C   UNL     1     -10.478  11.269  64.935  1.00  0.00    -0.375 A  
HETATM    8  C   UNL     1     -10.966  11.487  63.645  1.00  0.00    -0.482 A  
HETATM    9  C   UNL     1     -11.719  13.789  68.111  1.00  0.00    -0.392 A  
HETATM   10  C   UNL     1     -11.860  12.522  63.412  1.00  0.00    -0.587 A  
HETATM   11  C   UNL     1     -12.214  13.953  66.820  1.00  0.00    -0.438 A  
HETATM   12  C   UNL     1     -11.788  13.124  65.773  1.00  0.00    -0.442 A  
HETATM   13  C   UNL     1     -12.278  13.325  64.472  1.00  0.00    -0.456 A  
ENDBRANCH   3   4
ENDBRANCH   2   3
BRANCH   2  14
HETATM   14  C   UNL     1      -7.259  10.196  66.491  1.00  0.00    -0.104 C  
BRANCH  14  15
HETATM   15  C   UNL     1      -8.072   8.933  66.522  1.00  0.00    -0.107 C  
HETATM   16  C   UNL     1      -7.546   7.710  66.341  1.00  0.00    -0.088 C  
BRANCH  16  17
HETATM   17  C   UNL     1      -8.293   6.450  66.467  1.00  0.00    -0.115 A  
HETATM   18  C   UNL     1      -9.689   6.384  66.394  1.00  0.00    -0.140 A  
HETATM   19  C   UNL     1      -8.234   4.037  66.767  1.00  0.00    -0.100 A  
HETATM   20  C   UNL     1      -7.571   5.260  66.638  1.00  0.00    -0.088 A  
HETATM   21  C   UNL     1      -9.623   3.988  66.717  1.00  0.00    -0.234 A  
HETATM   22  C   UNL     1     -10.351   5.160  66.525  1.00  0.00    -0.336 A  
ENDBRANCH  16  17
ENDBRANCH  14  15
ENDBRANCH   2  14
TORSDOF 5
ENDMDL
MODEL      169
REMARK 921   NORMALIZED FREE ENERGY PREDICTED BY IDOCK:   -3.98 KCAL/MOL
REMARK 922        TOTAL FREE ENERGY PREDICTED BY IDOCK:   -6.46 KCAL/MOL
REMARK 923 INTER-LIGAND FREE ENERGY PREDICTED BY IDOCK:   -5.97 KCAL/MOL
REMARK 924 INTRA-LIGAND FREE ENERGY PREDICTED BY IDOCK:   -0.49 KCAL/MOL
REMARK 927      BINDING AFFINITY PREDICTED BY RF-SCORE:    0.00 PKD
ROOT
HETATM    1  C   UNL     1     -10.482   8.918  67.166  1.00  0.00    -0.274 C  
HETATM    2  N   UNL     1      -9.822  10.124  67.676  1.00  0.00    -0.167 NA 
ENDROOT
BRANCH   2   3
HETATM    3  C   UNL     1      -9.433  11.034  66.576  1.00  0.00    -0.187 C  
BRANCH   3   4
HETATM    4  C   UNL     1     -10.461  12.114  66.265  1.00  0.00    -0.270 A  
HETATM    5  C   UNL     1     -10.566  13.320  67.020  1.00  0.00    -0.259 A  
HETATM    6  C   UNL     1     -11.349  11.879  65.198  1.00  0.00    -0.328 A  
HETATM    7  C   UNL     1      -9.704  13.659  68.090  1.00  0.00    -0.229 A  
HETATM    8  C   UNL     1      -9.889  14.818  68.848  1.00  0.00    -0.222 A  
HETATM    9  C   UNL     1     -12.346  12.795  64.889  1.00  0.00    -0.551 A  
HETATM   10  C   UNL     1     -10.930  15.682  68.544  1.00  0.00    -0.303 A  
HETATM   11  C   UNL     1     -12.476  13.959  65.641  1.00  0.00    -0.538 A  
HETATM   12  C   UNL     1     -11.606  14.230  66.706  1.00  0.00    -0.407 A  
HETATM   13  C   UNL     1     -11.774  15.397  67.471  1.00  0.00    -0.076 A  
ENDBRANCH   3   4
ENDBRANCH   2   3
BRANCH   2  14
HETATM   14  C   UNL     1      -8.671   9.742  68.506  1.00  0.00    -0.120 C  
BRANCH  14  15
HETATM   15  C   UNL     1      -8.987   8.602  69.433  1.00  0.00    -0.145 C  
HETATM   16  C   UNL     1      -9.375   8.771  70.708  1.00  0.00    -0.253 C  
BRANCH  16  17
HETATM   17  C   UNL     1      -9.790   7.684  71.607  1.00  0.00    -0.193 A  
HETATM   18  C   UNL     1      -9.761   6.336  71.234  1.00  0.00    -0.193 A  
HETATM   19  C   UNL     1     -10.613   7.019  73.798  1.00  0.00    -0.325 A  
HETATM   20  C   UNL     1     -10.205   8.014  72.906  1.00  0.00    -0.384 A  
HETATM   21  C   UNL     1     -10.601   5.684  73.406  1.00  0.00    -0.288 A  
HETATM   22  C   UNL     1     -10.170   5.341  72.126  1.00  0.00    -0.252 A  
ENDBRANCH  16  17
ENDBRANCH  14  15
ENDBRANCH   2  14
TORSDOF 5
ENDMDL
MODEL      170
REMARK 921   NORMALIZED FREE ENERGY PREDICTED BY IDOCK:   -3.96 KCAL/MOL
REMARK 922        TOTAL FREE ENERGY PREDICTED BY IDOCK:   -6.42 KCAL/MOL
REMARK 923 INTER-LIGAND FREE ENERGY PREDICTED BY IDOCK:   -6.29 KCAL/MOL
REMARK 924 INTRA-LIGAND FREE ENERGY PREDICTED BY IDOCK:   -0.14 KCAL/MOL
REMARK 927      BINDING AFFINITY PREDICTED BY RF-SCORE:    0.00 PKD
ROOT
HETATM    1  C   UNL     1     -10.356   8.298  72.826  1.00  0.00    -0.260 C  
HETATM    2  N   UNL     1     -10.897   8.498  71.478  1.00  0.00    -0.244 NA 
ENDROOT
BRANCH   2   3
HETATM    3  C   UNL     1     -11.780   7.380  71.078  1.00  0.00    -0.297 C  
BRANCH   3   4
HETATM    4  C   UNL     1     -11.039   6.124  70.638  1.00  0.00    -0.384 A  
HETATM    5  C   UNL     1     -10.779   5.033  71.520  1.00  0.00    -0.114 A  
HETATM    6  C   UNL     1     -10.580   6.072  69.308  1.00  0.00    -0.366 A  
HETATM    7  C   UNL     1     -11.222   4.979  72.863  1.00  0.00    -0.344 A  
HETATM    8  C   UNL     1     -10.883   3.922  73.711  1.00  0.00    -0.326 A  
HETATM    9  C   UNL     1      -9.851   4.982  68.851  1.00  0.00    -0.245 A  
HETATM   10  C   UNL     1     -10.107   2.877  73.233  1.00  0.00    -0.196 A  
HETATM   11  C   UNL     1      -9.565   3.927  69.713  1.00  0.00    -0.271 A  
HETATM   12  C   UNL     1     -10.011   3.941  71.042  1.00  0.00    -0.149 A  
HETATM   13  C   UNL     1      -9.686   2.880  71.904  1.00  0.00    -0.227 A  
ENDBRANCH   3   4
ENDBRANCH   2   3
BRANCH   2  14
HETATM   14  C   UNL     1      -9.793   8.694  70.528  1.00  0.00    -0.179 C  
BRANCH  14  15
HETATM   15  C   UNL     1      -9.996   9.900  69.656  1.00  0.00    -0.255 C  
HETATM   16  C   UNL     1     -10.743   9.888  68.539  1.00  0.00    -0.260 C  
BRANCH  16  17
HETATM   17  C   UNL     1     -11.046  11.072  67.721  1.00  0.00    -0.356 A  
HETATM   18  C   UNL     1     -11.581  12.248  68.256  1.00  0.00    -0.385 A  
HETATM   19  C   UNL     1     -11.029  12.125  65.528  1.00  0.00    -0.343 A  
HETATM   20  C   UNL     1     -10.757  11.028  66.350  1.00  0.00    -0.286 A  
HETATM   21  C   UNL     1     -11.583  13.280  66.070  1.00  0.00    -0.384 A  
HETATM   22  C   UNL     1     -11.855  13.345  67.434  1.00  0.00    -0.418 A  
ENDBRANCH  16  17
ENDBRANCH  14  15
ENDBRANCH   2  14
TORSDOF 5
ENDMDL
MODEL      171
REMARK 921   NORMALIZED FREE ENERGY PREDICTED BY IDOCK:   -3.96 KCAL/MOL
REMARK 922        TOTAL FREE ENERGY PREDICTED BY IDOCK:   -6.42 KCAL/MOL
REMARK 923 INTER-LIGAND FREE ENERGY PREDICTED BY IDOCK:   -6.29 KCAL/MOL
REMARK 924 INTRA-LIGAND FREE ENERGY PREDICTED BY IDOCK:   -0.13 KCAL/MOL
REMARK 927      BINDING AFFINITY PREDICTED BY RF-SCORE:    0.00 PKD
ROOT
HETATM    1  C   UNL     1     -11.811  13.782  68.985  1.00  0.00    -0.357 C  
HETATM    2  N   UNL     1     -11.139  12.514  68.683  1.00  0.00    -0.250 NA 
ENDROOT
BRANCH   2   3
HETATM    3  C   UNL     1     -10.730  12.443  67.263  1.00  0.00    -0.230 C  
BRANCH   3   4
HETATM    4  C   UNL     1     -10.279  13.774  66.675  1.00  0.00    -0.276 A  
HETATM    5  C   UNL     1      -8.981  14.318  66.905  1.00  0.00    -0.255 A  
HETATM    6  C   UNL     1     -11.207  14.489  65.895  1.00  0.00    -0.331 A  
HETATM    7  C   UNL     1      -7.970  13.664  67.650  1.00  0.00    -0.180 A  
HETATM    8  C   UNL     1      -6.737  14.267  67.910  1.00  0.00    -0.177 A  
HETATM    9  C   UNL     1     -10.885  15.733  65.370  1.00  0.00    -0.376 A  
HETATM   10  C   UNL     1      -6.471  15.535  67.415  1.00  0.00    -0.143 A  
HETATM   11  C   UNL     1      -9.631  16.286  65.616  1.00  0.00    -0.152 A  
HETATM   12  C   UNL     1      -8.679  15.601  66.383  1.00  0.00    -0.354 A  
HETATM   13  C   UNL     1      -7.431  16.190  66.644  1.00  0.00    -0.200 A  
ENDBRANCH   3   4
ENDBRANCH   2   3
BRANCH   2  14
HETATM   14  C   UNL     1     -12.010  11.393  69.061  1.00  0.00    -0.320 C  
BRANCH  14  15
HETATM   15  C   UNL     1     -11.536  10.693  70.303  1.00  0.00    -0.424 C  
HETATM   16  C   UNL     1     -11.183   9.397  70.332  1.00  0.00    -0.309 C  
BRANCH  16  17
HETATM   17  C   UNL     1     -10.619   8.710  71.503  1.00  0.00    -0.352 A  
HETATM   18  C   UNL     1      -9.294   8.883  71.921  1.00  0.00    -0.275 A  
HETATM   19  C   UNL     1     -10.966   7.187  73.369  1.00  0.00    -0.277 A  
HETATM   20  C   UNL     1     -11.454   7.866  72.250  1.00  0.00    -0.403 A  
HETATM   21  C   UNL     1      -9.640   7.351  73.759  1.00  0.00    -0.333 A  
HETATM   22  C   UNL     1      -8.805   8.202  73.039  1.00  0.00    -0.316 A  
ENDBRANCH  16  17
ENDBRANCH  14  15
ENDBRANCH   2  14
TORSDOF 5
ENDMDL
MODEL      172
REMARK 921   NORMALIZED FREE ENERGY PREDICTED BY IDOCK:   -3.95 KCAL/MOL
REMARK 922        TOTAL FREE ENERGY PREDICTED BY IDOCK:   -6.42 KCAL/MOL
REMARK 923 INTER-LIGAND FREE ENERGY PREDICTED BY IDOCK:   -5.35 KCAL/MOL
REMARK 924 INTRA-LIGAND FREE ENERGY PREDICTED BY IDOCK:   -1.06 KCAL/MOL
REMARK 927      BINDING AFFINITY PREDICTED BY RF-SCORE:    0.00 PKD
ROOT
HETATM    1  C   UNL     1     -10.410   4.561  71.847  1.00  0.00    -0.128 C  
HETATM    2  N   UNL     1     -10.138   5.938  71.422  1.00  0.00    -0.192 NA 
ENDROOT
BRANCH   2   3
HETATM    3  C   UNL     1      -8.939   6.012  70.560  1.00  0.00    -0.146 C  
BRANCH   3   4
HETATM    4  C   UNL     1      -9.222   6.458  69.131  1.00  0.00    -0.133 A  
HETATM    5  C   UNL     1      -9.390   5.537  68.055  1.00  0.00    -0.120 A  
HETATM    6  C   UNL     1      -9.291   7.842  68.883  1.00  0.00    -0.146 A  
HETATM    7  C   UNL     1      -9.366   4.130  68.206  1.00  0.00    -0.214 A  
HETATM    8  C   UNL     1      -9.465   3.267  67.113  1.00  0.00    -0.178 A  
HETATM    9  C   UNL     1      -9.493   8.324  67.597  1.00  0.00    -0.176 A  
HETATM   10  C   UNL     1      -9.611   3.787  65.835  1.00  0.00    -0.166 A  
HETATM   11  C   UNL     1      -9.627   7.433  66.535  1.00  0.00    -0.228 A  
HETATM   12  C   UNL     1      -9.570   6.049  66.744  1.00  0.00    -0.171 A  
HETATM   13  C   UNL     1      -9.678   5.168  65.655  1.00  0.00    -0.081 A  
ENDBRANCH   3   4
ENDBRANCH   2   3
BRANCH   2  14
HETATM   14  C   UNL     1     -10.020   6.804  72.604  1.00  0.00    -0.171 C  
BRANCH  14  15
HETATM   15  C   UNL     1     -10.384   8.231  72.306  1.00  0.00    -0.386 C  
HETATM   16  C   UNL     1     -11.368   8.582  71.460  1.00  0.00    -0.348 C  
BRANCH  16  17
HETATM   17  C   UNL     1     -11.817   9.962  71.226  1.00  0.00    -0.479 A  
HETATM   18  C   UNL     1     -11.320  10.757  70.187  1.00  0.00    -0.390 A  
HETATM   19  C   UNL     1     -13.266  11.801  71.886  1.00  0.00    -0.468 A  
HETATM   20  C   UNL     1     -12.808  10.493  72.064  1.00  0.00    -0.419 A  
HETATM   21  C   UNL     1     -12.747  12.589  70.864  1.00  0.00    -0.270 A  
HETATM   22  C   UNL     1     -11.777  12.066  70.011  1.00  0.00    -0.346 A  
ENDBRANCH  16  17
ENDBRANCH  14  15
ENDBRANCH   2  14
TORSDOF 5
ENDMDL
MODEL      173
REMARK 921   NORMALIZED FREE ENERGY PREDICTED BY IDOCK:   -3.95 KCAL/MOL
REMARK 922        TOTAL FREE ENERGY PREDICTED BY IDOCK:   -6.41 KCAL/MOL
REMARK 923 INTER-LIGAND FREE ENERGY PREDICTED BY IDOCK:   -5.56 KCAL/MOL
REMARK 924 INTRA-LIGAND FREE ENERGY PREDICTED BY IDOCK:   -0.85 KCAL/MOL
REMARK 927      BINDING AFFINITY PREDICTED BY RF-SCORE:    0.00 PKD
ROOT
HETATM    1  C   UNL     1      -8.530   9.373  65.538  1.00  0.00    -0.143 C  
HETATM    2  N   UNL     1      -8.641   9.407  66.999  1.00  0.00    -0.127 NA 
ENDROOT
BRANCH   2   3
HETATM    3  C   UNL     1     -10.055   9.426  67.434  1.00  0.00    -0.215 C  
BRANCH   3   4
HETATM    4  C   UNL     1     -10.475   8.211  68.252  1.00  0.00    -0.210 A  
HETATM    5  C   UNL     1     -10.903   8.305  69.609  1.00  0.00    -0.154 A  
HETATM    6  C   UNL     1     -10.404   6.951  67.627  1.00  0.00    -0.260 A  
HETATM    7  C   UNL     1     -11.033   9.525  70.314  1.00  0.00    -0.317 A  
HETATM    8  C   UNL     1     -11.388   9.564  71.664  1.00  0.00    -0.411 A  
HETATM    9  C   UNL     1     -10.720   5.793  68.326  1.00  0.00    -0.285 A  
HETATM   10  C   UNL     1     -11.643   8.382  72.344  1.00  0.00    -0.450 A  
HETATM   11  C   UNL     1     -11.108   5.873  69.661  1.00  0.00    -0.414 A  
HETATM   12  C   UNL     1     -11.196   7.110  70.314  1.00  0.00    -0.309 A  
HETATM   13  C   UNL     1     -11.562   7.165  71.669  1.00  0.00    -0.309 A  
ENDBRANCH   3   4
ENDBRANCH   2   3
BRANCH   2  14
HETATM   14  C   UNL     1      -7.890  10.556  67.524  1.00  0.00    -0.106 C  
BRANCH  14  15
HETATM   15  C   UNL     1      -8.791  11.672  67.973  1.00  0.00    -0.162 C  
HETATM   16  C   UNL     1      -8.884  12.850  67.334  1.00  0.00    -0.199 C  
BRANCH  16  17
HETATM   17  C   UNL     1      -9.829  13.920  67.687  1.00  0.00    -0.236 A  
HETATM   18  C   UNL     1      -9.440  15.255  67.844  1.00  0.00    -0.197 A  
HETATM   19  C   UNL     1     -12.120  14.571  68.182  1.00  0.00    -0.232 A  
HETATM   20  C   UNL     1     -11.183  13.591  67.843  1.00  0.00    -0.302 A  
HETATM   21  C   UNL     1     -11.716  15.891  68.358  1.00  0.00    -0.246 A  
HETATM   22  C   UNL     1     -10.377  16.235  68.184  1.00  0.00    -0.277 A  
ENDBRANCH  16  17
ENDBRANCH  14  15
ENDBRANCH   2  14
TORSDOF 5
ENDMDL
MODEL      174
REMARK 921   NORMALIZED FREE ENERGY PREDICTED BY IDOCK:   -3.94 KCAL/MOL
REMARK 922        TOTAL FREE ENERGY PREDICTED BY IDOCK:   -6.40 KCAL/MOL
REMARK 923 INTER-LIGAND FREE ENERGY PREDICTED BY IDOCK:   -5.60 KCAL/MOL
REMARK 924 INTRA-LIGAND FREE ENERGY PREDICTED BY IDOCK:   -0.80 KCAL/MOL
REMARK 927      BINDING AFFINITY PREDICTED BY RF-SCORE:    0.00 PKD
ROOT
HETATM    1  C   UNL     1      -8.345   4.442  68.057  1.00  0.00    -0.094 C  
HETATM    2  N   UNL     1      -9.204   5.558  68.464  1.00  0.00    -0.117 NA 
ENDROOT
BRANCH   2   3
HETATM    3  C   UNL     1      -8.460   6.837  68.472  1.00  0.00    -0.123 C  
BRANCH   3   4
HETATM    4  C   UNL     1      -9.092   7.934  67.625  1.00  0.00    -0.139 A  
HETATM    5  C   UNL     1      -8.669   8.220  66.293  1.00  0.00    -0.173 A  
HETATM    6  C   UNL     1     -10.118   8.699  68.211  1.00  0.00    -0.225 A  
HETATM    7  C   UNL     1      -7.668   7.491  65.608  1.00  0.00    -0.100 A  
HETATM    8  C   UNL     1      -7.236   7.851  64.330  1.00  0.00    -0.082 A  
HETATM    9  C   UNL     1     -10.705   9.750  67.518  1.00  0.00    -0.327 A  
HETATM   10  C   UNL     1      -7.807   8.941  63.690  1.00  0.00    -0.141 A  
HETATM   11  C   UNL     1     -10.276  10.057  66.230  1.00  0.00    -0.285 A  
HETATM   12  C   UNL     1      -9.262   9.313  65.611  1.00  0.00    -0.291 A  
HETATM   13  C   UNL     1      -8.823   9.657  64.322  1.00  0.00    -0.260 A  
ENDBRANCH   3   4
ENDBRANCH   2   3
BRANCH   2  14
HETATM   14  C   UNL     1      -9.808   5.264  69.771  1.00  0.00    -0.211 C  
BRANCH  14  15
HETATM   15  C   UNL     1     -10.953   6.183  70.091  1.00  0.00    -0.426 C  
HETATM   16  C   UNL     1     -10.943   7.045  71.122  1.00  0.00    -0.275 C  
BRANCH  16  17
HETATM   17  C   UNL     1     -12.000   8.027  71.401  1.00  0.00    -0.328 A  
HETATM   18  C   UNL     1     -11.759   9.404  71.477  1.00  0.00    -0.465 A  
HETATM   19  C   UNL     1     -14.354   8.457  71.841  1.00  0.00    -0.561 A  
HETATM   20  C   UNL     1     -13.314   7.565  71.569  1.00  0.00    -0.409 A  
HETATM   21  C   UNL     1     -14.096   9.821  71.936  1.00  0.00    -0.002 A  
HETATM   22  C   UNL     1     -12.799  10.296  71.750  1.00  0.00    -0.565 A  
ENDBRANCH  16  17
ENDBRANCH  14  15
ENDBRANCH   2  14
TORSDOF 5
ENDMDL
MODEL      175
REMARK 921   NORMALIZED FREE ENERGY PREDICTED BY IDOCK:   -3.92 KCAL/MOL
REMARK 922        TOTAL FREE ENERGY PREDICTED BY IDOCK:   -6.37 KCAL/MOL
REMARK 923 INTER-LIGAND FREE ENERGY PREDICTED BY IDOCK:   -4.60 KCAL/MOL
REMARK 924 INTRA-LIGAND FREE ENERGY PREDICTED BY IDOCK:   -1.77 KCAL/MOL
REMARK 927      BINDING AFFINITY PREDICTED BY RF-SCORE:    0.00 PKD
ROOT
HETATM    1  C   UNL     1     -10.510  15.338  67.909  1.00  0.00    -0.253 C  
HETATM    2  N   UNL     1     -10.391  13.877  67.950  1.00  0.00    -0.236 NA 
ENDROOT
BRANCH   2   3
HETATM    3  C   UNL     1      -9.704  13.356  66.748  1.00  0.00    -0.262 C  
BRANCH   3   4
HETATM    4  C   UNL     1      -8.511  12.459  67.048  1.00  0.00    -0.170 A  
HETATM    5  C   UNL     1      -8.274  11.233  66.358  1.00  0.00    -0.150 A  
HETATM    6  C   UNL     1      -7.632  12.865  68.071  1.00  0.00    -0.137 A  
HETATM    7  C   UNL     1      -9.082  10.754  65.299  1.00  0.00    -0.217 A  
HETATM    8  C   UNL     1      -8.854   9.513  64.700  1.00  0.00    -0.250 A  
HETATM    9  C   UNL     1      -6.553  12.072  68.436  1.00  0.00    -0.058 A  
HETATM   10  C   UNL     1      -7.798   8.723  65.129  1.00  0.00    -0.108 A  
HETATM   11  C   UNL     1      -6.332  10.859  67.789  1.00  0.00    -0.062 A  
HETATM   12  C   UNL     1      -7.182  10.425  66.763  1.00  0.00    -0.109 A  
HETATM   13  C   UNL     1      -6.959   9.184  66.144  1.00  0.00    -0.086 A  
ENDBRANCH   3   4
ENDBRANCH   2   3
BRANCH   2  14
HETATM   14  C   UNL     1     -11.722  13.279  68.125  1.00  0.00    -0.362 C  
BRANCH  14  15
HETATM   15  C   UNL     1     -11.664  11.784  68.260  1.00  0.00    -0.377 C  
HETATM   16  C   UNL     1     -10.836  11.149  69.107  1.00  0.00    -0.284 C  
BRANCH  16  17
HETATM   17  C   UNL     1     -10.827   9.697  69.337  1.00  0.00    -0.239 A  
HETATM   18  C   UNL     1     -11.428   9.101  70.451  1.00  0.00    -0.228 A  
HETATM   19  C   UNL     1     -10.174   7.487  68.556  1.00  0.00    -0.216 A  
HETATM   20  C   UNL     1     -10.214   8.873  68.383  1.00  0.00    -0.231 A  
HETATM   21  C   UNL     1     -10.756   6.910  69.681  1.00  0.00    -0.276 A  
HETATM   22  C   UNL     1     -11.387   7.715  70.626  1.00  0.00    -0.288 A  
ENDBRANCH  16  17
ENDBRANCH  14  15
ENDBRANCH   2  14
TORSDOF 5
ENDMDL
MODEL      176
REMARK 921   NORMALIZED FREE ENERGY PREDICTED BY IDOCK:   -3.92 KCAL/MOL
REMARK 922        TOTAL FREE ENERGY PREDICTED BY IDOCK:   -6.37 KCAL/MOL
REMARK 923 INTER-LIGAND FREE ENERGY PREDICTED BY IDOCK:   -5.71 KCAL/MOL
REMARK 924 INTRA-LIGAND FREE ENERGY PREDICTED BY IDOCK:   -0.66 KCAL/MOL
REMARK 927      BINDING AFFINITY PREDICTED BY RF-SCORE:    0.00 PKD
ROOT
HETATM    1  C   UNL     1     -10.274  10.080  65.713  1.00  0.00    -0.200 C  
HETATM    2  N   UNL     1     -10.586   9.544  67.042  1.00  0.00    -0.231 NA 
ENDROOT
BRANCH   2   3
HETATM    3  C   UNL     1      -9.818  10.239  68.099  1.00  0.00    -0.148 C  
BRANCH   3   4
HETATM    4  C   UNL     1     -10.543  11.425  68.721  1.00  0.00    -0.235 A  
HETATM    5  C   UNL     1     -10.373  12.763  68.258  1.00  0.00    -0.248 A  
HETATM    6  C   UNL     1     -11.393  11.168  69.814  1.00  0.00    -0.354 A  
HETATM    7  C   UNL     1      -9.565  13.120  67.152  1.00  0.00    -0.235 A  
HETATM    8  C   UNL     1      -9.371  14.452  66.778  1.00  0.00    -0.285 A  
HETATM    9  C   UNL     1     -12.046  12.205  70.466  1.00  0.00    -0.383 A  
HETATM   10  C   UNL     1      -9.997  15.466  67.487  1.00  0.00    -0.226 A  
HETATM   11  C   UNL     1     -11.861  13.518  70.041  1.00  0.00    -0.371 A  
HETATM   12  C   UNL     1     -11.028  13.812  68.953  1.00  0.00    -0.281 A  
HETATM   13  C   UNL     1     -10.831  15.146  68.558  1.00  0.00    -0.247 A  
ENDBRANCH   3   4
ENDBRANCH   2   3
BRANCH   2  14
HETATM   14  C   UNL     1     -10.352   8.094  67.056  1.00  0.00    -0.333 C  
BRANCH  14  15
HETATM   15  C   UNL     1     -10.090   7.570  68.440  1.00  0.00    -0.200 C  
HETATM   16  C   UNL     1     -11.021   6.949  69.184  1.00  0.00    -0.240 C  
BRANCH  16  17
HETATM   17  C   UNL     1     -10.770   6.335  70.496  1.00  0.00    -0.327 A  
HETATM   18  C   UNL     1     -11.767   6.179  71.465  1.00  0.00    -0.264 A  
HETATM   19  C   UNL     1      -9.189   5.271  72.009  1.00  0.00    -0.154 A  
HETATM   20  C   UNL     1      -9.481   5.859  70.776  1.00  0.00    -0.192 A  
HETATM   21  C   UNL     1     -10.185   5.143  72.973  1.00  0.00    -0.217 A  
HETATM   22  C   UNL     1     -11.476   5.592  72.700  1.00  0.00    -0.339 A  
ENDBRANCH  16  17
ENDBRANCH  14  15
ENDBRANCH   2  14
TORSDOF 5
ENDMDL
MODEL      177
REMARK 921   NORMALIZED FREE ENERGY PREDICTED BY IDOCK:   -3.92 KCAL/MOL
REMARK 922        TOTAL FREE ENERGY PREDICTED BY IDOCK:   -6.37 KCAL/MOL
REMARK 923 INTER-LIGAND FREE ENERGY PREDICTED BY IDOCK:   -5.89 KCAL/MOL
REMARK 924 INTRA-LIGAND FREE ENERGY PREDICTED BY IDOCK:   -0.48 KCAL/MOL
REMARK 927      BINDING AFFINITY PREDICTED BY RF-SCORE:    0.00 PKD
ROOT
HETATM    1  C   UNL     1     -11.880  12.844  65.038  1.00  0.00    -0.372 C  
HETATM    2  N   UNL     1     -11.433  12.853  66.434  1.00  0.00    -0.323 NA 
ENDROOT
BRANCH   2   3
HETATM    3  C   UNL     1     -11.767  11.584  67.117  1.00  0.00    -0.055 C  
BRANCH   3   4
HETATM    4  C   UNL     1     -10.563  10.844  67.687  1.00  0.00    -0.263 A  
HETATM    5  C   UNL     1      -9.680  10.069  66.878  1.00  0.00    -0.237 A  
HETATM    6  C   UNL     1     -10.347  10.925  69.076  1.00  0.00    -0.230 A  
HETATM    7  C   UNL     1      -9.796   9.949  65.473  1.00  0.00    -0.381 A  
HETATM    8  C   UNL     1      -8.952   9.121  64.729  1.00  0.00    -0.177 A  
HETATM    9  C   UNL     1      -9.302  10.235  69.674  1.00  0.00    -0.167 A  
HETATM   10  C   UNL     1      -7.952   8.404  65.369  1.00  0.00    -0.122 A  
HETATM   11  C   UNL     1      -8.454   9.450  68.896  1.00  0.00    -0.122 A  
HETATM   12  C   UNL     1      -8.634   9.351  67.510  1.00  0.00    -0.122 A  
HETATM   13  C   UNL     1      -7.786   8.530  66.748  1.00  0.00    -0.091 A  
ENDBRANCH   3   4
ENDBRANCH   2   3
BRANCH   2  14
HETATM   14  C   UNL     1     -12.004  14.016  67.126  1.00  0.00    -0.430 C  
BRANCH  14  15
HETATM   15  C   UNL     1     -11.052  15.178  67.175  1.00  0.00    -0.335 C  
HETATM   16  C   UNL     1     -11.152  16.178  68.066  1.00  0.00    -0.317 C  
BRANCH  16  17
HETATM   17  C   UNL     1     -10.180  17.273  68.208  1.00  0.00    -0.348 A  
HETATM   18  C   UNL     1      -8.820  17.054  68.453  1.00  0.00    -0.247 A  
HETATM   19  C   UNL     1      -9.751  19.668  68.189  1.00  0.00    -0.503 A  
HETATM   20  C   UNL     1     -10.633  18.591  68.060  1.00  0.00    -0.347 A  
HETATM   21  C   UNL     1      -8.405  19.437  68.456  1.00  0.00    -0.399 A  
HETATM   22  C   UNL     1      -7.938  18.130  68.583  1.00  0.00    -0.301 A  
ENDBRANCH  16  17
ENDBRANCH  14  15
ENDBRANCH   2  14
TORSDOF 5
ENDMDL
MODEL      178
REMARK 921   NORMALIZED FREE ENERGY PREDICTED BY IDOCK:   -3.91 KCAL/MOL
REMARK 922        TOTAL FREE ENERGY PREDICTED BY IDOCK:   -6.36 KCAL/MOL
REMARK 923 INTER-LIGAND FREE ENERGY PREDICTED BY IDOCK:   -5.74 KCAL/MOL
REMARK 924 INTRA-LIGAND FREE ENERGY PREDICTED BY IDOCK:   -0.62 KCAL/MOL
REMARK 927      BINDING AFFINITY PREDICTED BY RF-SCORE:    0.00 PKD
ROOT
HETATM    1  C   UNL     1      -8.011   8.208  66.203  1.00  0.00    -0.102 C  
HETATM    2  N   UNL     1      -9.033   9.185  66.590  1.00  0.00    -0.133 NA 
ENDROOT
BRANCH   2   3
HETATM    3  C   UNL     1     -10.222   8.522  67.171  1.00  0.00    -0.284 C  
BRANCH   3   4
HETATM    4  C   UNL     1     -10.666   9.096  68.510  1.00  0.00    -0.160 A  
HETATM    5  C   UNL     1     -10.513   8.390  69.740  1.00  0.00    -0.220 A  
HETATM    6  C   UNL     1     -11.271  10.367  68.505  1.00  0.00    -0.308 A  
HETATM    7  C   UNL     1      -9.894   7.122  69.853  1.00  0.00    -0.174 A  
HETATM    8  C   UNL     1      -9.830   6.436  71.067  1.00  0.00    -0.200 A  
HETATM    9  C   UNL     1     -11.748  10.931  69.680  1.00  0.00    -0.403 A  
HETATM   10  C   UNL     1     -10.367   7.008  72.211  1.00  0.00    -0.216 A  
HETATM   11  C   UNL     1     -11.633  10.236  70.881  1.00  0.00    -0.454 A  
HETATM   12  C   UNL     1     -11.030   8.971  70.926  1.00  0.00    -0.332 A  
HETATM   13  C   UNL     1     -10.950   8.273  72.143  1.00  0.00    -0.396 A  
ENDBRANCH   3   4
ENDBRANCH   2   3
BRANCH   2  14
HETATM   14  C   UNL     1      -9.381  10.020  65.431  1.00  0.00    -0.229 C  
BRANCH  14  15
HETATM   15  C   UNL     1     -10.039  11.309  65.832  1.00  0.00    -0.291 C  
HETATM   16  C   UNL     1      -9.362  12.371  66.301  1.00  0.00    -0.189 C  
BRANCH  16  17
HETATM   17  C   UNL     1      -9.962  13.678  66.604  1.00  0.00    -0.283 A  
HETATM   18  C   UNL     1     -10.546  13.979  67.840  1.00  0.00    -0.246 A  
HETATM   19  C   UNL     1     -10.478  15.935  65.857  1.00  0.00    -0.373 A  
HETATM   20  C   UNL     1      -9.919  14.677  65.621  1.00  0.00    -0.381 A  
HETATM   21  C   UNL     1     -11.076  16.213  67.082  1.00  0.00    -0.053 A  
HETATM   22  C   UNL     1     -11.106  15.237  68.076  1.00  0.00    -0.312 A  
ENDBRANCH  16  17
ENDBRANCH  14  15
ENDBRANCH   2  14
TORSDOF 5
ENDMDL
MODEL      179
REMARK 921   NORMALIZED FREE ENERGY PREDICTED BY IDOCK:   -3.91 KCAL/MOL
REMARK 922        TOTAL FREE ENERGY PREDICTED BY IDOCK:   -6.36 KCAL/MOL
REMARK 923 INTER-LIGAND FREE ENERGY PREDICTED BY IDOCK:   -5.64 KCAL/MOL
REMARK 924 INTRA-LIGAND FREE ENERGY PREDICTED BY IDOCK:   -0.72 KCAL/MOL
REMARK 927      BINDING AFFINITY PREDICTED BY RF-SCORE:    0.00 PKD
ROOT
HETATM    1  C   UNL     1     -11.540  14.496  64.507  1.00  0.00    -0.377 C  
HETATM    2  N   UNL     1     -12.319  13.286  64.784  1.00  0.00    -0.483 NA 
ENDROOT
BRANCH   2   3
HETATM    3  C   UNL     1     -12.153  12.845  66.187  1.00  0.00    -0.393 C  
BRANCH   3   4
HETATM    4  C   UNL     1     -11.287  13.768  67.034  1.00  0.00    -0.345 A  
HETATM    5  C   UNL     1      -9.916  13.495  67.316  1.00  0.00    -0.236 A  
HETATM    6  C   UNL     1     -11.894  14.919  67.571  1.00  0.00    -0.256 A  
HETATM    7  C   UNL     1      -9.209  12.382  66.801  1.00  0.00    -0.212 A  
HETATM    8  C   UNL     1      -7.886  12.115  67.160  1.00  0.00    -0.160 A  
HETATM    9  C   UNL     1     -11.182  15.778  68.397  1.00  0.00    -0.362 A  
HETATM   10  C   UNL     1      -7.223  12.967  68.031  1.00  0.00    -0.119 A  
HETATM   11  C   UNL     1      -9.852  15.503  68.702  1.00  0.00    -0.207 A  
HETATM   12  C   UNL     1      -9.212  14.370  68.181  1.00  0.00    -0.199 A  
HETATM   13  C   UNL     1      -7.878  14.095  68.526  1.00  0.00    -0.140 A  
ENDBRANCH   3   4
ENDBRANCH   2   3
BRANCH   2  14
HETATM   14  C   UNL     1     -11.949  12.232  63.830  1.00  0.00    -0.519 C  
BRANCH  14  15
HETATM   15  C   UNL     1     -10.871  11.330  64.362  1.00  0.00    -0.373 C  
HETATM   16  C   UNL     1      -9.947  10.742  63.584  1.00  0.00    -0.405 C  
BRANCH  16  17
HETATM   17  C   UNL     1      -8.821   9.940  64.083  1.00  0.00    -0.251 A  
HETATM   18  C   UNL     1      -8.962   8.967  65.079  1.00  0.00    -0.198 A  
HETATM   19  C   UNL     1      -6.451   9.405  63.954  1.00  0.00    -0.095 A  
HETATM   20  C   UNL     1      -7.555  10.139  63.513  1.00  0.00    -0.138 A  
HETATM   21  C   UNL     1      -6.601   8.458  64.961  1.00  0.00    -0.063 A  
HETATM   22  C   UNL     1      -7.858   8.235  65.521  1.00  0.00    -0.107 A  
ENDBRANCH  16  17
ENDBRANCH  14  15
ENDBRANCH   2  14
TORSDOF 5
ENDMDL
MODEL      180
REMARK 921   NORMALIZED FREE ENERGY PREDICTED BY IDOCK:   -3.89 KCAL/MOL
REMARK 922        TOTAL FREE ENERGY PREDICTED BY IDOCK:   -6.34 KCAL/MOL
REMARK 923 INTER-LIGAND FREE ENERGY PREDICTED BY IDOCK:   -6.12 KCAL/MOL
REMARK 924 INTRA-LIGAND FREE ENERGY PREDICTED BY IDOCK:   -0.21 KCAL/MOL
REMARK 927      BINDING AFFINITY PREDICTED BY RF-SCORE:    0.00 PKD
ROOT
HETATM    1  C   UNL     1     -12.340  12.891  65.907  1.00  0.00    -0.313 C  
HETATM    2  N   UNL     1     -11.458  14.012  65.568  1.00  0.00    -0.311 NA 
ENDROOT
BRANCH   2   3
HETATM    3  C   UNL     1     -10.034  13.613  65.619  1.00  0.00    -0.243 C  
BRANCH   3   4
HETATM    4  C   UNL     1      -9.119  14.642  66.271  1.00  0.00    -0.196 A  
HETATM    5  C   UNL     1      -8.196  14.308  67.306  1.00  0.00    -0.212 A  
HETATM    6  C   UNL     1      -9.226  15.977  65.835  1.00  0.00    -0.321 A  
HETATM    7  C   UNL     1      -7.996  12.994  67.793  1.00  0.00    -0.164 A  
HETATM    8  C   UNL     1      -7.132  12.724  68.856  1.00  0.00    -0.067 A  
HETATM    9  C   UNL     1      -8.463  16.978  66.420  1.00  0.00    -0.318 A  
HETATM   10  C   UNL     1      -6.427  13.759  69.452  1.00  0.00    -0.111 A  
HETATM   11  C   UNL     1      -7.582  16.666  67.452  1.00  0.00    -0.191 A  
HETATM   12  C   UNL     1      -7.444  15.348  67.908  1.00  0.00    -0.153 A  
HETATM   13  C   UNL     1      -6.571  15.060  68.971  1.00  0.00    -0.109 A  
ENDBRANCH   3   4
ENDBRANCH   2   3
BRANCH   2  14
HETATM   14  C   UNL     1     -11.743  15.149  66.453  1.00  0.00    -0.018 C  
BRANCH  14  15
HETATM   15  C   UNL     1     -12.112  14.714  67.843  1.00  0.00    -0.214 C  
HETATM   16  C   UNL     1     -11.700  15.351  68.952  1.00  0.00    -0.377 C  
BRANCH  16  17
HETATM   17  C   UNL     1     -12.126  15.014  70.318  1.00  0.00    -0.378 A  
HETATM   18  C   UNL     1     -12.752  13.806  70.643  1.00  0.00    -0.330 A  
HETATM   19  C   UNL     1     -12.254  15.663  72.660  1.00  0.00    -0.541 A  
HETATM   20  C   UNL     1     -11.866  15.933  71.345  1.00  0.00    -0.524 A  
HETATM   21  C   UNL     1     -12.897  14.467  72.964  1.00  0.00    -0.550 A  
HETATM   22  C   UNL     1     -13.142  13.536  71.957  1.00  0.00    -0.481 A  
ENDBRANCH  16  17
ENDBRANCH  14  15
ENDBRANCH   2  14
TORSDOF 5
ENDMDL
MODEL      181
REMARK 921   NORMALIZED FREE ENERGY PREDICTED BY IDOCK:   -3.89 KCAL/MOL
REMARK 922        TOTAL FREE ENERGY PREDICTED BY IDOCK:   -6.33 KCAL/MOL
REMARK 923 INTER-LIGAND FREE ENERGY PREDICTED BY IDOCK:   -5.86 KCAL/MOL
REMARK 924 INTRA-LIGAND FREE ENERGY PREDICTED BY IDOCK:   -0.47 KCAL/MOL
REMARK 927      BINDING AFFINITY PREDICTED BY RF-SCORE:    0.00 PKD
ROOT
HETATM    1  C   UNL     1     -11.327   9.141  70.280  1.00  0.00    -0.188 C  
HETATM    2  N   UNL     1     -10.852   9.418  68.921  1.00  0.00    -0.171 NA 
ENDROOT
BRANCH   2   3
HETATM    3  C   UNL     1      -9.374   9.435  68.858  1.00  0.00    -0.154 C  
BRANCH   3   4
HETATM    4  C   UNL     1      -8.805   9.290  67.452  1.00  0.00    -0.124 A  
HETATM    5  C   UNL     1      -8.815   8.055  66.740  1.00  0.00    -0.157 A  
HETATM    6  C   UNL     1      -8.229  10.431  66.862  1.00  0.00    -0.124 A  
HETATM    7  C   UNL     1      -9.394   6.861  67.235  1.00  0.00    -0.152 A  
HETATM    8  C   UNL     1      -9.318   5.657  66.533  1.00  0.00    -0.159 A  
HETATM    9  C   UNL     1      -7.644  10.362  65.605  1.00  0.00    -0.150 A  
HETATM   10  C   UNL     1      -8.677   5.614  65.304  1.00  0.00    -0.120 A  
HETATM   11  C   UNL     1      -7.621   9.153  64.916  1.00  0.00    -0.107 A  
HETATM   12  C   UNL     1      -8.190   7.997  65.469  1.00  0.00    -0.138 A  
HETATM   13  C   UNL     1      -8.130   6.780  64.769  1.00  0.00    -0.098 A  
ENDBRANCH   3   4
ENDBRANCH   2   3
BRANCH   2  14
HETATM   14  C   UNL     1     -11.437  10.678  68.441  1.00  0.00    -0.259 C  
BRANCH  14  15
HETATM   15  C   UNL     1     -11.902  11.558  69.566  1.00  0.00    -0.419 C  
HETATM   16  C   UNL     1     -11.710  12.888  69.593  1.00  0.00    -0.367 C  
BRANCH  16  17
HETATM   17  C   UNL     1     -12.241  13.789  70.625  1.00  0.00    -0.434 A  
HETATM   18  C   UNL     1     -11.902  15.145  70.698  1.00  0.00    -0.371 A  
HETATM   19  C   UNL     1     -13.681  14.087  72.564  1.00  0.00    -0.651 A  
HETATM   20  C   UNL     1     -13.150  13.273  71.560  1.00  0.00    -0.414 A  
HETATM   21  C   UNL     1     -13.317  15.428  72.639  1.00  0.00    -0.602 A  
HETATM   22  C   UNL     1     -12.432  15.959  71.703  1.00  0.00    -0.502 A  
ENDBRANCH  16  17
ENDBRANCH  14  15
ENDBRANCH   2  14
TORSDOF 5
ENDMDL
MODEL      182
REMARK 921   NORMALIZED FREE ENERGY PREDICTED BY IDOCK:   -3.86 KCAL/MOL
REMARK 922        TOTAL FREE ENERGY PREDICTED BY IDOCK:   -6.30 KCAL/MOL
REMARK 923 INTER-LIGAND FREE ENERGY PREDICTED BY IDOCK:   -5.40 KCAL/MOL
REMARK 924 INTRA-LIGAND FREE ENERGY PREDICTED BY IDOCK:   -0.90 KCAL/MOL
REMARK 927      BINDING AFFINITY PREDICTED BY RF-SCORE:    0.00 PKD
ROOT
HETATM    1  C   UNL     1     -10.059   5.311  74.345  1.00  0.00    -0.251 C  
HETATM    2  N   UNL     1     -10.064   5.275  72.879  1.00  0.00    -0.169 NA 
ENDROOT
BRANCH   2   3
HETATM    3  C   UNL     1     -11.165   6.091  72.322  1.00  0.00    -0.293 C  
BRANCH   3   4
HETATM    4  C   UNL     1     -10.709   7.364  71.621  1.00  0.00    -0.239 A  
HETATM    5  C   UNL     1     -11.487   8.559  71.609  1.00  0.00    -0.365 A  
HETATM    6  C   UNL     1      -9.475   7.327  70.944  1.00  0.00    -0.159 A  
HETATM    7  C   UNL     1     -12.724   8.704  72.282  1.00  0.00    -0.450 A  
HETATM    8  C   UNL     1     -13.486   9.871  72.183  1.00  0.00    -0.454 A  
HETATM    9  C   UNL     1      -9.019   8.432  70.238  1.00  0.00    -0.147 A  
HETATM   10  C   UNL     1     -13.023  10.935  71.424  1.00  0.00    -0.527 A  
HETATM   11  C   UNL     1      -9.787   9.592  70.194  1.00  0.00    -0.310 A  
HETATM   12  C   UNL     1     -11.017   9.669  70.862  1.00  0.00    -0.412 A  
HETATM   13  C   UNL     1     -11.790  10.839  70.780  1.00  0.00    -0.443 A  
ENDBRANCH   3   4
ENDBRANCH   2   3
BRANCH   2  14
HETATM   14  C   UNL     1     -10.126   3.881  72.420  1.00  0.00    -0.167 C  
BRANCH  14  15
HETATM   15  C   UNL     1      -9.874   3.752  70.945  1.00  0.00    -0.192 C  
HETATM   16  C   UNL     1      -8.678   3.981  70.377  1.00  0.00    -0.124 C  
BRANCH  16  17
HETATM   17  C   UNL     1      -8.372   3.765  68.955  1.00  0.00    -0.088 A  
HETATM   18  C   UNL     1      -7.158   4.145  68.372  1.00  0.00    -0.055 A  
HETATM   19  C   UNL     1      -9.089   2.897  66.798  1.00  0.00    -0.171 A  
HETATM   20  C   UNL     1      -9.329   3.123  68.156  1.00  0.00    -0.247 A  
HETATM   21  C   UNL     1      -7.886   3.301  66.227  1.00  0.00    -0.078 A  
HETATM   22  C   UNL     1      -6.918   3.921  67.014  1.00  0.00    -0.059 A  
ENDBRANCH  16  17
ENDBRANCH  14  15
ENDBRANCH   2  14
TORSDOF 5
ENDMDL
MODEL      183
REMARK 921   NORMALIZED FREE ENERGY PREDICTED BY IDOCK:   -3.85 KCAL/MOL
REMARK 922        TOTAL FREE ENERGY PREDICTED BY IDOCK:   -6.28 KCAL/MOL
REMARK 923 INTER-LIGAND FREE ENERGY PREDICTED BY IDOCK:   -6.26 KCAL/MOL
REMARK 924 INTRA-LIGAND FREE ENERGY PREDICTED BY IDOCK:   -0.02 KCAL/MOL
REMARK 927      BINDING AFFINITY PREDICTED BY RF-SCORE:    0.00 PKD
ROOT
HETATM    1  C   UNL     1      -8.100  10.342  67.575  1.00  0.00    -0.107 C  
HETATM    2  N   UNL     1      -8.639   9.856  66.301  1.00  0.00    -0.127 NA 
ENDROOT
BRANCH   2   3
HETATM    3  C   UNL     1      -8.598  10.907  65.261  1.00  0.00    -0.100 C  
BRANCH   3   4
HETATM    4  C   UNL     1      -9.935  11.590  65.006  1.00  0.00    -0.305 A  
HETATM    5  C   UNL     1     -10.477  12.577  65.882  1.00  0.00    -0.289 A  
HETATM    6  C   UNL     1     -10.661  11.195  63.866  1.00  0.00    -0.431 A  
HETATM    7  C   UNL     1      -9.813  13.060  67.035  1.00  0.00    -0.238 A  
HETATM    8  C   UNL     1     -10.412  13.976  67.903  1.00  0.00    -0.241 A  
HETATM    9  C   UNL     1     -11.911  11.734  63.598  1.00  0.00    -0.490 A  
HETATM   10  C   UNL     1     -11.687  14.452  67.631  1.00  0.00    -0.421 A  
HETATM   11  C   UNL     1     -12.462  12.675  64.464  1.00  0.00    -0.525 A  
HETATM   12  C   UNL     1     -11.766  13.097  65.605  1.00  0.00    -0.402 A  
HETATM   13  C   UNL     1     -12.352  14.026  66.482  1.00  0.00    -0.442 A  
ENDBRANCH   3   4
ENDBRANCH   2   3
BRANCH   2  14
HETATM   14  C   UNL     1      -9.999   9.340  66.507  1.00  0.00    -0.274 C  
BRANCH  14  15
HETATM   15  C   UNL     1     -10.127   8.553  67.780  1.00  0.00    -0.266 C  
HETATM   16  C   UNL     1     -10.547   7.277  67.822  1.00  0.00    -0.289 C  
BRANCH  16  17
HETATM   17  C   UNL     1     -10.584   6.448  69.036  1.00  0.00    -0.305 A  
HETATM   18  C   UNL     1     -11.074   6.916  70.261  1.00  0.00    -0.342 A  
HETATM   19  C   UNL     1     -10.147   4.294  70.079  1.00  0.00    -0.057 A  
HETATM   20  C   UNL     1     -10.136   5.122  68.953  1.00  0.00    -0.237 A  
HETATM   21  C   UNL     1     -10.615   4.779  71.296  1.00  0.00    -0.040 A  
HETATM   22  C   UNL     1     -11.083   6.088  71.387  1.00  0.00    -0.336 A  
ENDBRANCH  16  17
ENDBRANCH  14  15
ENDBRANCH   2  14
TORSDOF 5
ENDMDL
MODEL      184
REMARK 921   NORMALIZED FREE ENERGY PREDICTED BY IDOCK:   -3.85 KCAL/MOL
REMARK 922        TOTAL FREE ENERGY PREDICTED BY IDOCK:   -6.28 KCAL/MOL
REMARK 923 INTER-LIGAND FREE ENERGY PREDICTED BY IDOCK:   -5.64 KCAL/MOL
REMARK 924 INTRA-LIGAND FREE ENERGY PREDICTED BY IDOCK:   -0.64 KCAL/MOL
REMARK 927      BINDING AFFINITY PREDICTED BY RF-SCORE:    0.00 PKD
ROOT
HETATM    1  C   UNL     1     -10.483   7.406  67.082  1.00  0.00    -0.333 C  
HETATM    2  N   UNL     1     -10.044   8.800  67.197  1.00  0.00    -0.227 NA 
ENDROOT
BRANCH   2   3
HETATM    3  C   UNL     1     -10.476   9.399  68.479  1.00  0.00    -0.208 C  
BRANCH   3   4
HETATM    4  C   UNL     1      -9.549   9.106  69.652  1.00  0.00    -0.182 A  
HETATM    5  C   UNL     1     -10.014   8.563  70.886  1.00  0.00    -0.237 A  
HETATM    6  C   UNL     1      -8.184   9.414  69.494  1.00  0.00    -0.124 A  
HETATM    7  C   UNL     1     -11.358   8.195  71.131  1.00  0.00    -0.299 A  
HETATM    8  C   UNL     1     -11.782   7.734  72.379  1.00  0.00    -0.394 A  
HETATM    9  C   UNL     1      -7.288   9.223  70.538  1.00  0.00    -0.120 A  
HETATM   10  C   UNL     1     -10.868   7.609  73.415  1.00  0.00    -0.274 A  
HETATM   11  C   UNL     1      -7.739   8.724  71.757  1.00  0.00    -0.090 A  
HETATM   12  C   UNL     1      -9.089   8.400  71.948  1.00  0.00    -0.288 A  
HETATM   13  C   UNL     1      -9.528   7.926  73.196  1.00  0.00    -0.344 A  
ENDBRANCH   3   4
ENDBRANCH   2   3
BRANCH   2  14
HETATM   14  C   UNL     1     -10.528   9.567  66.041  1.00  0.00     0.081 C  
BRANCH  14  15
HETATM   15  C   UNL     1     -10.251  11.038  66.174  1.00  0.00    -0.298 C  
HETATM   16  C   UNL     1     -10.746  11.962  65.333  1.00  0.00    -0.330 C  
BRANCH  16  17
HETATM   17  C   UNL     1     -10.581  13.413  65.494  1.00  0.00    -0.294 A  
HETATM   18  C   UNL     1      -9.803  13.982  66.509  1.00  0.00    -0.298 A  
HETATM   19  C   UNL     1     -11.083  15.651  64.682  1.00  0.00    -0.387 A  
HETATM   20  C   UNL     1     -11.206  14.264  64.571  1.00  0.00    -0.331 A  
HETATM   21  C   UNL     1     -10.326  16.203  65.710  1.00  0.00    -0.398 A  
HETATM   22  C   UNL     1      -9.681  15.369  66.621  1.00  0.00    -0.269 A  
ENDBRANCH  16  17
ENDBRANCH  14  15
ENDBRANCH   2  14
TORSDOF 5
ENDMDL
MODEL      185
REMARK 921   NORMALIZED FREE ENERGY PREDICTED BY IDOCK:   -3.82 KCAL/MOL
REMARK 922        TOTAL FREE ENERGY PREDICTED BY IDOCK:   -6.24 KCAL/MOL
REMARK 923 INTER-LIGAND FREE ENERGY PREDICTED BY IDOCK:   -5.73 KCAL/MOL
REMARK 924 INTRA-LIGAND FREE ENERGY PREDICTED BY IDOCK:   -0.51 KCAL/MOL
REMARK 927      BINDING AFFINITY PREDICTED BY RF-SCORE:    0.00 PKD
ROOT
HETATM    1  C   UNL     1      -9.213   8.402  66.485  1.00  0.00    -0.189 C  
HETATM    2  N   UNL     1      -9.362   8.437  67.943  1.00  0.00    -0.135 NA 
ENDROOT
BRANCH   2   3
HETATM    3  C   UNL     1     -10.545   7.666  68.384  1.00  0.00    -0.122 C  
BRANCH   3   4
HETATM    4  C   UNL     1     -10.241   6.591  69.420  1.00  0.00    -0.214 A  
HETATM    5  C   UNL     1      -9.855   5.265  69.065  1.00  0.00    -0.235 A  
HETATM    6  C   UNL     1     -10.378   6.939  70.777  1.00  0.00    -0.223 A  
HETATM    7  C   UNL     1      -9.663   4.827  67.732  1.00  0.00    -0.202 A  
HETATM    8  C   UNL     1      -9.353   3.500  67.428  1.00  0.00    -0.246 A  
HETATM    9  C   UNL     1     -10.169   5.997  71.776  1.00  0.00    -0.242 A  
HETATM   10  C   UNL     1      -9.207   2.574  68.451  1.00  0.00    -0.253 A  
HETATM   11  C   UNL     1      -9.823   4.692  71.438  1.00  0.00    -0.264 A  
HETATM   12  C   UNL     1      -9.671   4.311  70.097  1.00  0.00    -0.282 A  
HETATM   13  C   UNL     1      -9.350   2.981  69.777  1.00  0.00    -0.215 A  
ENDBRANCH   3   4
ENDBRANCH   2   3
BRANCH   2  14
HETATM   14  C   UNL     1      -9.413   9.832  68.400  1.00  0.00    -0.140 C  
BRANCH  14  15
HETATM   15  C   UNL     1      -9.962  10.758  67.352  1.00  0.00    -0.214 C  
HETATM   16  C   UNL     1     -10.456  11.977  67.628  1.00  0.00    -0.226 C  
BRANCH  16  17
HETATM   17  C   UNL     1     -10.905  12.946  66.618  1.00  0.00    -0.288 A  
HETATM   18  C   UNL     1     -12.241  13.060  66.215  1.00  0.00    -0.390 A  
HETATM   19  C   UNL     1     -10.331  14.749  65.089  1.00  0.00    -0.439 A  
HETATM   20  C   UNL     1      -9.957  13.812  66.056  1.00  0.00    -0.319 A  
HETATM   21  C   UNL     1     -11.659  14.836  64.680  1.00  0.00    -0.401 A  
HETATM   22  C   UNL     1     -12.615  13.996  65.247  1.00  0.00    -0.495 A  
ENDBRANCH  16  17
ENDBRANCH  14  15
ENDBRANCH   2  14
TORSDOF 5
ENDMDL
MODEL      186
REMARK 921   NORMALIZED FREE ENERGY PREDICTED BY IDOCK:   -3.82 KCAL/MOL
REMARK 922        TOTAL FREE ENERGY PREDICTED BY IDOCK:   -6.24 KCAL/MOL
REMARK 923 INTER-LIGAND FREE ENERGY PREDICTED BY IDOCK:   -5.39 KCAL/MOL
REMARK 924 INTRA-LIGAND FREE ENERGY PREDICTED BY IDOCK:   -0.85 KCAL/MOL
REMARK 927      BINDING AFFINITY PREDICTED BY RF-SCORE:    0.00 PKD
ROOT
HETATM    1  C   UNL     1      -6.769  11.031  66.692  1.00  0.00    -0.134 C  
HETATM    2  N   UNL     1      -7.949  11.810  67.080  1.00  0.00    -0.161 NA 
ENDROOT
BRANCH   2   3
HETATM    3  C   UNL     1      -7.844  12.294  68.474  1.00  0.00    -0.111 C  
BRANCH   3   4
HETATM    4  C   UNL     1      -7.685  13.803  68.603  1.00  0.00    -0.120 A  
HETATM    5  C   UNL     1      -8.790  14.703  68.543  1.00  0.00    -0.182 A  
HETATM    6  C   UNL     1      -6.380  14.308  68.761  1.00  0.00    -0.087 A  
HETATM    7  C   UNL     1     -10.138  14.292  68.414  1.00  0.00    -0.243 A  
HETATM    8  C   UNL     1     -11.182  15.211  68.288  1.00  0.00    -0.315 A  
HETATM    9  C   UNL     1      -6.152  15.676  68.832  1.00  0.00    -0.108 A  
HETATM   10  C   UNL     1     -10.909  16.571  68.308  1.00  0.00    -0.352 A  
HETATM   11  C   UNL     1      -7.221  16.563  68.743  1.00  0.00    -0.197 A  
HETATM   12  C   UNL     1      -8.535  16.097  68.591  1.00  0.00    -0.216 A  
HETATM   13  C   UNL     1      -9.596  17.010  68.474  1.00  0.00    -0.273 A  
ENDBRANCH   3   4
ENDBRANCH   2   3
BRANCH   2  14
HETATM   14  C   UNL     1      -9.161  11.007  66.867  1.00  0.00    -0.155 C  
BRANCH  14  15
HETATM   15  C   UNL     1      -9.666  10.384  68.138  1.00  0.00    -0.165 C  
HETATM   16  C   UNL     1     -10.836  10.716  68.709  1.00  0.00    -0.269 C  
BRANCH  16  17
HETATM   17  C   UNL     1     -11.406  10.055  69.893  1.00  0.00    -0.306 A  
HETATM   18  C   UNL     1     -12.568  10.505  70.529  1.00  0.00    -0.423 A  
HETATM   19  C   UNL     1     -11.271   8.242  71.510  1.00  0.00    -0.316 A  
HETATM   20  C   UNL     1     -10.772   8.905  70.386  1.00  0.00    -0.261 A  
HETATM   21  C   UNL     1     -12.414   8.714  72.147  1.00  0.00    -0.453 A  
HETATM   22  C   UNL     1     -13.066   9.843  71.654  1.00  0.00    -0.538 A  
ENDBRANCH  16  17
ENDBRANCH  14  15
ENDBRANCH   2  14
TORSDOF 5
ENDMDL
MODEL      187
REMARK 921   NORMALIZED FREE ENERGY PREDICTED BY IDOCK:   -3.81 KCAL/MOL
REMARK 922        TOTAL FREE ENERGY PREDICTED BY IDOCK:   -6.24 KCAL/MOL
REMARK 923 INTER-LIGAND FREE ENERGY PREDICTED BY IDOCK:   -5.58 KCAL/MOL
REMARK 924 INTRA-LIGAND FREE ENERGY PREDICTED BY IDOCK:   -0.65 KCAL/MOL
REMARK 927      BINDING AFFINITY PREDICTED BY RF-SCORE:    0.00 PKD
ROOT
HETATM    1  C   UNL     1      -6.115   9.595  63.114  1.00  0.00    -0.105 C  
HETATM    2  N   UNL     1      -7.202   9.689  64.092  1.00  0.00    -0.117 NA 
ENDROOT
BRANCH   2   3
HETATM    3  C   UNL     1      -6.905   8.901  65.309  1.00  0.00    -0.072 C  
BRANCH   3   4
HETATM    4  C   UNL     1      -7.498   7.498  65.307  1.00  0.00    -0.084 A  
HETATM    5  C   UNL     1      -8.687   7.162  66.021  1.00  0.00    -0.162 A  
HETATM    6  C   UNL     1      -6.814   6.503  64.583  1.00  0.00    -0.046 A  
HETATM    7  C   UNL     1      -9.459   8.095  66.753  1.00  0.00    -0.256 A  
HETATM    8  C   UNL     1     -10.577   7.708  67.496  1.00  0.00    -0.323 A  
HETATM    9  C   UNL     1      -7.266   5.190  64.578  1.00  0.00    -0.058 A  
HETATM   10  C   UNL     1     -10.967   6.377  67.511  1.00  0.00    -0.454 A  
HETATM   11  C   UNL     1      -8.407   4.847  65.298  1.00  0.00    -0.131 A  
HETATM   12  C   UNL     1      -9.118   5.812  66.025  1.00  0.00    -0.163 A  
HETATM   13  C   UNL     1     -10.250   5.438  66.769  1.00  0.00    -0.282 A  
ENDBRANCH   3   4
ENDBRANCH   2   3
BRANCH   2  14
HETATM   14  C   UNL     1      -8.466   9.277  63.466  1.00  0.00    -0.197 C  
BRANCH  14  15
HETATM   15  C   UNL     1      -9.610  10.175  63.841  1.00  0.00    -0.302 C  
HETATM   16  C   UNL     1      -9.503  11.178  64.729  1.00  0.00    -0.250 C  
BRANCH  16  17
HETATM   17  C   UNL     1     -10.572  12.138  65.040  1.00  0.00    -0.330 A  
HETATM   18  C   UNL     1     -11.096  12.301  66.328  1.00  0.00    -0.342 A  
HETATM   19  C   UNL     1     -12.086  13.870  64.249  1.00  0.00    -0.477 A  
HETATM   20  C   UNL     1     -11.067  12.945  64.006  1.00  0.00    -0.455 A  
HETATM   21  C   UNL     1     -12.614  14.006  65.529  1.00  0.00    -0.543 A  
HETATM   22  C   UNL     1     -12.115  13.225  66.570  1.00  0.00    -0.435 A  
ENDBRANCH  16  17
ENDBRANCH  14  15
ENDBRANCH   2  14
TORSDOF 5
ENDMDL
MODEL      188
REMARK 921   NORMALIZED FREE ENERGY PREDICTED BY IDOCK:   -3.80 KCAL/MOL
REMARK 922        TOTAL FREE ENERGY PREDICTED BY IDOCK:   -6.22 KCAL/MOL
REMARK 923 INTER-LIGAND FREE ENERGY PREDICTED BY IDOCK:   -5.30 KCAL/MOL
REMARK 924 INTRA-LIGAND FREE ENERGY PREDICTED BY IDOCK:   -0.92 KCAL/MOL
REMARK 927      BINDING AFFINITY PREDICTED BY RF-SCORE:    0.00 PKD
ROOT
HETATM    1  C   UNL     1      -9.851  11.379  63.068  1.00  0.00    -0.347 C  
HETATM    2  N   UNL     1      -9.917  11.458  64.530  1.00  0.00    -0.256 NA 
ENDROOT
BRANCH   2   3
HETATM    3  C   UNL     1      -9.804  10.119  65.150  1.00  0.00    -0.325 C  
BRANCH   3   4
HETATM    4  C   UNL     1      -8.801  10.042  66.293  1.00  0.00    -0.160 A  
HETATM    5  C   UNL     1      -9.183   9.756  67.637  1.00  0.00    -0.143 A  
HETATM    6  C   UNL     1      -7.448  10.290  65.989  1.00  0.00    -0.128 A  
HETATM    7  C   UNL     1     -10.509   9.465  68.037  1.00  0.00    -0.278 A  
HETATM    8  C   UNL     1     -10.849   9.261  69.376  1.00  0.00    -0.184 A  
HETATM    9  C   UNL     1      -6.484  10.288  66.988  1.00  0.00    -0.073 A  
HETATM   10  C   UNL     1      -9.867   9.322  70.354  1.00  0.00    -0.290 A  
HETATM   11  C   UNL     1      -6.853  10.042  68.308  1.00  0.00    -0.063 A  
HETATM   12  C   UNL     1      -8.188   9.784  68.647  1.00  0.00    -0.106 A  
HETATM   13  C   UNL     1      -8.544   9.567  69.989  1.00  0.00    -0.234 A  
ENDBRANCH   3   4
ENDBRANCH   2   3
BRANCH   2  14
HETATM   14  C   UNL     1     -11.151  12.147  64.931  1.00  0.00    -0.319 C  
BRANCH  14  15
HETATM   15  C   UNL     1     -10.945  13.049  66.115  1.00  0.00    -0.300 C  
HETATM   16  C   UNL     1     -11.171  14.373  66.085  1.00  0.00    -0.336 C  
BRANCH  16  17
HETATM   17  C   UNL     1     -11.078  15.264  67.251  1.00  0.00    -0.325 A  
HETATM   18  C   UNL     1     -10.394  16.484  67.222  1.00  0.00    -0.296 A  
HETATM   19  C   UNL     1     -11.669  15.696  69.571  1.00  0.00    -0.382 A  
HETATM   20  C   UNL     1     -11.730  14.887  68.434  1.00  0.00    -0.336 A  
HETATM   21  C   UNL     1     -10.965  16.896  69.535  1.00  0.00    -0.053 A  
HETATM   22  C   UNL     1     -10.331  17.293  68.360  1.00  0.00    -0.366 A  
ENDBRANCH  16  17
ENDBRANCH  14  15
ENDBRANCH   2  14
TORSDOF 5
ENDMDL
MODEL      189
REMARK 921   NORMALIZED FREE ENERGY PREDICTED BY IDOCK:   -3.79 KCAL/MOL
REMARK 922        TOTAL FREE ENERGY PREDICTED BY IDOCK:   -6.21 KCAL/MOL
REMARK 923 INTER-LIGAND FREE ENERGY PREDICTED BY IDOCK:   -6.25 KCAL/MOL
REMARK 924 INTRA-LIGAND FREE ENERGY PREDICTED BY IDOCK:    0.05 KCAL/MOL
REMARK 927      BINDING AFFINITY PREDICTED BY RF-SCORE:    0.00 PKD
ROOT
HETATM    1  C   UNL     1     -12.092  10.568  69.136  1.00  0.00     0.013 C  
HETATM    2  N   UNL     1     -10.779  10.742  68.507  1.00  0.00    -0.195 NA 
ENDROOT
BRANCH   2   3
HETATM    3  C   UNL     1      -9.707  10.120  69.314  1.00  0.00    -0.224 C  
BRANCH   3   4
HETATM    4  C   UNL     1     -10.055   8.743  69.863  1.00  0.00    -0.197 A  
HETATM    5  C   UNL     1     -10.024   7.563  69.063  1.00  0.00    -0.175 A  
HETATM    6  C   UNL     1     -10.444   8.660  71.214  1.00  0.00    -0.311 A  
HETATM    7  C   UNL     1      -9.622   7.539  67.706  1.00  0.00    -0.166 A  
HETATM    8  C   UNL     1      -9.675   6.372  66.940  1.00  0.00    -0.190 A  
HETATM    9  C   UNL     1     -10.826   7.446  71.770  1.00  0.00    -0.253 A  
HETATM   10  C   UNL     1     -10.115   5.189  67.515  1.00  0.00    -0.213 A  
HETATM   11  C   UNL     1     -10.830   6.295  70.987  1.00  0.00    -0.326 A  
HETATM   12  C   UNL     1     -10.443   6.338  69.640  1.00  0.00    -0.295 A  
HETATM   13  C   UNL     1     -10.482   5.170  68.860  1.00  0.00    -0.131 A  
ENDBRANCH   3   4
ENDBRANCH   2   3
BRANCH   2  14
HETATM   14  C   UNL     1     -10.531  12.170  68.270  1.00  0.00    -0.213 C  
BRANCH  14  15
HETATM   15  C   UNL     1     -10.800  13.008  69.488  1.00  0.00     0.139 C  
HETATM   16  C   UNL     1     -11.946  13.680  69.685  1.00  0.00    -0.402 C  
BRANCH  16  17
HETATM   17  C   UNL     1     -12.281  14.423  70.909  1.00  0.00    -0.413 A  
HETATM   18  C   UNL     1     -11.423  15.367  71.484  1.00  0.00    -0.478 A  
HETATM   19  C   UNL     1     -13.894  14.872  72.674  1.00  0.00    -0.516 A  
HETATM   20  C   UNL     1     -13.529  14.195  71.508  1.00  0.00    -0.419 A  
HETATM   21  C   UNL     1     -13.021  15.791  73.249  1.00  0.00    -0.675 A  
HETATM   22  C   UNL     1     -11.788  16.043  72.652  1.00  0.00    -0.611 A  
ENDBRANCH  16  17
ENDBRANCH  14  15
ENDBRANCH   2  14
TORSDOF 5
ENDMDL
MODEL      190
REMARK 921   NORMALIZED FREE ENERGY PREDICTED BY IDOCK:   -3.79 KCAL/MOL
REMARK 922        TOTAL FREE ENERGY PREDICTED BY IDOCK:   -6.20 KCAL/MOL
REMARK 923 INTER-LIGAND FREE ENERGY PREDICTED BY IDOCK:   -5.66 KCAL/MOL
REMARK 924 INTRA-LIGAND FREE ENERGY PREDICTED BY IDOCK:   -0.54 KCAL/MOL
REMARK 927      BINDING AFFINITY PREDICTED BY RF-SCORE:    0.00 PKD
ROOT
HETATM    1  C   UNL     1      -7.876  10.786  65.669  1.00  0.00    -0.076 C  
HETATM    2  N   UNL     1      -9.321  10.981  65.823  1.00  0.00    -0.204 NA 
ENDROOT
BRANCH   2   3
HETATM    3  C   UNL     1      -9.665  11.406  67.198  1.00  0.00    -0.182 C  
BRANCH   3   4
HETATM    4  C   UNL     1     -10.011  12.883  67.329  1.00  0.00    -0.224 A  
HETATM    5  C   UNL     1     -10.848  13.390  68.367  1.00  0.00    -0.284 A  
HETATM    6  C   UNL     1      -9.491  13.762  66.360  1.00  0.00    -0.259 A  
HETATM    7  C   UNL     1     -11.396  12.594  69.401  1.00  0.00    -0.273 A  
HETATM    8  C   UNL     1     -12.268  13.121  70.356  1.00  0.00    -0.389 A  
HETATM    9  C   UNL     1      -9.806  15.113  66.384  1.00  0.00    -0.300 A  
HETATM   10  C   UNL     1     -12.604  14.466  70.316  1.00  0.00    -0.380 A  
HETATM   11  C   UNL     1     -10.648  15.612  67.374  1.00  0.00    -0.301 A  
HETATM   12  C   UNL     1     -11.180  14.769  68.360  1.00  0.00    -0.298 A  
HETATM   13  C   UNL     1     -12.051  15.287  69.333  1.00  0.00    -0.301 A  
ENDBRANCH   3   4
ENDBRANCH   2   3
BRANCH   2  14
HETATM   14  C   UNL     1     -10.029   9.755  65.433  1.00  0.00    -0.232 C  
BRANCH  14  15
HETATM   15  C   UNL     1     -10.298   8.852  66.604  1.00  0.00    -0.294 C  
HETATM   16  C   UNL     1      -9.712   7.653  66.763  1.00  0.00    -0.290 C  
BRANCH  16  17
HETATM   17  C   UNL     1      -9.874   6.793  67.944  1.00  0.00    -0.146 A  
HETATM   18  C   UNL     1     -10.457   7.239  69.136  1.00  0.00    -0.222 A  
HETATM   19  C   UNL     1      -9.579   4.601  68.958  1.00  0.00    -0.242 A  
HETATM   20  C   UNL     1      -9.451   5.459  67.862  1.00  0.00    -0.137 A  
HETATM   21  C   UNL     1     -10.139   5.065  70.144  1.00  0.00    -0.338 A  
HETATM   22  C   UNL     1     -10.583   6.382  70.232  1.00  0.00    -0.290 A  
ENDBRANCH  16  17
ENDBRANCH  14  15
ENDBRANCH   2  14
TORSDOF 5
ENDMDL
MODEL      191
REMARK 921   NORMALIZED FREE ENERGY PREDICTED BY IDOCK:   -3.76 KCAL/MOL
REMARK 922        TOTAL FREE ENERGY PREDICTED BY IDOCK:   -6.16 KCAL/MOL
REMARK 923 INTER-LIGAND FREE ENERGY PREDICTED BY IDOCK:   -5.79 KCAL/MOL
REMARK 924 INTRA-LIGAND FREE ENERGY PREDICTED BY IDOCK:   -0.37 KCAL/MOL
REMARK 927      BINDING AFFINITY PREDICTED BY RF-SCORE:    0.00 PKD
ROOT
HETATM    1  C   UNL     1      -8.632  10.840  69.104  1.00  0.00    -0.088 C  
HETATM    2  N   UNL     1      -9.377  11.431  67.989  1.00  0.00    -0.165 NA 
ENDROOT
BRANCH   2   3
HETATM    3  C   UNL     1     -10.790  10.990  67.989  1.00  0.00    -0.229 C  
BRANCH   3   4
HETATM    4  C   UNL     1     -11.577  11.411  69.223  1.00  0.00    -0.384 A  
HETATM    5  C   UNL     1     -11.849  12.776  69.536  1.00  0.00    -0.379 A  
HETATM    6  C   UNL     1     -12.024  10.395  70.088  1.00  0.00    -0.357 A  
HETATM    7  C   UNL     1     -11.467  13.866  68.717  1.00  0.00    -0.327 A  
HETATM    8  C   UNL     1     -11.692  15.191  69.098  1.00  0.00    -0.349 A  
HETATM    9  C   UNL     1     -12.701  10.706  71.259  1.00  0.00    -0.537 A  
HETATM   10  C   UNL     1     -12.323  15.464  70.302  1.00  0.00    -0.425 A  
HETATM   11  C   UNL     1     -12.943  12.037  71.589  1.00  0.00    -0.439 A  
HETATM   12  C   UNL     1     -12.519  13.075  70.748  1.00  0.00    -0.384 A  
HETATM   13  C   UNL     1     -12.747  14.413  71.114  1.00  0.00    -0.422 A  
ENDBRANCH   3   4
ENDBRANCH   2   3
BRANCH   2  14
HETATM   14  C   UNL     1      -8.703  11.115  66.722  1.00  0.00    -0.157 C  
BRANCH  14  15
HETATM   15  C   UNL     1      -9.039   9.738  66.223  1.00  0.00    -0.192 C  
HETATM   16  C   UNL     1      -8.202   8.692  66.320  1.00  0.00    -0.116 C  
BRANCH  16  17
HETATM   17  C   UNL     1      -8.538   7.313  65.936  1.00  0.00    -0.159 A  
HETATM   18  C   UNL     1      -8.142   6.744  64.720  1.00  0.00    -0.098 A  
HETATM   19  C   UNL     1      -9.611   5.210  66.524  1.00  0.00    -0.166 A  
HETATM   20  C   UNL     1      -9.262   6.525  66.842  1.00  0.00    -0.153 A  
HETATM   21  C   UNL     1      -9.231   4.665  65.302  1.00  0.00    -0.156 A  
HETATM   22  C   UNL     1      -8.492   5.429  64.402  1.00  0.00    -0.106 A  
ENDBRANCH  16  17
ENDBRANCH  14  15
ENDBRANCH   2  14
TORSDOF 5
ENDMDL
MODEL      192
REMARK 921   NORMALIZED FREE ENERGY PREDICTED BY IDOCK:   -3.73 KCAL/MOL
REMARK 922        TOTAL FREE ENERGY PREDICTED BY IDOCK:   -6.12 KCAL/MOL
REMARK 923 INTER-LIGAND FREE ENERGY PREDICTED BY IDOCK:   -5.72 KCAL/MOL
REMARK 924 INTRA-LIGAND FREE ENERGY PREDICTED BY IDOCK:   -0.40 KCAL/MOL
REMARK 927      BINDING AFFINITY PREDICTED BY RF-SCORE:    0.00 PKD
ROOT
HETATM    1  C   UNL     1      -7.625  14.811  69.020  1.00  0.00    -0.141 C  
HETATM    2  N   UNL     1      -8.725  15.377  68.233  1.00  0.00    -0.160 NA 
ENDROOT
BRANCH   2   3
HETATM    3  C   UNL     1      -9.404  16.471  68.962  1.00  0.00    -0.239 C  
BRANCH   3   4
HETATM    4  C   UNL     1      -9.481  17.783  68.193  1.00  0.00    -0.282 A  
HETATM    5  C   UNL     1      -8.364  18.658  68.048  1.00  0.00    -0.299 A  
HETATM    6  C   UNL     1     -10.723  18.136  67.631  1.00  0.00    -0.364 A  
HETATM    7  C   UNL     1      -7.071  18.380  68.551  1.00  0.00    -0.285 A  
HETATM    8  C   UNL     1      -6.024  19.299  68.447  1.00  0.00    -0.238 A  
HETATM    9  C   UNL     1     -10.882  19.342  66.961  1.00  0.00    -0.515 A  
HETATM   10  C   UNL     1      -6.236  20.517  67.819  1.00  0.00    -0.308 A  
HETATM   11  C   UNL     1      -9.806  20.217  66.842  1.00  0.00    -0.597 A  
HETATM   12  C   UNL     1      -8.553  19.897  67.383  1.00  0.00    -0.392 A  
HETATM   13  C   UNL     1      -7.488  20.807  67.278  1.00  0.00    -0.381 A  
ENDBRANCH   3   4
ENDBRANCH   2   3
BRANCH   2  14
HETATM   14  C   UNL     1      -9.658  14.309  67.850  1.00  0.00    -0.221 C  
BRANCH  14  15
HETATM   15  C   UNL     1      -9.107  12.939  68.132  1.00  0.00    -0.207 C  
HETATM   16  C   UNL     1      -9.865  11.831  68.170  1.00  0.00    -0.190 C  
BRANCH  16  17
HETATM   17  C   UNL     1      -9.344  10.467  68.340  1.00  0.00    -0.150 A  
HETATM   18  C   UNL     1      -9.275   9.542  67.291  1.00  0.00    -0.154 A  
HETATM   19  C   UNL     1      -8.366   8.800  69.819  1.00  0.00    -0.127 A  
HETATM   20  C   UNL     1      -8.868  10.086  69.603  1.00  0.00    -0.217 A  
HETATM   21  C   UNL     1      -8.325   7.884  68.772  1.00  0.00    -0.128 A  
HETATM   22  C   UNL     1      -8.775   8.256  67.507  1.00  0.00    -0.129 A  
ENDBRANCH  16  17
ENDBRANCH  14  15
ENDBRANCH   2  14
TORSDOF 5
ENDMDL
MODEL      193
REMARK 921   NORMALIZED FREE ENERGY PREDICTED BY IDOCK:   -3.72 KCAL/MOL
REMARK 922        TOTAL FREE ENERGY PREDICTED BY IDOCK:   -6.12 KCAL/MOL
REMARK 923 INTER-LIGAND FREE ENERGY PREDICTED BY IDOCK:   -5.60 KCAL/MOL
REMARK 924 INTRA-LIGAND FREE ENERGY PREDICTED BY IDOCK:   -0.52 KCAL/MOL
REMARK 927      BINDING AFFINITY PREDICTED BY RF-SCORE:    0.00 PKD
ROOT
HETATM    1  C   UNL     1      -9.331   9.141  70.544  1.00  0.00    -0.240 C  
HETATM    2  N   UNL     1     -10.578   8.416  70.808  1.00  0.00    -0.203 NA 
ENDROOT
BRANCH   2   3
HETATM    3  C   UNL     1     -10.861   7.423  69.749  1.00  0.00    -0.234 C  
BRANCH   3   4
HETATM    4  C   UNL     1     -10.106   7.663  68.448  1.00  0.00    -0.208 A  
HETATM    5  C   UNL     1      -8.894   6.985  68.124  1.00  0.00    -0.129 A  
HETATM    6  C   UNL     1     -10.633   8.616  67.556  1.00  0.00    -0.292 A  
HETATM    7  C   UNL     1      -8.300   5.993  68.940  1.00  0.00    -0.107 A  
HETATM    8  C   UNL     1      -7.075   5.406  68.617  1.00  0.00    -0.065 A  
HETATM    9  C   UNL     1      -9.971   8.926  66.375  1.00  0.00    -0.354 A  
HETATM   10  C   UNL     1      -6.415   5.781  67.456  1.00  0.00    -0.047 A  
HETATM   11  C   UNL     1      -8.771   8.292  66.066  1.00  0.00    -0.181 A  
HETATM   12  C   UNL     1      -8.219   7.334  66.927  1.00  0.00    -0.117 A  
HETATM   13  C   UNL     1      -6.992   6.728  66.610  1.00  0.00    -0.066 A  
ENDBRANCH   3   4
ENDBRANCH   2   3
BRANCH   2  14
HETATM   14  C   UNL     1     -11.680   9.374  70.973  1.00  0.00    -0.323 C  
BRANCH  14  15
HETATM   15  C   UNL     1     -11.388  10.699  70.326  1.00  0.00    -0.401 C  
HETATM   16  C   UNL     1     -12.098  11.191  69.297  1.00  0.00    -0.377 C  
BRANCH  16  17
HETATM   17  C   UNL     1     -11.905  12.525  68.709  1.00  0.00    -0.347 A  
HETATM   18  C   UNL     1     -11.815  13.689  69.480  1.00  0.00    -0.394 A  
HETATM   19  C   UNL     1     -11.595  13.874  66.709  1.00  0.00    -0.398 A  
HETATM   20  C   UNL     1     -11.776  12.629  67.317  1.00  0.00    -0.435 A  
HETATM   21  C   UNL     1     -11.531  15.026  67.486  1.00  0.00    -0.339 A  
HETATM   22  C   UNL     1     -11.636  14.934  68.872  1.00  0.00    -0.339 A  
ENDBRANCH  16  17
ENDBRANCH  14  15
ENDBRANCH   2  14
TORSDOF 5
ENDMDL
MODEL      194
REMARK 921   NORMALIZED FREE ENERGY PREDICTED BY IDOCK:   -3.71 KCAL/MOL
REMARK 922        TOTAL FREE ENERGY PREDICTED BY IDOCK:   -6.10 KCAL/MOL
REMARK 923 INTER-LIGAND FREE ENERGY PREDICTED BY IDOCK:   -5.67 KCAL/MOL
REMARK 924 INTRA-LIGAND FREE ENERGY PREDICTED BY IDOCK:   -0.44 KCAL/MOL
REMARK 927      BINDING AFFINITY PREDICTED BY RF-SCORE:    0.00 PKD
ROOT
HETATM    1  C   UNL     1     -10.962   8.709  70.116  1.00  0.00    -0.226 C  
HETATM    2  N   UNL     1     -10.596   8.815  68.701  1.00  0.00    -0.181 NA 
ENDROOT
BRANCH   2   3
HETATM    3  C   UNL     1      -9.174   8.471  68.482  1.00  0.00    -0.135 C  
BRANCH   3   4
HETATM    4  C   UNL     1      -8.955   7.240  67.612  1.00  0.00    -0.126 A  
HETATM    5  C   UNL     1      -8.546   7.322  66.248  1.00  0.00    -0.147 A  
HETATM    6  C   UNL     1      -9.197   5.981  68.193  1.00  0.00    -0.116 A  
HETATM    7  C   UNL     1      -8.253   8.537  65.583  1.00  0.00    -0.130 A  
HETATM    8  C   UNL     1      -7.924   8.575  64.226  1.00  0.00    -0.149 A  
HETATM    9  C   UNL     1      -9.069   4.817  67.447  1.00  0.00    -0.126 A  
HETATM   10  C   UNL     1      -7.860   7.396  63.498  1.00  0.00    -0.111 A  
HETATM   11  C   UNL     1      -8.701   4.890  66.106  1.00  0.00    -0.117 A  
HETATM   12  C   UNL     1      -8.446   6.126  65.494  1.00  0.00    -0.149 A  
HETATM   13  C   UNL     1      -8.105   6.179  64.133  1.00  0.00    -0.081 A  
ENDBRANCH   3   4
ENDBRANCH   2   3
BRANCH   2  14
HETATM   14  C   UNL     1     -10.917  10.162  68.209  1.00  0.00    -0.248 C  
BRANCH  14  15
HETATM   15  C   UNL     1     -11.758  10.941  69.180  1.00  0.00    -0.397 C  
HETATM   16  C   UNL     1     -11.471  12.195  69.568  1.00  0.00    -0.334 C  
BRANCH  16  17
HETATM   17  C   UNL     1     -12.326  13.020  70.434  1.00  0.00    -0.351 A  
HETATM   18  C   UNL     1     -13.067  12.490  71.497  1.00  0.00    -0.373 A  
HETATM   19  C   UNL     1     -13.176  15.229  70.995  1.00  0.00    -0.546 A  
HETATM   20  C   UNL     1     -12.376  14.402  70.202  1.00  0.00    -0.406 A  
HETATM   21  C   UNL     1     -13.926  14.686  72.033  1.00  0.00    -0.581 A  
HETATM   22  C   UNL     1     -13.868  13.318  72.288  1.00  0.00    -0.637 A  
ENDBRANCH  16  17
ENDBRANCH  14  15
ENDBRANCH   2  14
TORSDOF 5
ENDMDL
MODEL      195
REMARK 921   NORMALIZED FREE ENERGY PREDICTED BY IDOCK:   -3.69 KCAL/MOL
REMARK 922        TOTAL FREE ENERGY PREDICTED BY IDOCK:   -6.07 KCAL/MOL
REMARK 923 INTER-LIGAND FREE ENERGY PREDICTED BY IDOCK:   -5.70 KCAL/MOL
REMARK 924 INTRA-LIGAND FREE ENERGY PREDICTED BY IDOCK:   -0.37 KCAL/MOL
REMARK 927      BINDING AFFINITY PREDICTED BY RF-SCORE:    0.00 PKD
ROOT
HETATM    1  C   UNL     1      -9.996   5.693  72.762  1.00  0.00    -0.173 C  
HETATM    2  N   UNL     1     -10.129   6.806  71.818  1.00  0.00    -0.183 NA 
ENDROOT
BRANCH   2   3
HETATM    3  C   UNL     1     -10.473   8.067  72.512  1.00  0.00    -0.316 C  
BRANCH   3   4
HETATM    4  C   UNL     1     -11.160   9.100  71.629  1.00  0.00    -0.445 A  
HETATM    5  C   UNL     1     -10.479   9.803  70.591  1.00  0.00    -0.358 A  
HETATM    6  C   UNL     1     -12.518   9.374  71.882  1.00  0.00    -0.468 A  
HETATM    7  C   UNL     1      -9.125   9.580  70.242  1.00  0.00    -0.296 A  
HETATM    8  C   UNL     1      -8.479  10.341  69.266  1.00  0.00    -0.172 A  
HETATM    9  C   UNL     1     -13.195  10.342  71.153  1.00  0.00    -0.429 A  
HETATM   10  C   UNL     1      -9.174  11.337  68.596  1.00  0.00    -0.163 A  
HETATM   11  C   UNL     1     -12.530  11.055  70.160  1.00  0.00    -0.344 A  
HETATM   12  C   UNL     1     -11.180  10.805  69.875  1.00  0.00    -0.371 A  
HETATM   13  C   UNL     1     -10.519  11.557  68.889  1.00  0.00    -0.212 A  
ENDBRANCH   3   4
ENDBRANCH   2   3
BRANCH   2  14
HETATM   14  C   UNL     1     -11.115   6.461  70.784  1.00  0.00    -0.307 C  
BRANCH  14  15
HETATM   15  C   UNL     1     -10.718   5.243  69.999  1.00  0.00    -0.208 C  
HETATM   16  C   UNL     1     -10.249   5.295  68.741  1.00  0.00    -0.231 C  
BRANCH  16  17
HETATM   17  C   UNL     1      -9.756   4.135  67.983  1.00  0.00    -0.155 A  
HETATM   18  C   UNL     1      -9.661   4.124  66.587  1.00  0.00    -0.233 A  
HETATM   19  C   UNL     1      -8.862   1.873  68.022  1.00  0.00    -0.148 A  
HETATM   20  C   UNL     1      -9.335   3.003  68.694  1.00  0.00    -0.237 A  
HETATM   21  C   UNL     1      -8.795   1.867  66.632  1.00  0.00    -0.133 A  
HETATM   22  C   UNL     1      -9.189   2.994  65.914  1.00  0.00    -0.122 A  
ENDBRANCH  16  17
ENDBRANCH  14  15
ENDBRANCH   2  14
TORSDOF 5
ENDMDL
MODEL      196
REMARK 921   NORMALIZED FREE ENERGY PREDICTED BY IDOCK:   -3.64 KCAL/MOL
REMARK 922        TOTAL FREE ENERGY PREDICTED BY IDOCK:   -6.01 KCAL/MOL
REMARK 923 INTER-LIGAND FREE ENERGY PREDICTED BY IDOCK:   -5.45 KCAL/MOL
REMARK 924 INTRA-LIGAND FREE ENERGY PREDICTED BY IDOCK:   -0.56 KCAL/MOL
REMARK 927      BINDING AFFINITY PREDICTED BY RF-SCORE:    0.00 PKD
ROOT
HETATM    1  C   UNL     1     -11.964  12.401  70.219  1.00  0.00    -0.289 C  
HETATM    2  N   UNL     1     -11.420  12.538  68.864  1.00  0.00    -0.285 NA 
ENDROOT
BRANCH   2   3
HETATM    3  C   UNL     1     -12.490  12.794  67.875  1.00  0.00     0.674 C  
BRANCH   3   4
HETATM    4  C   UNL     1     -12.071  13.694  66.720  1.00  0.00    -0.445 A  
HETATM    5  C   UNL     1     -11.339  14.903  66.910  1.00  0.00    -0.338 A  
HETATM    6  C   UNL     1     -12.457  13.309  65.422  1.00  0.00    -0.543 A  
HETATM    7  C   UNL     1     -10.883  15.361  68.169  1.00  0.00    -0.285 A  
HETATM    8  C   UNL     1     -10.230  16.587  68.318  1.00  0.00    -0.268 A  
HETATM    9  C   UNL     1     -12.157  14.106  64.326  1.00  0.00    -0.471 A  
HETATM   10  C   UNL     1      -9.996  17.383  67.206  1.00  0.00    -0.302 A  
HETATM   11  C   UNL     1     -11.470  15.304  64.506  1.00  0.00    -0.318 A  
HETATM   12  C   UNL     1     -11.065  15.717  65.782  1.00  0.00    -0.173 A  
HETATM   13  C   UNL     1     -10.398  16.943  65.945  1.00  0.00    -0.327 A  
ENDBRANCH   3   4
ENDBRANCH   2   3
BRANCH   2  14
HETATM   14  C   UNL     1     -10.633  11.344  68.527  1.00  0.00    -0.198 C  
BRANCH  14  15
HETATM   15  C   UNL     1     -10.000  11.441  67.167  1.00  0.00    -0.217 C  
HETATM   16  C   UNL     1      -9.777  10.377  66.378  1.00  0.00    -0.250 C  
BRANCH  16  17
HETATM   17  C   UNL     1      -9.255  10.448  65.005  1.00  0.00    -0.256 A  
HETATM   18  C   UNL     1      -9.879  11.186  63.993  1.00  0.00    -0.349 A  
HETATM   19  C   UNL     1      -7.529   9.804  63.416  1.00  0.00    -0.124 A  
HETATM   20  C   UNL     1      -8.065   9.771  64.706  1.00  0.00    -0.146 A  
HETATM   21  C   UNL     1      -8.173  10.522  62.413  1.00  0.00    -0.227 A  
HETATM   22  C   UNL     1      -9.345  11.218  62.702  1.00  0.00    -0.313 A  
ENDBRANCH  16  17
ENDBRANCH  14  15
ENDBRANCH   2  14
TORSDOF 5
ENDMDL
MODEL      197
REMARK 921   NORMALIZED FREE ENERGY PREDICTED BY IDOCK:   -3.64 KCAL/MOL
REMARK 922        TOTAL FREE ENERGY PREDICTED BY IDOCK:   -6.01 KCAL/MOL
REMARK 923 INTER-LIGAND FREE ENERGY PREDICTED BY IDOCK:   -4.80 KCAL/MOL
REMARK 924 INTRA-LIGAND FREE ENERGY PREDICTED BY IDOCK:   -1.21 KCAL/MOL
REMARK 927      BINDING AFFINITY PREDICTED BY RF-SCORE:    0.00 PKD
ROOT
HETATM    1  C   UNL     1      -6.301   5.087  67.919  1.00  0.00    -0.040 C  
HETATM    2  N   UNL     1      -7.439   5.952  68.246  1.00  0.00    -0.084 NA 
ENDROOT
BRANCH   2   3
HETATM    3  C   UNL     1      -8.381   5.281  69.168  1.00  0.00    -0.091 C  
BRANCH   3   4
HETATM    4  C   UNL     1      -8.382   5.846  70.582  1.00  0.00    -0.124 A  
HETATM    5  C   UNL     1      -9.372   6.761  71.047  1.00  0.00    -0.160 A  
HETATM    6  C   UNL     1      -7.338   5.452  71.440  1.00  0.00    -0.080 A  
HETATM    7  C   UNL     1     -10.474   7.195  70.272  1.00  0.00    -0.232 A  
HETATM    8  C   UNL     1     -11.380   8.147  70.743  1.00  0.00    -0.283 A  
HETATM    9  C   UNL     1      -7.243   5.966  72.727  1.00  0.00    -0.090 A  
HETATM   10  C   UNL     1     -11.222   8.680  72.014  1.00  0.00    -0.434 A  
HETATM   11  C   UNL     1      -8.187   6.884  73.178  1.00  0.00    -0.118 A  
HETATM   12  C   UNL     1      -9.244   7.295  72.354  1.00  0.00    -0.160 A  
HETATM   13  C   UNL     1     -10.169   8.245  72.819  1.00  0.00    -0.325 A  
ENDBRANCH   3   4
ENDBRANCH   2   3
BRANCH   2  14
HETATM   14  C   UNL     1      -8.098   6.389  67.007  1.00  0.00    -0.112 C  
BRANCH  14  15
HETATM   15  C   UNL     1      -8.597   7.803  67.092  1.00  0.00    -0.128 C  
HETATM   16  C   UNL     1      -9.649   8.259  66.393  1.00  0.00    -0.300 C  
BRANCH  16  17
HETATM   17  C   UNL     1     -10.226   9.605  66.530  1.00  0.00    -0.294 A  
HETATM   18  C   UNL     1     -10.228  10.541  65.490  1.00  0.00    -0.325 A  
HETATM   19  C   UNL     1     -11.384  11.221  67.932  1.00  0.00    -0.367 A  
HETATM   20  C   UNL     1     -10.825   9.954  67.749  1.00  0.00    -0.321 A  
HETATM   21  C   UNL     1     -11.358  12.150  66.896  1.00  0.00    -0.402 A  
HETATM   22  C   UNL     1     -10.785  11.809  65.673  1.00  0.00    -0.328 A  
ENDBRANCH  16  17
ENDBRANCH  14  15
ENDBRANCH   2  14
TORSDOF 5
ENDMDL
MODEL      198
REMARK 921   NORMALIZED FREE ENERGY PREDICTED BY IDOCK:   -3.63 KCAL/MOL
REMARK 922        TOTAL FREE ENERGY PREDICTED BY IDOCK:   -6.00 KCAL/MOL
REMARK 923 INTER-LIGAND FREE ENERGY PREDICTED BY IDOCK:   -4.89 KCAL/MOL
REMARK 924 INTRA-LIGAND FREE ENERGY PREDICTED BY IDOCK:   -1.11 KCAL/MOL
REMARK 927      BINDING AFFINITY PREDICTED BY RF-SCORE:    0.00 PKD
ROOT
HETATM    1  C   UNL     1      -6.616   9.182  62.566  1.00  0.00    -0.093 C  
HETATM    2  N   UNL     1      -7.822   9.244  63.398  1.00  0.00    -0.125 NA 
ENDROOT
BRANCH   2   3
HETATM    3  C   UNL     1      -7.905   8.087  64.317  1.00  0.00    -0.137 C  
BRANCH   3   4
HETATM    4  C   UNL     1      -8.225   8.456  65.760  1.00  0.00    -0.131 A  
HETATM    5  C   UNL     1      -9.145   7.715  66.559  1.00  0.00    -0.203 A  
HETATM    6  C   UNL     1      -7.591   9.593  66.297  1.00  0.00    -0.101 A  
HETATM    7  C   UNL     1      -9.809   6.545  66.121  1.00  0.00     0.066 A  
HETATM    8  C   UNL     1     -10.756   5.892  66.913  1.00  0.00    -0.395 A  
HETATM    9  C   UNL     1      -7.874  10.020  67.587  1.00  0.00    -0.095 A  
HETATM   10  C   UNL     1     -11.053   6.381  68.177  1.00  0.00    -0.358 A  
HETATM   11  C   UNL     1      -8.795   9.322  68.363  1.00  0.00    -0.129 A  
HETATM   12  C   UNL     1      -9.440   8.182  67.865  1.00  0.00    -0.162 A  
HETATM   13  C   UNL     1     -10.388   7.509  68.654  1.00  0.00    -0.218 A  
ENDBRANCH   3   4
ENDBRANCH   2   3
BRANCH   2  14
HETATM   14  C   UNL     1      -9.009   9.350  62.539  1.00  0.00    -0.229 C  
BRANCH  14  15
HETATM   15  C   UNL     1      -9.760  10.633  62.757  1.00  0.00    -0.279 C  
HETATM   16  C   UNL     1     -10.301  10.982  63.936  1.00  0.00    -0.436 C  
BRANCH  16  17
HETATM   17  C   UNL     1     -10.951  12.273  64.209  1.00  0.00    -0.392 A  
HETATM   18  C   UNL     1     -12.285  12.537  63.878  1.00  0.00    -0.590 A  
HETATM   19  C   UNL     1     -10.778  14.516  65.134  1.00  0.00    -0.422 A  
HETATM   20  C   UNL     1     -10.208  13.271  64.855  1.00  0.00    -0.313 A  
HETATM   21  C   UNL     1     -12.098  14.774  64.779  1.00  0.00    -0.387 A  
HETATM   22  C   UNL     1     -12.854  13.783  64.155  1.00  0.00     0.243 A  
ENDBRANCH  16  17
ENDBRANCH  14  15
ENDBRANCH   2  14
TORSDOF 5
ENDMDL
MODEL      199
REMARK 921   NORMALIZED FREE ENERGY PREDICTED BY IDOCK:   -3.55 KCAL/MOL
REMARK 922        TOTAL FREE ENERGY PREDICTED BY IDOCK:   -5.89 KCAL/MOL
REMARK 923 INTER-LIGAND FREE ENERGY PREDICTED BY IDOCK:   -5.77 KCAL/MOL
REMARK 924 INTRA-LIGAND FREE ENERGY PREDICTED BY IDOCK:   -0.12 KCAL/MOL
REMARK 927      BINDING AFFINITY PREDICTED BY RF-SCORE:    0.00 PKD
ROOT
HETATM    1  C   UNL     1     -11.277   8.639  70.513  1.00  0.00    -0.241 C  
HETATM    2  N   UNL     1     -11.135   8.745  69.058  1.00  0.00     0.090 NA 
ENDROOT
BRANCH   2   3
HETATM    3  C   UNL     1      -9.945   8.011  68.576  1.00  0.00    -0.192 C  
BRANCH   3   4
HETATM    4  C   UNL     1      -8.946   7.652  69.668  1.00  0.00    -0.140 A  
HETATM    5  C   UNL     1      -8.915   6.371  70.295  1.00  0.00    -0.154 A  
HETATM    6  C   UNL     1      -8.041   8.651  70.076  1.00  0.00    -0.112 A  
HETATM    7  C   UNL     1      -9.763   5.296  69.936  1.00  0.00    -0.260 A  
HETATM    8  C   UNL     1      -9.746   4.081  70.625  1.00  0.00    -0.266 A  
HETATM    9  C   UNL     1      -7.137   8.413  71.102  1.00  0.00    -0.066 A  
HETATM   10  C   UNL     1      -8.866   3.900  71.682  1.00  0.00    -0.142 A  
HETATM   11  C   UNL     1      -7.121   7.177  71.741  1.00  0.00    -0.068 A  
HETATM   12  C   UNL     1      -8.003   6.156  71.358  1.00  0.00    -0.113 A  
HETATM   13  C   UNL     1      -7.991   4.926  72.036  1.00  0.00    -0.110 A  
ENDBRANCH   3   4
ENDBRANCH   2   3
BRANCH   2  14
HETATM   14  C   UNL     1     -11.103  10.162  68.669  1.00  0.00    -0.205 C  
BRANCH  14  15
HETATM   15  C   UNL     1     -11.922  11.026  69.585  1.00  0.00    -0.424 C  
HETATM   16  C   UNL     1     -11.673  12.330  69.789  1.00  0.00    -0.368 C  
BRANCH  16  17
HETATM   17  C   UNL     1     -12.515  13.226  70.596  1.00  0.00    -0.373 A  
HETATM   18  C   UNL     1     -13.234  12.791  71.715  1.00  0.00    -0.471 A  
HETATM   19  C   UNL     1     -13.363  15.475  70.977  1.00  0.00    -0.495 A  
HETATM   20  C   UNL     1     -12.575  14.582  70.245  1.00  0.00    -0.378 A  
HETATM   21  C   UNL     1     -14.091  15.023  72.074  1.00  0.00    -0.633 A  
HETATM   22  C   UNL     1     -14.023  13.682  72.446  1.00  0.00    -0.651 A  
ENDBRANCH  16  17
ENDBRANCH  14  15
ENDBRANCH   2  14
TORSDOF 5
ENDMDL
MODEL      200
REMARK 921   NORMALIZED FREE ENERGY PREDICTED BY IDOCK:   -3.55 KCAL/MOL
REMARK 922        TOTAL FREE ENERGY PREDICTED BY IDOCK:   -5.89 KCAL/MOL
REMARK 923 INTER-LIGAND FREE ENERGY PREDICTED BY IDOCK:   -5.10 KCAL/MOL
REMARK 924 INTRA-LIGAND FREE ENERGY PREDICTED BY IDOCK:   -0.79 KCAL/MOL
REMARK 927      BINDING AFFINITY PREDICTED BY RF-SCORE:    0.00 PKD
ROOT
HETATM    1  C   UNL     1     -13.250  12.902  64.746  1.00  0.00     0.314 C  
HETATM    2  N   UNL     1     -11.811  13.165  64.844  1.00  0.00    -0.340 NA 
ENDROOT
BRANCH   2   3
HETATM    3  C   UNL     1     -11.255  12.661  66.119  1.00  0.00    -0.309 C  
BRANCH   3   4
HETATM    4  C   UNL     1     -10.322  11.467  65.966  1.00  0.00    -0.297 A  
HETATM    5  C   UNL     1      -9.932  10.647  67.066  1.00  0.00    -0.243 A  
HETATM    6  C   UNL     1      -9.817  11.196  64.680  1.00  0.00    -0.330 A  
HETATM    7  C   UNL     1     -10.406  10.820  68.388  1.00  0.00    -0.199 A  
HETATM    8  C   UNL     1      -9.942  10.038  69.448  1.00  0.00    -0.239 A  
HETATM    9  C   UNL     1      -8.920  10.156  64.473  1.00  0.00    -0.253 A  
HETATM   10  C   UNL     1      -9.004   9.044  69.212  1.00  0.00    -0.144 A  
HETATM   11  C   UNL     1      -8.509   9.371  65.547  1.00  0.00    -0.153 A  
HETATM   12  C   UNL     1      -8.995   9.606  66.840  1.00  0.00    -0.151 A  
HETATM   13  C   UNL     1      -8.545   8.821  67.914  1.00  0.00    -0.130 A  
ENDBRANCH   3   4
ENDBRANCH   2   3
BRANCH   2  14
HETATM   14  C   UNL     1     -11.559  14.601  64.663  1.00  0.00    -0.402 C  
BRANCH  14  15
HETATM   15  C   UNL     1     -10.146  14.981  65.005  1.00  0.00    -0.289 C  
HETATM   16  C   UNL     1      -9.824  15.786  66.031  1.00  0.00    -0.366 C  
BRANCH  16  17
HETATM   17  C   UNL     1      -8.451  16.095  66.454  1.00  0.00    -0.369 A  
HETATM   18  C   UNL     1      -7.806  17.294  66.130  1.00  0.00    -0.305 A  
HETATM   19  C   UNL     1      -6.459  15.399  67.667  1.00  0.00    -0.190 A  
HETATM   20  C   UNL     1      -7.768  15.156  67.241  1.00  0.00    -0.241 A  
HETATM   21  C   UNL     1      -5.823  16.586  67.318  1.00  0.00    -0.191 A  
HETATM   22  C   UNL     1      -6.497  17.536  66.554  1.00  0.00    -0.269 A  
ENDBRANCH  16  17
ENDBRANCH  14  15
ENDBRANCH   2  14
TORSDOF 5
ENDMDL
MODEL      201
REMARK 921   NORMALIZED FREE ENERGY PREDICTED BY IDOCK:   -3.54 KCAL/MOL
REMARK 922        TOTAL FREE ENERGY PREDICTED BY IDOCK:   -5.88 KCAL/MOL
REMARK 923 INTER-LIGAND FREE ENERGY PREDICTED BY IDOCK:   -5.75 KCAL/MOL
REMARK 924 INTRA-LIGAND FREE ENERGY PREDICTED BY IDOCK:   -0.14 KCAL/MOL
REMARK 927      BINDING AFFINITY PREDICTED BY RF-SCORE:    0.00 PKD
ROOT
HETATM    1  C   UNL     1      -8.462  10.119  69.479  1.00  0.00    -0.168 C  
HETATM    2  N   UNL     1      -9.544  10.866  68.831  1.00  0.00    -0.195 NA 
ENDROOT
BRANCH   2   3
HETATM    3  C   UNL     1     -10.846  10.184  68.996  1.00  0.00    -0.224 C  
BRANCH   3   4
HETATM    4  C   UNL     1     -10.749   8.668  69.111  1.00  0.00    -0.136 A  
HETATM    5  C   UNL     1     -10.887   7.979  70.352  1.00  0.00    -0.247 A  
HETATM    6  C   UNL     1     -10.486   7.942  67.934  1.00  0.00    -0.261 A  
HETATM    7  C   UNL     1     -11.178   8.615  71.582  1.00  0.00    -0.379 A  
HETATM    8  C   UNL     1     -11.234   7.908  72.785  1.00  0.00    -0.466 A  
HETATM    9  C   UNL     1     -10.332   6.562  67.970  1.00  0.00    -0.226 A  
HETATM   10  C   UNL     1     -11.019   6.538  72.790  1.00  0.00    -0.286 A  
HETATM   11  C   UNL     1     -10.433   5.885  69.182  1.00  0.00    -0.338 A  
HETATM   12  C   UNL     1     -10.699   6.573  70.373  1.00  0.00    -0.306 A  
HETATM   13  C   UNL     1     -10.768   5.874  71.590  1.00  0.00    -0.308 A  
ENDBRANCH   3   4
ENDBRANCH   2   3
BRANCH   2  14
HETATM   14  C   UNL     1      -9.213  11.086  67.417  1.00  0.00    -0.151 C  
BRANCH  14  15
HETATM   15  C   UNL     1      -9.207  12.543  67.050  1.00  0.00    -0.214 C  
HETATM   16  C   UNL     1      -9.492  13.526  67.920  1.00  0.00    -0.215 C  
BRANCH  16  17
HETATM   17  C   UNL     1      -9.395  14.962  67.622  1.00  0.00    -0.191 A  
HETATM   18  C   UNL     1      -8.262  15.543  67.041  1.00  0.00    -0.275 A  
HETATM   19  C   UNL     1     -10.456  17.151  67.645  1.00  0.00    -0.355 A  
HETATM   20  C   UNL     1     -10.499  15.779  67.905  1.00  0.00    -0.270 A  
HETATM   21  C   UNL     1      -9.314  17.719  67.088  1.00  0.00    -0.264 A  
HETATM   22  C   UNL     1      -8.219  16.915  66.781  1.00  0.00    -0.275 A  
ENDBRANCH  16  17
ENDBRANCH  14  15
ENDBRANCH   2  14
TORSDOF 5
ENDMDL
MODEL      202
REMARK 921   NORMALIZED FREE ENERGY PREDICTED BY IDOCK:   -3.54 KCAL/MOL
REMARK 922        TOTAL FREE ENERGY PREDICTED BY IDOCK:   -5.88 KCAL/MOL
REMARK 923 INTER-LIGAND FREE ENERGY PREDICTED BY IDOCK:   -5.90 KCAL/MOL
REMARK 924 INTRA-LIGAND FREE ENERGY PREDICTED BY IDOCK:    0.01 KCAL/MOL
REMARK 927      BINDING AFFINITY PREDICTED BY RF-SCORE:    0.00 PKD
ROOT
HETATM    1  C   UNL     1     -10.514   9.509  69.861  1.00  0.00    -0.240 C  
HETATM    2  N   UNL     1     -10.263   9.787  68.444  1.00  0.00    -0.177 NA 
ENDROOT
BRANCH   2   3
HETATM    3  C   UNL     1      -8.817   9.942  68.172  1.00  0.00    -0.118 C  
BRANCH   3   4
HETATM    4  C   UNL     1      -8.322   9.163  66.960  1.00  0.00    -0.120 A  
HETATM    5  C   UNL     1      -8.742   9.457  65.629  1.00  0.00    -0.179 A  
HETATM    6  C   UNL     1      -7.431   8.098  67.191  1.00  0.00    -0.089 A  
HETATM    7  C   UNL     1      -9.611  10.522  65.292  1.00  0.00    -0.303 A  
HETATM    8  C   UNL     1     -10.053  10.730  63.984  1.00  0.00    -0.410 A  
HETATM    9  C   UNL     1      -6.978   7.310  66.141  1.00  0.00    -0.065 A  
HETATM   10  C   UNL     1      -9.623   9.888  62.969  1.00  0.00     0.041 A  
HETATM   11  C   UNL     1      -7.409   7.570  64.843  1.00  0.00    -0.079 A  
HETATM   12  C   UNL     1      -8.290   8.626  64.573  1.00  0.00    -0.157 A  
HETATM   13  C   UNL     1      -8.736   8.853  63.260  1.00  0.00    -0.050 A  
ENDBRANCH   3   4
ENDBRANCH   2   3
BRANCH   2  14
HETATM   14  C   UNL     1     -11.030  10.970  68.030  1.00  0.00    -0.258 C  
BRANCH  14  15
HETATM   15  C   UNL     1     -11.714  11.642  69.187  1.00  0.00    -0.390 C  
HETATM   16  C   UNL     1     -11.695  12.970  69.387  1.00  0.00    -0.386 C  
BRANCH  16  17
HETATM   17  C   UNL     1     -12.438  13.667  70.447  1.00  0.00    -0.364 A  
HETATM   18  C   UNL     1     -12.638  15.052  70.450  1.00  0.00    -0.399 A  
HETATM   19  C   UNL     1     -13.706  13.520  72.518  1.00  0.00    -0.664 A  
HETATM   20  C   UNL     1     -12.995  12.906  71.484  1.00  0.00    -0.388 A  
HETATM   21  C   UNL     1     -13.878  14.901  72.520  1.00  0.00    -0.564 A  
HETATM   22  C   UNL     1     -13.348  15.667  71.484  1.00  0.00    -0.535 A  
ENDBRANCH  16  17
ENDBRANCH  14  15
ENDBRANCH   2  14
TORSDOF 5
ENDMDL
MODEL      203
REMARK 921   NORMALIZED FREE ENERGY PREDICTED BY IDOCK:   -3.51 KCAL/MOL
REMARK 922        TOTAL FREE ENERGY PREDICTED BY IDOCK:   -5.85 KCAL/MOL
REMARK 923 INTER-LIGAND FREE ENERGY PREDICTED BY IDOCK:   -5.30 KCAL/MOL
REMARK 924 INTRA-LIGAND FREE ENERGY PREDICTED BY IDOCK:   -0.55 KCAL/MOL
REMARK 927      BINDING AFFINITY PREDICTED BY RF-SCORE:    0.00 PKD
ROOT
HETATM    1  C   UNL     1      -6.642  13.977  69.374  1.00  0.00    -0.118 C  
HETATM    2  N   UNL     1      -7.081  14.939  68.359  1.00  0.00    -0.107 NA 
ENDROOT
BRANCH   2   3
HETATM    3  C   UNL     1      -7.093  16.319  68.892  1.00  0.00    -0.182 C  
BRANCH   3   4
HETATM    4  C   UNL     1      -7.157  17.402  67.822  1.00  0.00    -0.180 A  
HETATM    5  C   UNL     1      -8.282  18.265  67.665  1.00  0.00    -0.254 A  
HETATM    6  C   UNL     1      -6.059  17.520  66.949  1.00  0.00    -0.204 A  
HETATM    7  C   UNL     1      -9.419  18.243  68.507  1.00  0.00    -0.346 A  
HETATM    8  C   UNL     1     -10.528  19.059  68.273  1.00  0.00    -0.351 A  
HETATM    9  C   UNL     1      -6.068  18.449  65.917  1.00  0.00    -0.247 A  
HETATM   10  C   UNL     1     -10.524  19.936  67.198  1.00  0.00    -0.566 A  
HETATM   11  C   UNL     1      -7.175  19.274  65.737  1.00  0.00    -0.289 A  
HETATM   12  C   UNL     1      -8.284  19.189  66.590  1.00  0.00    -0.303 A  
HETATM   13  C   UNL     1      -9.403  20.011  66.372  1.00  0.00    -0.481 A  
ENDBRANCH   3   4
ENDBRANCH   2   3
BRANCH   2  14
HETATM   14  C   UNL     1      -8.395  14.540  67.836  1.00  0.00    -0.159 C  
BRANCH  14  15
HETATM   15  C   UNL     1      -8.631  13.060  67.952  1.00  0.00    -0.189 C  
HETATM   16  C   UNL     1      -8.818  12.256  66.892  1.00  0.00    -0.207 C  
BRANCH  16  17
HETATM   17  C   UNL     1      -8.948  10.793  66.964  1.00  0.00    -0.148 A  
HETATM   18  C   UNL     1      -8.026   9.980  67.632  1.00  0.00    -0.105 A  
HETATM   19  C   UNL     1     -10.231   8.805  66.398  1.00  0.00    -0.256 A  
HETATM   20  C   UNL     1     -10.062  10.192  66.362  1.00  0.00    -0.300 A  
HETATM   21  C   UNL     1      -9.294   8.006  67.046  1.00  0.00    -0.197 A  
HETATM   22  C   UNL     1      -8.194   8.593  67.668  1.00  0.00    -0.110 A  
ENDBRANCH  16  17
ENDBRANCH  14  15
ENDBRANCH   2  14
TORSDOF 5
ENDMDL
MODEL      204
REMARK 921   NORMALIZED FREE ENERGY PREDICTED BY IDOCK:   -3.50 KCAL/MOL
REMARK 922        TOTAL FREE ENERGY PREDICTED BY IDOCK:   -5.82 KCAL/MOL
REMARK 923 INTER-LIGAND FREE ENERGY PREDICTED BY IDOCK:   -5.33 KCAL/MOL
REMARK 924 INTRA-LIGAND FREE ENERGY PREDICTED BY IDOCK:   -0.49 KCAL/MOL
REMARK 927      BINDING AFFINITY PREDICTED BY RF-SCORE:    0.00 PKD
ROOT
HETATM    1  C   UNL     1     -12.066   9.937  71.199  1.00  0.00    -0.374 C  
HETATM    2  N   UNL     1     -11.233   8.802  70.790  1.00  0.00    -0.260 NA 
ENDROOT
BRANCH   2   3
HETATM    3  C   UNL     1     -10.170   8.526  71.781  1.00  0.00    -0.282 C  
BRANCH   3   4
HETATM    4  C   UNL     1     -10.062   7.063  72.191  1.00  0.00    -0.198 A  
HETATM    5  C   UNL     1      -9.172   6.148  71.555  1.00  0.00    -0.152 A  
HETATM    6  C   UNL     1     -10.902   6.613  73.227  1.00  0.00    -0.290 A  
HETATM    7  C   UNL     1      -8.270   6.508  70.525  1.00  0.00    -0.118 A  
HETATM    8  C   UNL     1      -7.467   5.564  69.882  1.00  0.00    -0.070 A  
HETATM    9  C   UNL     1     -10.897   5.281  73.619  1.00  0.00    -0.347 A  
HETATM   10  C   UNL     1      -7.529   4.232  70.263  1.00  0.00    -0.046 A  
HETATM   11  C   UNL     1     -10.055   4.374  72.982  1.00  0.00    -0.206 A  
HETATM   12  C   UNL     1      -9.199   4.786  71.950  1.00  0.00    -0.171 A  
HETATM   13  C   UNL     1      -8.379   3.849  71.301  1.00  0.00    -0.086 A  
ENDBRANCH   3   4
ENDBRANCH   2   3
BRANCH   2  14
HETATM   14  C   UNL     1     -10.684   9.051  69.450  1.00  0.00    -0.191 C  
BRANCH  14  15
HETATM   15  C   UNL     1     -10.697  10.510  69.089  1.00  0.00    -0.266 C  
HETATM   16  C   UNL     1     -11.099  10.972  67.893  1.00  0.00    -0.347 C  
BRANCH  16  17
HETATM   17  C   UNL     1     -11.221  12.395  67.544  1.00  0.00    -0.348 A  
HETATM   18  C   UNL     1     -11.234  13.415  68.502  1.00  0.00    -0.316 A  
HETATM   19  C   UNL     1     -11.418  14.084  65.804  1.00  0.00    -0.318 A  
HETATM   20  C   UNL     1     -11.297  12.746  66.188  1.00  0.00    -0.371 A  
HETATM   21  C   UNL     1     -11.453  15.086  66.769  1.00  0.00    -0.252 A  
HETATM   22  C   UNL     1     -11.356  14.753  68.118  1.00  0.00    -0.324 A  
ENDBRANCH  16  17
ENDBRANCH  14  15
ENDBRANCH   2  14
TORSDOF 5
ENDMDL
MODEL      205
REMARK 921   NORMALIZED FREE ENERGY PREDICTED BY IDOCK:   -3.49 KCAL/MOL
REMARK 922        TOTAL FREE ENERGY PREDICTED BY IDOCK:   -5.82 KCAL/MOL
REMARK 923 INTER-LIGAND FREE ENERGY PREDICTED BY IDOCK:   -5.30 KCAL/MOL
REMARK 924 INTRA-LIGAND FREE ENERGY PREDICTED BY IDOCK:   -0.52 KCAL/MOL
REMARK 927      BINDING AFFINITY PREDICTED BY RF-SCORE:    0.00 PKD
ROOT
HETATM    1  C   UNL     1     -11.121  12.306  63.372  1.00  0.00    -0.418 C  
HETATM    2  N   UNL     1     -10.546  11.966  64.677  1.00  0.00    -0.290 NA 
ENDROOT
BRANCH   2   3
HETATM    3  C   UNL     1     -10.254  10.519  64.779  1.00  0.00    -0.303 C  
BRANCH   3   4
HETATM    4  C   UNL     1      -8.907  10.110  64.197  1.00  0.00    -0.243 A  
HETATM    5  C   UNL     1      -7.668  10.394  64.845  1.00  0.00    -0.084 A  
HETATM    6  C   UNL     1      -8.909   9.447  62.955  1.00  0.00    -0.216 A  
HETATM    7  C   UNL     1      -7.563  11.030  66.105  1.00  0.00    -0.084 A  
HETATM    8  C   UNL     1      -6.327  11.352  66.669  1.00  0.00    -0.127 A  
HETATM    9  C   UNL     1      -7.718   9.091  62.338  1.00  0.00    -0.117 A  
HETATM   10  C   UNL     1      -5.157  11.029  65.997  1.00  0.00    -0.131 A  
HETATM   11  C   UNL     1      -6.503   9.392  62.948  1.00  0.00    -0.098 A  
HETATM   12  C   UNL     1      -6.462  10.046  64.187  1.00  0.00    -0.131 A  
HETATM   13  C   UNL     1      -5.225  10.367  64.771  1.00  0.00    -0.134 A  
ENDBRANCH   3   4
ENDBRANCH   2   3
BRANCH   2  14
HETATM   14  C   UNL     1     -11.445  12.421  65.746  1.00  0.00    -0.370 C  
BRANCH  14  15
HETATM   15  C   UNL     1     -11.453  13.917  65.889  1.00  0.00    -0.328 C  
HETATM   16  C   UNL     1     -10.735  14.576  66.814  1.00  0.00    -0.291 C  
BRANCH  16  17
HETATM   17  C   UNL     1     -10.640  16.039  66.914  1.00  0.00    -0.300 A  
HETATM   18  C   UNL     1     -10.704  16.724  68.132  1.00  0.00    -0.361 A  
HETATM   19  C   UNL     1     -10.356  18.172  65.777  1.00  0.00    -0.178 A  
HETATM   20  C   UNL     1     -10.448  16.778  65.737  1.00  0.00    -0.305 A  
HETATM   21  C   UNL     1     -10.444  18.841  66.993  1.00  0.00    -0.474 A  
HETATM   22  C   UNL     1     -10.613  18.118  68.172  1.00  0.00    -0.320 A  
ENDBRANCH  16  17
ENDBRANCH  14  15
ENDBRANCH   2  14
TORSDOF 5
ENDMDL
MODEL      206
REMARK 921   NORMALIZED FREE ENERGY PREDICTED BY IDOCK:   -3.48 KCAL/MOL
REMARK 922        TOTAL FREE ENERGY PREDICTED BY IDOCK:   -5.80 KCAL/MOL
REMARK 923 INTER-LIGAND FREE ENERGY PREDICTED BY IDOCK:   -4.16 KCAL/MOL
REMARK 924 INTRA-LIGAND FREE ENERGY PREDICTED BY IDOCK:   -1.64 KCAL/MOL
REMARK 927      BINDING AFFINITY PREDICTED BY RF-SCORE:    0.00 PKD
ROOT
HETATM    1  C   UNL     1      -9.305   3.387  67.590  1.00  0.00    -0.199 C  
HETATM    2  N   UNL     1      -9.283   4.778  67.128  1.00  0.00    -0.122 NA 
ENDROOT
BRANCH   2   3
HETATM    3  C   UNL     1     -10.617   5.407  67.246  1.00  0.00    -0.176 C  
BRANCH   3   4
HETATM    4  C   UNL     1     -10.726   6.439  68.361  1.00  0.00    -0.349 A  
HETATM    5  C   UNL     1     -10.653   7.844  68.122  1.00  0.00    -0.179 A  
HETATM    6  C   UNL     1     -10.879   5.962  69.676  1.00  0.00    -0.444 A  
HETATM    7  C   UNL     1     -10.528   8.421  66.835  1.00  0.00    -0.359 A  
HETATM    8  C   UNL     1     -10.389   9.799  66.654  1.00  0.00    -0.276 A  
HETATM    9  C   UNL     1     -10.932   6.842  70.749  1.00  0.00    -0.306 A  
HETATM   10  C   UNL     1     -10.391  10.643  67.755  1.00  0.00    -0.239 A  
HETATM   11  C   UNL     1     -10.829   8.213  70.528  1.00  0.00    -0.247 A  
HETATM   12  C   UNL     1     -10.682   8.725  69.232  1.00  0.00    -0.166 A  
HETATM   13  C   UNL     1     -10.552  10.110  69.034  1.00  0.00    -0.245 A  
ENDBRANCH   3   4
ENDBRANCH   2   3
BRANCH   2  14
HETATM   14  C   UNL     1      -8.770   4.832  65.752  1.00  0.00    -0.127 C  
BRANCH  14  15
HETATM   15  C   UNL     1      -8.210   6.182  65.404  1.00  0.00    -0.145 C  
HETATM   16  C   UNL     1      -7.450   6.907  66.242  1.00  0.00    -0.077 C  
BRANCH  16  17
HETATM   17  C   UNL     1      -6.802   8.180  65.896  1.00  0.00    -0.060 A  
HETATM   18  C   UNL     1      -6.817   9.295  66.742  1.00  0.00    -0.080 A  
HETATM   19  C   UNL     1      -5.487   9.460  64.299  1.00  0.00    -0.061 A  
HETATM   20  C   UNL     1      -6.115   8.271  64.677  1.00  0.00    -0.060 A  
HETATM   21  C   UNL     1      -5.529  10.568  65.140  1.00  0.00    -0.146 A  
HETATM   22  C   UNL     1      -6.189  10.485  66.364  1.00  0.00    -0.095 A  
ENDBRANCH  16  17
ENDBRANCH  14  15
ENDBRANCH   2  14
TORSDOF 5
ENDMDL
MODEL      207
REMARK 921   NORMALIZED FREE ENERGY PREDICTED BY IDOCK:   -3.48 KCAL/MOL
REMARK 922        TOTAL FREE ENERGY PREDICTED BY IDOCK:   -5.80 KCAL/MOL
REMARK 923 INTER-LIGAND FREE ENERGY PREDICTED BY IDOCK:   -5.00 KCAL/MOL
REMARK 924 INTRA-LIGAND FREE ENERGY PREDICTED BY IDOCK:   -0.80 KCAL/MOL
REMARK 927      BINDING AFFINITY PREDICTED BY RF-SCORE:    0.00 PKD
ROOT
HETATM    1  C   UNL     1      -9.309   9.888  69.936  1.00  0.00    -0.216 C  
HETATM    2  N   UNL     1     -10.646   9.296  69.830  1.00  0.00    -0.223 NA 
ENDROOT
BRANCH   2   3
HETATM    3  C   UNL     1     -10.780   8.482  68.601  1.00  0.00    -0.041 C  
BRANCH   3   4
HETATM    4  C   UNL     1      -9.618   8.622  67.627  1.00  0.00    -0.190 A  
HETATM    5  C   UNL     1      -9.677   9.456  66.471  1.00  0.00    -0.299 A  
HETATM    6  C   UNL     1      -8.457   7.869  67.887  1.00  0.00    -0.126 A  
HETATM    7  C   UNL     1     -10.786  10.271  66.140  1.00  0.00    -0.042 A  
HETATM    8  C   UNL     1     -10.828  11.017  64.960  1.00  0.00    -0.194 A  
HETATM    9  C   UNL     1      -7.377   7.906  67.015  1.00  0.00    -0.091 A  
HETATM   10  C   UNL     1      -9.752  10.986  64.085  1.00  0.00    -0.332 A  
HETATM   11  C   UNL     1      -7.438   8.692  65.867  1.00  0.00    -0.085 A  
HETATM   12  C   UNL     1      -8.575   9.460  65.579  1.00  0.00    -0.169 A  
HETATM   13  C   UNL     1      -8.627  10.224  64.401  1.00  0.00    -0.195 A  
ENDBRANCH   3   4
ENDBRANCH   2   3
BRANCH   2  14
HETATM   14  C   UNL     1     -11.661  10.356  69.901  1.00  0.00    -0.264 C  
BRANCH  14  15
HETATM   15  C   UNL     1     -11.148  11.675  69.398  1.00  0.00    -0.268 C  
HETATM   16  C   UNL     1     -11.899  12.545  68.702  1.00  0.00    -0.340 C  
BRANCH  16  17
HETATM   17  C   UNL     1     -11.460  13.884  68.285  1.00  0.00    -0.346 A  
HETATM   18  C   UNL     1     -11.663  15.028  69.066  1.00  0.00    -0.351 A  
HETATM   19  C   UNL     1     -10.345  15.267  66.622  1.00  0.00    -0.281 A  
HETATM   20  C   UNL     1     -10.781  14.015  67.066  1.00  0.00    -0.284 A  
HETATM   21  C   UNL     1     -10.575  16.399  67.398  1.00  0.00    -0.306 A  
HETATM   22  C   UNL     1     -11.229  16.280  68.622  1.00  0.00    -0.354 A  
ENDBRANCH  16  17
ENDBRANCH  14  15
ENDBRANCH   2  14
TORSDOF 5
ENDMDL
MODEL      208
REMARK 921   NORMALIZED FREE ENERGY PREDICTED BY IDOCK:   -3.42 KCAL/MOL
REMARK 922        TOTAL FREE ENERGY PREDICTED BY IDOCK:   -5.73 KCAL/MOL
REMARK 923 INTER-LIGAND FREE ENERGY PREDICTED BY IDOCK:   -4.24 KCAL/MOL
REMARK 924 INTRA-LIGAND FREE ENERGY PREDICTED BY IDOCK:   -1.49 KCAL/MOL
REMARK 927      BINDING AFFINITY PREDICTED BY RF-SCORE:    0.00 PKD
ROOT
HETATM    1  C   UNL     1      -9.596   3.668  66.082  1.00  0.00    -0.129 C  
HETATM    2  N   UNL     1      -9.129   4.760  66.941  1.00  0.00    -0.114 NA 
ENDROOT
BRANCH   2   3
HETATM    3  C   UNL     1      -7.856   5.330  66.446  1.00  0.00    -0.103 C  
BRANCH   3   4
HETATM    4  C   UNL     1      -7.417   6.599  67.166  1.00  0.00    -0.088 A  
HETATM    5  C   UNL     1      -8.122   7.833  67.054  1.00  0.00    -0.117 A  
HETATM    6  C   UNL     1      -6.249   6.531  67.949  1.00  0.00    -0.028 A  
HETATM    7  C   UNL     1      -9.319   7.995  66.315  1.00  0.00    -0.246 A  
HETATM    8  C   UNL     1      -9.937   9.239  66.174  1.00  0.00    -0.348 A  
HETATM    9  C   UNL     1      -5.758   7.659  68.592  1.00  0.00    -0.027 A  
HETATM   10  C   UNL     1      -9.387  10.356  66.786  1.00  0.00    -0.181 A  
HETATM   11  C   UNL     1      -6.423   8.876  68.462  1.00  0.00    -0.055 A  
HETATM   12  C   UNL     1      -7.592   8.980  67.696  1.00  0.00    -0.093 A  
HETATM   13  C   UNL     1      -8.231  10.223  67.554  1.00  0.00    -0.114 A  
ENDBRANCH   3   4
ENDBRANCH   2   3
BRANCH   2  14
HETATM   14  C   UNL     1      -9.017   4.285  68.326  1.00  0.00    -0.118 C  
BRANCH  14  15
HETATM   15  C   UNL     1      -9.424   5.331  69.325  1.00  0.00    -0.185 C  
HETATM   16  C   UNL     1     -10.483   6.141  69.157  1.00  0.00    -0.310 C  
BRANCH  16  17
HETATM   17  C   UNL     1     -10.968   7.102  70.158  1.00  0.00    -0.293 A  
HETATM   18  C   UNL     1     -10.823   8.487  70.016  1.00  0.00    -0.225 A  
HETATM   19  C   UNL     1     -12.109   7.480  72.274  1.00  0.00    -0.269 A  
HETATM   20  C   UNL     1     -11.632   6.609  71.291  1.00  0.00    -0.374 A  
HETATM   21  C   UNL     1     -11.937   8.853  72.131  1.00  0.00    -0.419 A  
HETATM   22  C   UNL     1     -11.299   9.358  71.000  1.00  0.00    -0.407 A  
ENDBRANCH  16  17
ENDBRANCH  14  15
ENDBRANCH   2  14
TORSDOF 5
ENDMDL
MODEL      209
REMARK 921   NORMALIZED FREE ENERGY PREDICTED BY IDOCK:   -3.38 KCAL/MOL
REMARK 922        TOTAL FREE ENERGY PREDICTED BY IDOCK:   -5.67 KCAL/MOL
REMARK 923 INTER-LIGAND FREE ENERGY PREDICTED BY IDOCK:   -5.33 KCAL/MOL
REMARK 924 INTRA-LIGAND FREE ENERGY PREDICTED BY IDOCK:   -0.35 KCAL/MOL
REMARK 927      BINDING AFFINITY PREDICTED BY RF-SCORE:    0.00 PKD
ROOT
HETATM    1  C   UNL     1      -8.555   9.915  69.637  1.00  0.00    -0.194 C  
HETATM    2  N   UNL     1      -9.650   9.891  68.662  1.00  0.00    -0.152 NA 
ENDROOT
BRANCH   2   3
HETATM    3  C   UNL     1     -10.535   8.724  68.872  1.00  0.00    -0.197 C  
BRANCH   3   4
HETATM    4  C   UNL     1     -10.973   8.523  70.317  1.00  0.00    -0.245 A  
HETATM    5  C   UNL     1     -10.641   7.357  71.069  1.00  0.00    -0.234 A  
HETATM    6  C   UNL     1     -11.759   9.532  70.906  1.00  0.00    -0.391 A  
HETATM    7  C   UNL     1      -9.836   6.302  70.576  1.00  0.00    -0.207 A  
HETATM    8  C   UNL     1      -9.594   5.147  71.323  1.00  0.00    -0.218 A  
HETATM    9  C   UNL     1     -12.239   9.394  72.201  1.00  0.00    -0.336 A  
HETATM   10  C   UNL     1     -10.137   5.020  72.593  1.00  0.00    -0.227 A  
HETATM   11  C   UNL     1     -11.946   8.245  72.931  1.00  0.00    -0.058 A  
HETATM   12  C   UNL     1     -11.162   7.222  72.380  1.00  0.00    -0.321 A  
HETATM   13  C   UNL     1     -10.903   6.058  73.123  1.00  0.00    -0.287 A  
ENDBRANCH   3   4
ENDBRANCH   2   3
BRANCH   2  14
HETATM   14  C   UNL     1      -9.099   9.925  67.301  1.00  0.00    -0.135 C  
BRANCH  14  15
HETATM   15  C   UNL     1      -8.878  11.327  66.808  1.00  0.00    -0.170 C  
HETATM   16  C   UNL     1      -9.524  12.396  67.303  1.00  0.00    -0.191 C  
BRANCH  16  17
HETATM   17  C   UNL     1      -9.257  13.789  66.916  1.00  0.00    -0.263 A  
HETATM   18  C   UNL     1      -8.192  14.532  67.437  1.00  0.00    -0.220 A  
HETATM   19  C   UNL     1      -9.882  15.710  65.561  1.00  0.00    -0.326 A  
HETATM   20  C   UNL     1     -10.090  14.388  65.960  1.00  0.00    -0.338 A  
HETATM   21  C   UNL     1      -8.833  16.445  66.105  1.00  0.00    -0.349 A  
HETATM   22  C   UNL     1      -7.984  15.855  67.039  1.00  0.00    -0.270 A  
ENDBRANCH  16  17
ENDBRANCH  14  15
ENDBRANCH   2  14
TORSDOF 5
ENDMDL
MODEL      210
REMARK 921   NORMALIZED FREE ENERGY PREDICTED BY IDOCK:   -3.36 KCAL/MOL
REMARK 922        TOTAL FREE ENERGY PREDICTED BY IDOCK:   -5.65 KCAL/MOL
REMARK 923 INTER-LIGAND FREE ENERGY PREDICTED BY IDOCK:   -5.39 KCAL/MOL
REMARK 924 INTRA-LIGAND FREE ENERGY PREDICTED BY IDOCK:   -0.26 KCAL/MOL
REMARK 927      BINDING AFFINITY PREDICTED BY RF-SCORE:    0.00 PKD
ROOT
HETATM    1  C   UNL     1      -7.716   5.722  69.000  1.00  0.00    -0.090 C  
HETATM    2  N   UNL     1      -8.544   6.928  68.902  1.00  0.00    -0.131 NA 
ENDROOT
BRANCH   2   3
HETATM    3  C   UNL     1      -8.669   7.606  70.211  1.00  0.00    -0.144 C  
BRANCH   3   4
HETATM    4  C   UNL     1     -10.040   7.467  70.860  1.00  0.00    -0.192 A  
HETATM    5  C   UNL     1     -10.984   8.535  70.903  1.00  0.00    -0.292 A  
HETATM    6  C   UNL     1     -10.355   6.232  71.457  1.00  0.00    -0.243 A  
HETATM    7  C   UNL     1     -10.773   9.802  70.309  1.00  0.00    -0.358 A  
HETATM    8  C   UNL     1     -11.697  10.842  70.436  1.00  0.00    -0.445 A  
HETATM    9  C   UNL     1     -11.564   6.048  72.114  1.00  0.00    -0.348 A  
HETATM   10  C   UNL     1     -12.870  10.638  71.147  1.00  0.00    -0.518 A  
HETATM   11  C   UNL     1     -12.479   7.095  72.188  1.00  0.00    -0.194 A  
HETATM   12  C   UNL     1     -12.203   8.337  71.600  1.00  0.00    -0.350 A  
HETATM   13  C   UNL     1     -13.128   9.389  71.712  1.00  0.00    -0.488 A  
ENDBRANCH   3   4
ENDBRANCH   2   3
BRANCH   2  14
HETATM   14  C   UNL     1      -9.855   6.581  68.336  1.00  0.00    -0.137 C  
BRANCH  14  15
HETATM   15  C   UNL     1      -9.812   5.315  67.527  1.00  0.00    -0.183 C  
HETATM   16  C   UNL     1     -10.161   5.254  66.232  1.00  0.00    -0.263 C  
BRANCH  16  17
HETATM   17  C   UNL     1     -10.033   4.057  65.386  1.00  0.00    -0.182 A  
HETATM   18  C   UNL     1     -10.707   3.912  64.169  1.00  0.00    -0.229 A  
HETATM   19  C   UNL     1      -9.021   1.872  65.042  1.00  0.00    -0.123 A  
HETATM   20  C   UNL     1      -9.175   3.032  65.806  1.00  0.00    -0.124 A  
HETATM   21  C   UNL     1      -9.715   1.731  63.844  1.00  0.00    -0.131 A  
HETATM   22  C   UNL     1     -10.554   2.752  63.404  1.00  0.00    -0.224 A  
ENDBRANCH  16  17
ENDBRANCH  14  15
ENDBRANCH   2  14
TORSDOF 5
ENDMDL
MODEL      211
REMARK 921   NORMALIZED FREE ENERGY PREDICTED BY IDOCK:   -3.33 KCAL/MOL
REMARK 922        TOTAL FREE ENERGY PREDICTED BY IDOCK:   -5.60 KCAL/MOL
REMARK 923 INTER-LIGAND FREE ENERGY PREDICTED BY IDOCK:   -4.61 KCAL/MOL
REMARK 924 INTRA-LIGAND FREE ENERGY PREDICTED BY IDOCK:   -0.99 KCAL/MOL
REMARK 927      BINDING AFFINITY PREDICTED BY RF-SCORE:    0.00 PKD
ROOT
HETATM    1  C   UNL     1      -9.365  10.336  65.980  1.00  0.00    -0.180 C  
HETATM    2  N   UNL     1      -9.299   9.508  67.188  1.00  0.00    -0.140 NA 
ENDROOT
BRANCH   2   3
HETATM    3  C   UNL     1      -8.916  10.308  68.372  1.00  0.00    -0.132 C  
BRANCH   3   4
HETATM    4  C   UNL     1     -10.090  10.751  69.234  1.00  0.00    -0.200 A  
HETATM    5  C   UNL     1     -10.586   9.973  70.321  1.00  0.00    -0.354 A  
HETATM    6  C   UNL     1     -10.711  11.973  68.910  1.00  0.00    -0.222 A  
HETATM    7  C   UNL     1     -10.015   8.748  70.742  1.00  0.00    -0.263 A  
HETATM    8  C   UNL     1     -10.577   7.983  71.767  1.00  0.00    -0.296 A  
HETATM    9  C   UNL     1     -11.820  12.416  69.619  1.00  0.00    -0.380 A  
HETATM   10  C   UNL     1     -11.718   8.432  72.415  1.00  0.00    -0.452 A  
HETATM   11  C   UNL     1     -12.330  11.647  70.661  1.00  0.00    -0.437 A  
HETATM   12  C   UNL     1     -11.735  10.429  71.016  1.00  0.00    -0.430 A  
HETATM   13  C   UNL     1     -12.284   9.654  72.052  1.00  0.00    -0.330 A  
ENDBRANCH   3   4
ENDBRANCH   2   3
BRANCH   2  14
HETATM   14  C   UNL     1      -8.382   8.382  66.965  1.00  0.00    -0.114 C  
BRANCH  14  15
HETATM   15  C   UNL     1      -8.480   7.341  68.043  1.00  0.00    -0.123 C  
HETATM   16  C   UNL     1      -7.720   6.234  68.073  1.00  0.00    -0.103 C  
BRANCH  16  17
HETATM   17  C   UNL     1      -7.718   5.249  69.165  1.00  0.00    -0.081 A  
HETATM   18  C   UNL     1      -8.700   5.218  70.162  1.00  0.00    -0.133 A  
HETATM   19  C   UNL     1      -6.656   3.325  70.209  1.00  0.00    -0.033 A  
HETATM   20  C   UNL     1      -6.705   4.281  69.190  1.00  0.00    -0.045 A  
HETATM   21  C   UNL     1      -7.625   3.321  71.207  1.00  0.00    -0.047 A  
HETATM   22  C   UNL     1      -8.651   4.264  71.182  1.00  0.00    -0.118 A  
ENDBRANCH  16  17
ENDBRANCH  14  15
ENDBRANCH   2  14
TORSDOF 5
ENDMDL
MODEL      212
REMARK 921   NORMALIZED FREE ENERGY PREDICTED BY IDOCK:   -3.32 KCAL/MOL
REMARK 922        TOTAL FREE ENERGY PREDICTED BY IDOCK:   -5.60 KCAL/MOL
REMARK 923 INTER-LIGAND FREE ENERGY PREDICTED BY IDOCK:   -4.97 KCAL/MOL
REMARK 924 INTRA-LIGAND FREE ENERGY PREDICTED BY IDOCK:   -0.63 KCAL/MOL
REMARK 927      BINDING AFFINITY PREDICTED BY RF-SCORE:    0.00 PKD
ROOT
HETATM    1  C   UNL     1      -6.589   6.915  69.906  1.00  0.00    -0.044 C  
HETATM    2  N   UNL     1      -7.461   7.636  68.974  1.00  0.00    -0.093 NA 
ENDROOT
BRANCH   2   3
HETATM    3  C   UNL     1      -8.818   7.048  68.937  1.00  0.00    -0.130 C  
BRANCH   3   4
HETATM    4  C   UNL     1      -9.686   7.401  70.138  1.00  0.00    -0.175 A  
HETATM    5  C   UNL     1     -10.102   6.435  71.101  1.00  0.00    -0.213 A  
HETATM    6  C   UNL     1     -10.103   8.740  70.268  1.00  0.00    -0.214 A  
HETATM    7  C   UNL     1      -9.714   5.074  71.073  1.00  0.00    -0.249 A  
HETATM    8  C   UNL     1     -10.203   4.147  71.996  1.00  0.00    -0.200 A  
HETATM    9  C   UNL     1     -10.939   9.126  71.307  1.00  0.00    -0.400 A  
HETATM   10  C   UNL     1     -11.080   4.559  72.989  1.00  0.00    -0.298 A  
HETATM   11  C   UNL     1     -11.375   8.183  72.233  1.00  0.00    -0.429 A  
HETATM   12  C   UNL     1     -10.976   6.843  72.140  1.00  0.00    -0.268 A  
HETATM   13  C   UNL     1     -11.452   5.901  73.068  1.00  0.00    -0.151 A  
ENDBRANCH   3   4
ENDBRANCH   2   3
BRANCH   2  14
HETATM   14  C   UNL     1      -6.840   7.668  67.642  1.00  0.00    -0.069 C  
BRANCH  14  15
HETATM   15  C   UNL     1      -7.372   8.785  66.789  1.00  0.00    -0.082 C  
HETATM   16  C   UNL     1      -8.209   8.592  65.757  1.00  0.00    -0.126 C  
BRANCH  16  17
HETATM   17  C   UNL     1      -8.828   9.668  64.969  1.00  0.00    -0.221 A  
HETATM   18  C   UNL     1      -9.912  10.423  65.432  1.00  0.00    -0.362 A  
HETATM   19  C   UNL     1      -8.841  10.981  62.920  1.00  0.00    -0.255 A  
HETATM   20  C   UNL     1      -8.288   9.970  63.710  1.00  0.00    -0.170 A  
HETATM   21  C   UNL     1      -9.934  11.708  63.383  1.00  0.00    -0.447 A  
HETATM   22  C   UNL     1     -10.466  11.433  64.641  1.00  0.00    -0.373 A  
ENDBRANCH  16  17
ENDBRANCH  14  15
ENDBRANCH   2  14
TORSDOF 5
ENDMDL
MODEL      213
REMARK 921   NORMALIZED FREE ENERGY PREDICTED BY IDOCK:   -3.32 KCAL/MOL
REMARK 922        TOTAL FREE ENERGY PREDICTED BY IDOCK:   -5.60 KCAL/MOL
REMARK 923 INTER-LIGAND FREE ENERGY PREDICTED BY IDOCK:   -5.12 KCAL/MOL
REMARK 924 INTRA-LIGAND FREE ENERGY PREDICTED BY IDOCK:   -0.48 KCAL/MOL
REMARK 927      BINDING AFFINITY PREDICTED BY RF-SCORE:    0.00 PKD
ROOT
HETATM    1  C   UNL     1      -6.837  10.825  69.300  1.00  0.00    -0.092 C  
HETATM    2  N   UNL     1      -7.819  11.539  68.478  1.00  0.00    -0.135 NA 
ENDROOT
BRANCH   2   3
HETATM    3  C   UNL     1      -8.721  10.600  67.775  1.00  0.00    -0.129 C  
BRANCH   3   4
HETATM    4  C   UNL     1      -9.514  11.228  66.636  1.00  0.00    -0.204 A  
HETATM    5  C   UNL     1      -9.330  10.856  65.272  1.00  0.00    -0.246 A  
HETATM    6  C   UNL     1     -10.443  12.233  66.967  1.00  0.00    -0.237 A  
HETATM    7  C   UNL     1      -8.443   9.841  64.842  1.00  0.00    -0.165 A  
HETATM    8  C   UNL     1      -8.243   9.558  63.489  1.00  0.00    -0.164 A  
HETATM    9  C   UNL     1     -11.164  12.887  65.978  1.00  0.00    -0.325 A  
HETATM   10  C   UNL     1      -8.941  10.271  62.525  1.00  0.00    -0.283 A  
HETATM   11  C   UNL     1     -10.968  12.553  64.641  1.00  0.00    -0.345 A  
HETATM   12  C   UNL     1     -10.056  11.553  64.274  1.00  0.00    -0.338 A  
HETATM   13  C   UNL     1      -9.852  11.252  62.917  1.00  0.00    -0.317 A  
ENDBRANCH   3   4
ENDBRANCH   2   3
BRANCH   2  14
HETATM   14  C   UNL     1      -7.123  12.436  67.545  1.00  0.00    -0.145 C  
BRANCH  14  15
HETATM   15  C   UNL     1      -7.690  13.827  67.558  1.00  0.00    -0.187 C  
HETATM   16  C   UNL     1      -7.942  14.513  68.686  1.00  0.00    -0.145 C  
BRANCH  16  17
HETATM   17  C   UNL     1      -8.398  15.910  68.731  1.00  0.00    -0.206 A  
HETATM   18  C   UNL     1      -9.743  16.266  68.880  1.00  0.00    -0.248 A  
HETATM   19  C   UNL     1      -7.820  18.273  68.687  1.00  0.00    -0.313 A  
HETATM   20  C   UNL     1      -7.438  16.929  68.652  1.00  0.00    -0.226 A  
HETATM   21  C   UNL     1      -9.163  18.612  68.812  1.00  0.00    -0.318 A  
HETATM   22  C   UNL     1     -10.125  17.609  68.914  1.00  0.00    -0.351 A  
ENDBRANCH  16  17
ENDBRANCH  14  15
ENDBRANCH   2  14
TORSDOF 5
ENDMDL
MODEL      214
REMARK 921   NORMALIZED FREE ENERGY PREDICTED BY IDOCK:   -3.32 KCAL/MOL
REMARK 922        TOTAL FREE ENERGY PREDICTED BY IDOCK:   -5.59 KCAL/MOL
REMARK 923 INTER-LIGAND FREE ENERGY PREDICTED BY IDOCK:   -4.25 KCAL/MOL
REMARK 924 INTRA-LIGAND FREE ENERGY PREDICTED BY IDOCK:   -1.34 KCAL/MOL
REMARK 927      BINDING AFFINITY PREDICTED BY RF-SCORE:    0.00 PKD
ROOT
HETATM    1  C   UNL     1     -10.626   6.398  71.810  1.00  0.00    -0.220 C  
HETATM    2  N   UNL     1     -10.143   7.305  70.764  1.00  0.00    -0.190 NA 
ENDROOT
BRANCH   2   3
HETATM    3  C   UNL     1     -10.096   8.705  71.241  1.00  0.00    -0.242 C  
BRANCH   3   4
HETATM    4  C   UNL     1     -10.376   9.743  70.162  1.00  0.00    -0.335 A  
HETATM    5  C   UNL     1      -9.391  10.160  69.219  1.00  0.00    -0.227 A  
HETATM    6  C   UNL     1     -11.661  10.318  70.131  1.00  0.00    -0.376 A  
HETATM    7  C   UNL     1      -8.083   9.623  69.152  1.00  0.00    -0.104 A  
HETATM    8  C   UNL     1      -7.128  10.112  68.258  1.00  0.00    -0.075 A  
HETATM    9  C   UNL     1     -11.973  11.309  69.209  1.00  0.00    -0.411 A  
HETATM   10  C   UNL     1      -7.460  11.141  67.389  1.00  0.00    -0.109 A  
HETATM   11  C   UNL     1     -11.007  11.745  68.306  1.00  0.00    -0.274 A  
HETATM   12  C   UNL     1      -9.720  11.191  68.303  1.00  0.00    -0.190 A  
HETATM   13  C   UNL     1      -8.752  11.666  67.402  1.00  0.00    -0.155 A  
ENDBRANCH   3   4
ENDBRANCH   2   3
BRANCH   2  14
HETATM   14  C   UNL     1     -10.977   7.161  69.563  1.00  0.00    -0.191 C  
BRANCH  14  15
HETATM   15  C   UNL     1     -10.174   6.785  68.350  1.00  0.00    -0.193 C  
HETATM   16  C   UNL     1     -10.125   7.534  67.235  1.00  0.00    -0.300 C  
BRANCH  16  17
HETATM   17  C   UNL     1      -9.270   7.249  66.073  1.00  0.00    -0.079 A  
HETATM   18  C   UNL     1      -8.863   5.955  65.728  1.00  0.00    -0.145 A  
HETATM   19  C   UNL     1      -8.056   8.102  64.146  1.00  0.00    -0.128 A  
HETATM   20  C   UNL     1      -8.871   8.319  65.260  1.00  0.00    -0.074 A  
HETATM   21  C   UNL     1      -7.639   6.813  63.827  1.00  0.00    -0.104 A  
HETATM   22  C   UNL     1      -8.047   5.739  64.615  1.00  0.00    -0.132 A  
ENDBRANCH  16  17
ENDBRANCH  14  15
ENDBRANCH   2  14
TORSDOF 5
ENDMDL
MODEL      215
REMARK 921   NORMALIZED FREE ENERGY PREDICTED BY IDOCK:   -3.29 KCAL/MOL
REMARK 922        TOTAL FREE ENERGY PREDICTED BY IDOCK:   -5.56 KCAL/MOL
REMARK 923 INTER-LIGAND FREE ENERGY PREDICTED BY IDOCK:   -4.93 KCAL/MOL
REMARK 924 INTRA-LIGAND FREE ENERGY PREDICTED BY IDOCK:   -0.62 KCAL/MOL
REMARK 927      BINDING AFFINITY PREDICTED BY RF-SCORE:    0.00 PKD
ROOT
HETATM    1  C   UNL     1      -9.836   8.592  66.118  1.00  0.00    -0.198 C  
HETATM    2  N   UNL     1      -9.769   7.964  67.441  1.00  0.00    -0.151 NA 
ENDROOT
BRANCH   2   3
HETATM    3  C   UNL     1     -10.762   6.876  67.574  1.00  0.00    -0.298 C  
BRANCH   3   4
HETATM    4  C   UNL     1     -10.311   5.722  68.460  1.00  0.00    -0.274 A  
HETATM    5  C   UNL     1     -10.677   5.615  69.834  1.00  0.00    -0.399 A  
HETATM    6  C   UNL     1      -9.478   4.745  67.881  1.00  0.00    -0.181 A  
HETATM    7  C   UNL     1     -11.531   6.528  70.497  1.00  0.00    -0.448 A  
HETATM    8  C   UNL     1     -11.806   6.424  71.863  1.00  0.00    -0.380 A  
HETATM    9  C   UNL     1      -8.984   3.693  68.640  1.00  0.00    -0.180 A  
HETATM   10  C   UNL     1     -11.250   5.390  72.601  1.00  0.00    -0.333 A  
HETATM   11  C   UNL     1      -9.311   3.598  69.990  1.00  0.00    -0.248 A  
HETATM   12  C   UNL     1     -10.143   4.548  70.599  1.00  0.00    -0.232 A  
HETATM   13  C   UNL     1     -10.436   4.450  71.970  1.00  0.00    -0.128 A  
ENDBRANCH   3   4
ENDBRANCH   2   3
BRANCH   2  14
HETATM   14  C   UNL     1      -9.933   8.989  68.481  1.00  0.00    -0.176 C  
BRANCH  14  15
HETATM   15  C   UNL     1      -9.394   8.544  69.812  1.00  0.00    -0.161 C  
HETATM   16  C   UNL     1      -8.368   9.149  70.434  1.00  0.00    -0.206 C  
BRANCH  16  17
HETATM   17  C   UNL     1      -7.886   8.805  71.779  1.00  0.00    -0.097 A  
HETATM   18  C   UNL     1      -6.529   8.805  72.123  1.00  0.00    -0.049 A  
HETATM   19  C   UNL     1      -8.422   8.154  74.061  1.00  0.00    -0.289 A  
HETATM   20  C   UNL     1      -8.829   8.492  72.768  1.00  0.00    -0.197 A  
HETATM   21  C   UNL     1      -7.069   8.136  74.383  1.00  0.00    -0.204 A  
HETATM   22  C   UNL     1      -6.122   8.466  73.416  1.00  0.00    -0.108 A  
ENDBRANCH  16  17
ENDBRANCH  14  15
ENDBRANCH   2  14
TORSDOF 5
ENDMDL
MODEL      216
REMARK 921   NORMALIZED FREE ENERGY PREDICTED BY IDOCK:   -3.27 KCAL/MOL
REMARK 922        TOTAL FREE ENERGY PREDICTED BY IDOCK:   -5.53 KCAL/MOL
REMARK 923 INTER-LIGAND FREE ENERGY PREDICTED BY IDOCK:   -4.54 KCAL/MOL
REMARK 924 INTRA-LIGAND FREE ENERGY PREDICTED BY IDOCK:   -0.99 KCAL/MOL
REMARK 927      BINDING AFFINITY PREDICTED BY RF-SCORE:    0.00 PKD
ROOT
HETATM    1  C   UNL     1      -8.275   4.380  68.618  1.00  0.00    -0.080 C  
HETATM    2  N   UNL     1      -8.584   5.811  68.536  1.00  0.00    -0.109 NA 
ENDROOT
BRANCH   2   3
HETATM    3  C   UNL     1      -7.618   6.524  67.672  1.00  0.00    -0.105 C  
BRANCH   3   4
HETATM    4  C   UNL     1      -8.132   7.847  67.119  1.00  0.00    -0.117 A  
HETATM    5  C   UNL     1      -7.547   9.104  67.456  1.00  0.00    -0.088 A  
HETATM    6  C   UNL     1      -9.247   7.805  66.260  1.00  0.00    -0.217 A  
HETATM    7  C   UNL     1      -6.410   9.248  68.287  1.00  0.00    -0.054 A  
HETATM    8  C   UNL     1      -5.914  10.503  68.648  1.00  0.00    -0.040 A  
HETATM    9  C   UNL     1      -9.803   8.974  65.759  1.00  0.00    -0.181 A  
HETATM   10  C   UNL     1      -6.529  11.651  68.172  1.00  0.00    -0.054 A  
HETATM   11  C   UNL     1      -9.258  10.207  66.109  1.00  0.00    -0.196 A  
HETATM   12  C   UNL     1      -8.144  10.288  66.956  1.00  0.00    -0.121 A  
HETATM   13  C   UNL     1      -7.628  11.543  67.320  1.00  0.00    -0.143 A  
ENDBRANCH   3   4
ENDBRANCH   2   3
BRANCH   2  14
HETATM   14  C   UNL     1      -8.638   6.382  69.889  1.00  0.00    -0.138 C  
BRANCH  14  15
HETATM   15  C   UNL     1      -9.508   7.605  69.960  1.00  0.00    -0.161 C  
HETATM   16  C   UNL     1     -10.645   7.663  70.674  1.00  0.00    -0.225 C  
BRANCH  16  17
HETATM   17  C   UNL     1     -11.463   8.872  70.847  1.00  0.00    -0.339 A  
HETATM   18  C   UNL     1     -12.524   8.948  71.756  1.00  0.00    -0.425 A  
HETATM   19  C   UNL     1     -11.895  11.181  70.213  1.00  0.00    -0.455 A  
HETATM   20  C   UNL     1     -11.146  10.008  70.089  1.00  0.00    -0.371 A  
HETATM   21  C   UNL     1     -12.962  11.235  71.104  1.00  0.00    -0.369 A  
HETATM   22  C   UNL     1     -13.274  10.121  71.880  1.00  0.00    -0.557 A  
ENDBRANCH  16  17
ENDBRANCH  14  15
ENDBRANCH   2  14
TORSDOF 5
ENDMDL
MODEL      217
REMARK 921   NORMALIZED FREE ENERGY PREDICTED BY IDOCK:   -3.21 KCAL/MOL
REMARK 922        TOTAL FREE ENERGY PREDICTED BY IDOCK:   -5.46 KCAL/MOL
REMARK 923 INTER-LIGAND FREE ENERGY PREDICTED BY IDOCK:   -6.02 KCAL/MOL
REMARK 924 INTRA-LIGAND FREE ENERGY PREDICTED BY IDOCK:    0.56 KCAL/MOL
REMARK 927      BINDING AFFINITY PREDICTED BY RF-SCORE:    0.00 PKD
ROOT
HETATM    1  C   UNL     1     -12.265  10.394  70.798  1.00  0.00    -0.359 C  
HETATM    2  N   UNL     1     -11.252  10.966  69.906  1.00  0.00    -0.285 NA 
ENDROOT
BRANCH   2   3
HETATM    3  C   UNL     1     -11.728  11.012  68.506  1.00  0.00    -0.278 C  
BRANCH   3   4
HETATM    4  C   UNL     1     -11.602  12.380  67.848  1.00  0.00    -0.415 A  
HETATM    5  C   UNL     1     -11.796  13.600  68.560  1.00  0.00    -0.406 A  
HETATM    6  C   UNL     1     -11.305  12.415  66.472  1.00  0.00    -0.392 A  
HETATM    7  C   UNL     1     -12.070  13.671  69.947  1.00  0.00    -0.406 A  
HETATM    8  C   UNL     1     -12.324  14.885  70.589  1.00  0.00    -0.406 A  
HETATM    9  C   UNL     1     -11.226  13.623  65.792  1.00  0.00    -0.302 A  
HETATM   10  C   UNL     1     -12.291  16.068  69.866  1.00  0.00     0.066 A  
HETATM   11  C   UNL     1     -11.446  14.817  66.473  1.00  0.00    -0.328 A  
HETATM   12  C   UNL     1     -11.738  14.822  67.844  1.00  0.00    -0.367 A  
HETATM   13  C   UNL     1     -11.985  16.037  68.505  1.00  0.00     0.029 A  
ENDBRANCH   3   4
ENDBRANCH   2   3
BRANCH   2  14
HETATM   14  C   UNL     1      -9.999  10.210  70.036  1.00  0.00    -0.161 C  
BRANCH  14  15
HETATM   15  C   UNL     1     -10.062   9.179  71.128  1.00  0.00    -0.384 C  
HETATM   16  C   UNL     1     -10.296   7.876  70.901  1.00  0.00    -0.215 C  
BRANCH  16  17
HETATM   17  C   UNL     1     -10.262   6.828  71.933  1.00  0.00    -0.206 A  
HETATM   18  C   UNL     1      -9.087   6.444  72.588  1.00  0.00    -0.135 A  
HETATM   19  C   UNL     1     -11.489   5.205  73.266  1.00  0.00    -0.302 A  
HETATM   20  C   UNL     1     -11.467   6.209  72.295  1.00  0.00    -0.360 A  
HETATM   21  C   UNL     1     -10.309   4.817  73.894  1.00  0.00    -0.281 A  
HETATM   22  C   UNL     1      -9.109   5.439  73.559  1.00  0.00    -0.128 A  
ENDBRANCH  16  17
ENDBRANCH  14  15
ENDBRANCH   2  14
TORSDOF 5
ENDMDL
MODEL      218
REMARK 921   NORMALIZED FREE ENERGY PREDICTED BY IDOCK:   -3.14 KCAL/MOL
REMARK 922        TOTAL FREE ENERGY PREDICTED BY IDOCK:   -5.37 KCAL/MOL
REMARK 923 INTER-LIGAND FREE ENERGY PREDICTED BY IDOCK:   -5.01 KCAL/MOL
REMARK 924 INTRA-LIGAND FREE ENERGY PREDICTED BY IDOCK:   -0.36 KCAL/MOL
REMARK 927      BINDING AFFINITY PREDICTED BY RF-SCORE:    0.00 PKD
ROOT
HETATM    1  C   UNL     1      -8.185  11.145  68.948  1.00  0.00    -0.104 C  
HETATM    2  N   UNL     1      -9.088  11.807  68.001  1.00  0.00    -0.174 NA 
ENDROOT
BRANCH   2   3
HETATM    3  C   UNL     1     -10.335  11.034  67.813  1.00  0.00    -0.188 C  
BRANCH   3   4
HETATM    4  C   UNL     1     -11.009  10.608  69.111  1.00  0.00    -0.296 A  
HETATM    5  C   UNL     1     -11.732  11.517  69.939  1.00  0.00    -0.420 A  
HETATM    6  C   UNL     1     -10.878   9.262  69.501  1.00  0.00    -0.211 A  
HETATM    7  C   UNL     1     -11.943  12.880  69.621  1.00  0.00    -0.358 A  
HETATM    8  C   UNL     1     -12.597  13.751  70.496  1.00  0.00    -0.361 A  
HETATM    9  C   UNL     1     -11.420   8.813  70.697  1.00  0.00    -0.263 A  
HETATM   10  C   UNL     1     -13.077  13.278  71.708  1.00  0.00    -0.472 A  
HETATM   11  C   UNL     1     -12.100   9.700  71.527  1.00  0.00    -0.482 A  
HETATM   12  C   UNL     1     -12.256  11.046  71.169  1.00  0.00    -0.415 A  
HETATM   13  C   UNL     1     -12.920  11.931  72.035  1.00  0.00    -0.370 A  
ENDBRANCH   3   4
ENDBRANCH   2   3
BRANCH   2  14
HETATM   14  C   UNL     1      -8.386  12.037  66.731  1.00  0.00    -0.135 C  
BRANCH  14  15
HETATM   15  C   UNL     1      -8.433  10.837  65.827  1.00  0.00    -0.174 C  
HETATM   16  C   UNL     1      -7.413   9.972  65.693  1.00  0.00    -0.137 C  
BRANCH  16  17
HETATM   17  C   UNL     1      -7.463   8.736  64.899  1.00  0.00    -0.095 A  
HETATM   18  C   UNL     1      -6.747   8.567  63.709  1.00  0.00    -0.080 A  
HETATM   19  C   UNL     1      -8.326   6.474  64.653  1.00  0.00     0.007 A  
HETATM   20  C   UNL     1      -8.241   7.669  65.372  1.00  0.00    -0.137 A  
HETATM   21  C   UNL     1      -7.626   6.329  63.459  1.00  0.00    -0.087 A  
HETATM   22  C   UNL     1      -6.832   7.373  62.989  1.00  0.00    -0.058 A  
ENDBRANCH  16  17
ENDBRANCH  14  15
ENDBRANCH   2  14
TORSDOF 5
ENDMDL
MODEL      219
REMARK 921   NORMALIZED FREE ENERGY PREDICTED BY IDOCK:   -3.12 KCAL/MOL
REMARK 922        TOTAL FREE ENERGY PREDICTED BY IDOCK:   -5.34 KCAL/MOL
REMARK 923 INTER-LIGAND FREE ENERGY PREDICTED BY IDOCK:   -4.99 KCAL/MOL
REMARK 924 INTRA-LIGAND FREE ENERGY PREDICTED BY IDOCK:   -0.35 KCAL/MOL
REMARK 927      BINDING AFFINITY PREDICTED BY RF-SCORE:    0.00 PKD
ROOT
HETATM    1  C   UNL     1      -7.344   6.700  70.458  1.00  0.00    -0.081 C  
HETATM    2  N   UNL     1      -8.408   7.544  69.908  1.00  0.00    -0.131 NA 
ENDROOT
BRANCH   2   3
HETATM    3  C   UNL     1      -9.698   6.820  69.851  1.00  0.00    -0.158 C  
BRANCH   3   4
HETATM    4  C   UNL     1     -10.071   6.104  71.142  1.00  0.00    -0.231 A  
HETATM    5  C   UNL     1      -9.965   4.690  71.297  1.00  0.00    -0.268 A  
HETATM    6  C   UNL     1     -10.561   6.888  72.203  1.00  0.00    -0.241 A  
HETATM    7  C   UNL     1      -9.459   3.821  70.302  1.00  0.00    -0.257 A  
HETATM    8  C   UNL     1      -9.440   2.434  70.471  1.00  0.00    -0.185 A  
HETATM    9  C   UNL     1     -10.971   6.299  73.392  1.00  0.00    -0.172 A  
HETATM   10  C   UNL     1      -9.909   1.878  71.652  1.00  0.00    -0.218 A  
HETATM   11  C   UNL     1     -10.901   4.916  73.541  1.00  0.00    -0.370 A  
HETATM   12  C   UNL     1     -10.412   4.104  72.508  1.00  0.00    -0.205 A  
HETATM   13  C   UNL     1     -10.378   2.708  72.669  1.00  0.00    -0.226 A  
ENDBRANCH   3   4
ENDBRANCH   2   3
BRANCH   2  14
HETATM   14  C   UNL     1      -8.004   8.052  68.590  1.00  0.00    -0.123 C  
BRANCH  14  15
HETATM   15  C   UNL     1      -9.033   8.966  67.988  1.00  0.00    -0.140 C  
HETATM   16  C   UNL     1      -8.808  10.265  67.730  1.00  0.00    -0.125 C  
BRANCH  16  17
HETATM   17  C   UNL     1      -9.756  11.160  67.049  1.00  0.00    -0.210 A  
HETATM   18  C   UNL     1      -9.540  11.655  65.758  1.00  0.00    -0.255 A  
HETATM   19  C   UNL     1     -11.873  12.357  67.110  1.00  0.00    -0.361 A  
HETATM   20  C   UNL     1     -10.941  11.507  67.712  1.00  0.00    -0.291 A  
HETATM   21  C   UNL     1     -11.634  12.860  65.836  1.00  0.00    -0.423 A  
HETATM   22  C   UNL     1     -10.470  12.506  65.157  1.00  0.00    -0.320 A  
ENDBRANCH  16  17
ENDBRANCH  14  15
ENDBRANCH   2  14
TORSDOF 5
ENDMDL
MODEL      220
REMARK 921   NORMALIZED FREE ENERGY PREDICTED BY IDOCK:   -3.11 KCAL/MOL
REMARK 922        TOTAL FREE ENERGY PREDICTED BY IDOCK:   -5.33 KCAL/MOL
REMARK 923 INTER-LIGAND FREE ENERGY PREDICTED BY IDOCK:   -6.16 KCAL/MOL
REMARK 924 INTRA-LIGAND FREE ENERGY PREDICTED BY IDOCK:    0.83 KCAL/MOL
REMARK 927      BINDING AFFINITY PREDICTED BY RF-SCORE:    0.00 PKD
ROOT
HETATM    1  C   UNL     1     -10.679  11.240  68.588  1.00  0.00    -0.205 C  
HETATM    2  N   UNL     1      -9.305  11.739  68.702  1.00  0.00    -0.140 NA 
ENDROOT
BRANCH   2   3
HETATM    3  C   UNL     1      -8.908  12.507  67.501  1.00  0.00    -0.184 C  
BRANCH   3   4
HETATM    4  C   UNL     1      -9.300  11.852  66.182  1.00  0.00    -0.228 A  
HETATM    5  C   UNL     1     -10.346  12.354  65.353  1.00  0.00    -0.303 A  
HETATM    6  C   UNL     1      -8.601  10.691  65.799  1.00  0.00    -0.186 A  
HETATM    7  C   UNL     1     -11.086  13.527  65.637  1.00  0.00    -0.299 A  
HETATM    8  C   UNL     1     -12.150  13.942  64.833  1.00  0.00    -0.434 A  
HETATM    9  C   UNL     1      -8.939  10.010  64.637  1.00  0.00    -0.249 A  
HETATM   10  C   UNL     1     -12.493  13.205  63.709  1.00  0.00    -0.368 A  
HETATM   11  C   UNL     1      -9.980  10.475  63.838  1.00  0.00    -0.348 A  
HETATM   12  C   UNL     1     -10.693  11.631  64.184  1.00  0.00    -0.418 A  
HETATM   13  C   UNL     1     -11.760  12.066  63.379  1.00  0.00    -0.519 A  
ENDBRANCH   3   4
ENDBRANCH   2   3
BRANCH   2  14
HETATM   14  C   UNL     1      -8.393  10.618  68.964  1.00  0.00    -0.152 C  
BRANCH  14  15
HETATM   15  C   UNL     1      -9.098   9.436  69.567  1.00  0.00    -0.169 C  
HETATM   16  C   UNL     1     -10.009   9.540  70.549  1.00  0.00    -0.335 C  
BRANCH  16  17
HETATM   17  C   UNL     1     -10.790   8.417  71.088  1.00  0.00    -0.286 A  
HETATM   18  C   UNL     1     -10.280   7.118  71.194  1.00  0.00    -0.200 A  
HETATM   19  C   UNL     1     -12.879   7.634  72.060  1.00  0.00    -0.242 A  
HETATM   20  C   UNL     1     -12.093   8.667  71.542  1.00  0.00    -0.369 A  
HETATM   21  C   UNL     1     -12.367   6.342  72.138  1.00  0.00    -0.193 A  
HETATM   22  C   UNL     1     -11.066   6.084  71.710  1.00  0.00    -0.332 A  
ENDBRANCH  16  17
ENDBRANCH  14  15
ENDBRANCH   2  14
TORSDOF 5
ENDMDL
MODEL      221
REMARK 921   NORMALIZED FREE ENERGY PREDICTED BY IDOCK:   -3.10 KCAL/MOL
REMARK 922        TOTAL FREE ENERGY PREDICTED BY IDOCK:   -5.32 KCAL/MOL
REMARK 923 INTER-LIGAND FREE ENERGY PREDICTED BY IDOCK:   -5.32 KCAL/MOL
REMARK 924 INTRA-LIGAND FREE ENERGY PREDICTED BY IDOCK:    0.01 KCAL/MOL
REMARK 927      BINDING AFFINITY PREDICTED BY RF-SCORE:    0.00 PKD
ROOT
HETATM    1  C   UNL     1     -12.384  10.351  70.059  1.00  0.00    -0.159 C  
HETATM    2  N   UNL     1     -11.431  10.703  69.002  1.00  0.00    -0.274 NA 
ENDROOT
BRANCH   2   3
HETATM    3  C   UNL     1     -10.048  10.770  69.522  1.00  0.00    -0.084 C  
BRANCH   3   4
HETATM    4  C   UNL     1      -9.022  10.038  68.667  1.00  0.00    -0.136 A  
HETATM    5  C   UNL     1      -8.680   8.669  68.875  1.00  0.00    -0.131 A  
HETATM    6  C   UNL     1      -8.380  10.771  67.651  1.00  0.00    -0.119 A  
HETATM    7  C   UNL     1      -9.288   7.842  69.849  1.00  0.00    -0.157 A  
HETATM    8  C   UNL     1      -8.872   6.526  70.065  1.00  0.00    -0.144 A  
HETATM    9  C   UNL     1      -7.395  10.185  66.866  1.00  0.00    -0.092 A  
HETATM   10  C   UNL     1      -7.848   5.992  69.298  1.00  0.00    -0.103 A  
HETATM   11  C   UNL     1      -7.033   8.859  67.083  1.00  0.00    -0.075 A  
HETATM   12  C   UNL     1      -7.655   8.096  68.081  1.00  0.00    -0.105 A  
HETATM   13  C   UNL     1      -7.254   6.768  68.303  1.00  0.00    -0.088 A  
ENDBRANCH   3   4
ENDBRANCH   2   3
BRANCH   2  14
HETATM   14  C   UNL     1     -11.842  11.962  68.367  1.00  0.00    -0.289 C  
BRANCH  14  15
HETATM   15  C   UNL     1     -11.801  13.124  69.320  1.00  0.00    -0.377 C  
HETATM   16  C   UNL     1     -12.653  13.265  70.349  1.00  0.00    -0.211 C  
BRANCH  16  17
HETATM   17  C   UNL     1     -12.576  14.332  71.358  1.00  0.00    -0.434 A  
HETATM   18  C   UNL     1     -11.817  15.493  71.181  1.00  0.00    -0.435 A  
HETATM   19  C   UNL     1     -13.280  15.174  73.530  1.00  0.00    -0.351 A  
HETATM   20  C   UNL     1     -13.322  14.191  72.538  1.00  0.00    -0.616 A  
HETATM   21  C   UNL     1     -12.502  16.313  73.350  1.00  0.00    -0.616 A  
HETATM   22  C   UNL     1     -11.774  16.476  72.173  1.00  0.00    -0.330 A  
ENDBRANCH  16  17
ENDBRANCH  14  15
ENDBRANCH   2  14
TORSDOF 5
ENDMDL
MODEL      222
REMARK 921   NORMALIZED FREE ENERGY PREDICTED BY IDOCK:   -3.09 KCAL/MOL
REMARK 922        TOTAL FREE ENERGY PREDICTED BY IDOCK:   -5.31 KCAL/MOL
REMARK 923 INTER-LIGAND FREE ENERGY PREDICTED BY IDOCK:   -4.08 KCAL/MOL
REMARK 924 INTRA-LIGAND FREE ENERGY PREDICTED BY IDOCK:   -1.22 KCAL/MOL
REMARK 927      BINDING AFFINITY PREDICTED BY RF-SCORE:    0.00 PKD
ROOT
HETATM    1  C   UNL     1      -9.193   2.699  65.605  1.00  0.00    -0.087 C  
HETATM    2  N   UNL     1      -8.667   3.580  66.653  1.00  0.00    -0.117 NA 
ENDROOT
BRANCH   2   3
HETATM    3  C   UNL     1      -7.617   4.480  66.126  1.00  0.00    -0.090 C  
BRANCH   3   4
HETATM    4  C   UNL     1      -7.366   5.716  66.980  1.00  0.00    -0.080 A  
HETATM    5  C   UNL     1      -8.356   6.721  67.192  1.00  0.00    -0.121 A  
HETATM    6  C   UNL     1      -6.089   5.863  67.553  1.00  0.00    -0.022 A  
HETATM    7  C   UNL     1      -9.675   6.651  66.682  1.00  0.00    -0.210 A  
HETATM    8  C   UNL     1     -10.590   7.692  66.855  1.00  0.00    -0.359 A  
HETATM    9  C   UNL     1      -5.770   6.990  68.299  1.00  0.00    -0.021 A  
HETATM   10  C   UNL     1     -10.218   8.827  67.561  1.00  0.00    -0.309 A  
HETATM   11  C   UNL     1      -6.720   7.990  68.484  1.00  0.00    -0.066 A  
HETATM   12  C   UNL     1      -8.005   7.876  67.935  1.00  0.00    -0.128 A  
HETATM   13  C   UNL     1      -8.939   8.911  68.109  1.00  0.00    -0.137 A  
ENDBRANCH   3   4
ENDBRANCH   2   3
BRANCH   2  14
HETATM   14  C   UNL     1      -8.183   2.771  67.780  1.00  0.00    -0.079 C  
BRANCH  14  15
HETATM   15  C   UNL     1      -8.738   3.236  69.097  1.00  0.00    -0.134 C  
HETATM   16  C   UNL     1      -9.464   4.357  69.240  1.00  0.00    -0.249 C  
BRANCH  16  17
HETATM   17  C   UNL     1     -10.106   4.784  70.491  1.00  0.00    -0.291 A  
HETATM   18  C   UNL     1      -9.839   4.184  71.727  1.00  0.00    -0.252 A  
HETATM   19  C   UNL     1     -11.645   6.303  71.608  1.00  0.00    -0.353 A  
HETATM   20  C   UNL     1     -11.004   5.860  70.447  1.00  0.00    -0.376 A  
HETATM   21  C   UNL     1     -11.387   5.682  72.826  1.00  0.00    -0.350 A  
HETATM   22  C   UNL     1     -10.480   4.626  72.887  1.00  0.00    -0.254 A  
ENDBRANCH  16  17
ENDBRANCH  14  15
ENDBRANCH   2  14
TORSDOF 5
ENDMDL
MODEL      223
REMARK 921   NORMALIZED FREE ENERGY PREDICTED BY IDOCK:   -3.08 KCAL/MOL
REMARK 922        TOTAL FREE ENERGY PREDICTED BY IDOCK:   -5.29 KCAL/MOL
REMARK 923 INTER-LIGAND FREE ENERGY PREDICTED BY IDOCK:   -5.30 KCAL/MOL
REMARK 924 INTRA-LIGAND FREE ENERGY PREDICTED BY IDOCK:    0.02 KCAL/MOL
REMARK 927      BINDING AFFINITY PREDICTED BY RF-SCORE:    0.00 PKD
ROOT
HETATM    1  C   UNL     1      -9.323  10.712  69.313  1.00  0.00    -0.117 C  
HETATM    2  N   UNL     1     -10.288   9.921  68.543  1.00  0.00    -0.187 NA 
ENDROOT
BRANCH   2   3
HETATM    3  C   UNL     1     -11.472  10.726  68.170  1.00  0.00    -0.271 C  
BRANCH   3   4
HETATM    4  C   UNL     1     -12.010  11.605  69.292  1.00  0.00    -0.382 A  
HETATM    5  C   UNL     1     -11.990  13.030  69.233  1.00  0.00    -0.331 A  
HETATM    6  C   UNL     1     -12.521  10.960  70.435  1.00  0.00    -0.411 A  
HETATM    7  C   UNL     1     -11.524  13.768  68.120  1.00  0.00    -0.348 A  
HETATM    8  C   UNL     1     -11.457  15.163  68.134  1.00  0.00    -0.356 A  
HETATM    9  C   UNL     1     -12.980  11.696  71.520  1.00  0.00    -0.463 A  
HETATM   10  C   UNL     1     -11.873  15.862  69.257  1.00  0.00    -0.328 A  
HETATM   11  C   UNL     1     -12.934  13.087  71.484  1.00  0.00    -0.398 A  
HETATM   12  C   UNL     1     -12.439  13.763  70.361  1.00  0.00    -0.384 A  
HETATM   13  C   UNL     1     -12.374  15.167  70.357  1.00  0.00    -0.411 A  
ENDBRANCH   3   4
ENDBRANCH   2   3
BRANCH   2  14
HETATM   14  C   UNL     1     -10.658   8.719  69.303  1.00  0.00    -0.197 C  
BRANCH  14  15
HETATM   15  C   UNL     1      -9.458   7.935  69.754  1.00  0.00    -0.163 C  
HETATM   16  C   UNL     1      -9.540   6.733  70.349  1.00  0.00    -0.174 C  
BRANCH  16  17
HETATM   17  C   UNL     1      -8.386   5.896  70.707  1.00  0.00    -0.125 A  
HETATM   18  C   UNL     1      -8.117   4.669  70.092  1.00  0.00    -0.068 A  
HETATM   19  C   UNL     1      -6.391   5.605  72.069  1.00  0.00    -0.044 A  
HETATM   20  C   UNL     1      -7.501   6.364  71.689  1.00  0.00    -0.093 A  
HETATM   21  C   UNL     1      -6.148   4.375  71.465  1.00  0.00    -0.017 A  
HETATM   22  C   UNL     1      -7.008   3.909  70.473  1.00  0.00    -0.034 A  
ENDBRANCH  16  17
ENDBRANCH  14  15
ENDBRANCH   2  14
TORSDOF 5
ENDMDL
MODEL      224
REMARK 921   NORMALIZED FREE ENERGY PREDICTED BY IDOCK:   -3.05 KCAL/MOL
REMARK 922        TOTAL FREE ENERGY PREDICTED BY IDOCK:   -5.25 KCAL/MOL
REMARK 923 INTER-LIGAND FREE ENERGY PREDICTED BY IDOCK:   -5.21 KCAL/MOL
REMARK 924 INTRA-LIGAND FREE ENERGY PREDICTED BY IDOCK:   -0.04 KCAL/MOL
REMARK 927      BINDING AFFINITY PREDICTED BY RF-SCORE:    0.00 PKD
ROOT
HETATM    1  C   UNL     1      -9.620  16.902  69.007  1.00  0.00    -0.216 C  
HETATM    2  N   UNL     1      -9.300  15.802  68.092  1.00  0.00    -0.193 NA 
ENDROOT
BRANCH   2   3
HETATM    3  C   UNL     1     -10.467  14.918  67.879  1.00  0.00    -0.250 C  
BRANCH   3   4
HETATM    4  C   UNL     1     -11.251  14.601  69.146  1.00  0.00    -0.291 A  
HETATM    5  C   UNL     1     -11.465  13.269  69.608  1.00  0.00    -0.267 A  
HETATM    6  C   UNL     1     -11.798  15.684  69.862  1.00  0.00    -0.374 A  
HETATM    7  C   UNL     1     -10.935  12.119  68.976  1.00  0.00    -0.255 A  
HETATM    8  C   UNL     1     -11.229  10.828  69.422  1.00  0.00    -0.337 A  
HETATM    9  C   UNL     1     -12.568  15.469  70.996  1.00  0.00    -0.513 A  
HETATM   10  C   UNL     1     -12.048  10.651  70.527  1.00  0.00    -0.448 A  
HETATM   11  C   UNL     1     -12.809  14.170  71.436  1.00  0.00    -0.428 A  
HETATM   12  C   UNL     1     -12.276  13.068  70.753  1.00  0.00    -0.359 A  
HETATM   13  C   UNL     1     -12.556  11.764  71.196  1.00  0.00    -0.412 A  
ENDBRANCH   3   4
ENDBRANCH   2   3
BRANCH   2  14
HETATM   14  C   UNL     1      -8.136  15.062  68.600  1.00  0.00    -0.153 C  
BRANCH  14  15
HETATM   15  C   UNL     1      -8.026  13.688  68.001  1.00  0.00    -0.154 C  
HETATM   16  C   UNL     1      -7.002  12.854  68.248  1.00  0.00    -0.099 C  
BRANCH  16  17
HETATM   17  C   UNL     1      -6.916  11.469  67.762  1.00  0.00    -0.078 A  
HETATM   18  C   UNL     1      -5.790  10.661  67.963  1.00  0.00    -0.042 A  
HETATM   19  C   UNL     1      -7.989   9.615  66.608  1.00  0.00    -0.109 A  
HETATM   20  C   UNL     1      -8.022  10.925  67.093  1.00  0.00    -0.127 A  
HETATM   21  C   UNL     1      -6.855   8.831  66.795  1.00  0.00    -0.069 A  
HETATM   22  C   UNL     1      -5.757   9.352  67.477  1.00  0.00    -0.041 A  
ENDBRANCH  16  17
ENDBRANCH  14  15
ENDBRANCH   2  14
TORSDOF 5
ENDMDL
MODEL      225
REMARK 921   NORMALIZED FREE ENERGY PREDICTED BY IDOCK:   -3.05 KCAL/MOL
REMARK 922        TOTAL FREE ENERGY PREDICTED BY IDOCK:   -5.25 KCAL/MOL
REMARK 923 INTER-LIGAND FREE ENERGY PREDICTED BY IDOCK:   -4.39 KCAL/MOL
REMARK 924 INTRA-LIGAND FREE ENERGY PREDICTED BY IDOCK:   -0.85 KCAL/MOL
REMARK 927      BINDING AFFINITY PREDICTED BY RF-SCORE:    0.00 PKD
ROOT
HETATM    1  C   UNL     1      -8.268  11.205  68.905  1.00  0.00    -0.104 C  
HETATM    2  N   UNL     1      -9.243  11.965  68.117  1.00  0.00    -0.183 NA 
ENDROOT
BRANCH   2   3
HETATM    3  C   UNL     1     -10.492  11.197  67.916  1.00  0.00    -0.190 C  
BRANCH   3   4
HETATM    4  C   UNL     1     -10.883  10.318  69.097  1.00  0.00    -0.270 A  
HETATM    5  C   UNL     1     -10.748   8.899  69.081  1.00  0.00    -0.162 A  
HETATM    6  C   UNL     1     -11.422  10.956  70.231  1.00  0.00    -0.391 A  
HETATM    7  C   UNL     1     -10.194   8.170  68.002  1.00  0.00    -0.263 A  
HETATM    8  C   UNL     1     -10.146   6.774  68.001  1.00  0.00    -0.183 A  
HETATM    9  C   UNL     1     -11.851  10.216  71.325  1.00  0.00    -0.448 A  
HETATM   10  C   UNL     1     -10.635   6.066  69.089  1.00  0.00    -0.362 A  
HETATM   11  C   UNL     1     -11.752   8.828  71.306  1.00  0.00    -0.356 A  
HETATM   12  C   UNL     1     -11.215   8.159  70.197  1.00  0.00    -0.134 A  
HETATM   13  C   UNL     1     -11.152   6.755  70.185  1.00  0.00    -0.365 A  
ENDBRANCH   3   4
ENDBRANCH   2   3
BRANCH   2  14
HETATM   14  C   UNL     1      -8.637  12.372  66.842  1.00  0.00    -0.171 C  
BRANCH  14  15
HETATM   15  C   UNL     1      -8.796  11.328  65.773  1.00  0.00    -0.154 C  
HETATM   16  C   UNL     1      -7.906  10.343  65.564  1.00  0.00    -0.152 C  
BRANCH  16  17
HETATM   17  C   UNL     1      -8.082   9.249  64.598  1.00  0.00    -0.136 A  
HETATM   18  C   UNL     1      -8.449   9.463  63.265  1.00  0.00    -0.202 A  
HETATM   19  C   UNL     1      -7.998   6.859  64.148  1.00  0.00    -0.078 A  
HETATM   20  C   UNL     1      -7.842   7.935  65.026  1.00  0.00    -0.120 A  
HETATM   21  C   UNL     1      -8.386   7.086  62.831  1.00  0.00     0.132 A  
HETATM   22  C   UNL     1      -8.607   8.387  62.387  1.00  0.00    -0.103 A  
ENDBRANCH  16  17
ENDBRANCH  14  15
ENDBRANCH   2  14
TORSDOF 5
ENDMDL
MODEL      226
REMARK 921   NORMALIZED FREE ENERGY PREDICTED BY IDOCK:   -3.01 KCAL/MOL
REMARK 922        TOTAL FREE ENERGY PREDICTED BY IDOCK:   -5.20 KCAL/MOL
REMARK 923 INTER-LIGAND FREE ENERGY PREDICTED BY IDOCK:   -5.02 KCAL/MOL
REMARK 924 INTRA-LIGAND FREE ENERGY PREDICTED BY IDOCK:   -0.18 KCAL/MOL
REMARK 927      BINDING AFFINITY PREDICTED BY RF-SCORE:    0.00 PKD
ROOT
HETATM    1  C   UNL     1      -7.928   9.221  70.567  1.00  0.00    -0.167 C  
HETATM    2  N   UNL     1      -8.813   9.510  69.434  1.00  0.00    -0.158 NA 
ENDROOT
BRANCH   2   3
HETATM    3  C   UNL     1      -9.284   8.266  68.786  1.00  0.00    -0.143 C  
BRANCH   3   4
HETATM    4  C   UNL     1      -8.427   7.043  69.080  1.00  0.00    -0.129 A  
HETATM    5  C   UNL     1      -8.780   6.071  70.062  1.00  0.00    -0.135 A  
HETATM    6  C   UNL     1      -7.227   6.900  68.357  1.00  0.00    -0.088 A  
HETATM    7  C   UNL     1      -9.975   6.111  70.819  1.00  0.00    -0.229 A  
HETATM    8  C   UNL     1     -10.247   5.176  71.821  1.00  0.00    -0.271 A  
HETATM    9  C   UNL     1      -6.368   5.838  68.608  1.00  0.00    -0.041 A  
HETATM   10  C   UNL     1      -9.339   4.161  72.081  1.00  0.00    -0.178 A  
HETATM   11  C   UNL     1      -6.690   4.902  69.587  1.00  0.00    -0.051 A  
HETATM   12  C   UNL     1      -7.879   5.008  70.323  1.00  0.00    -0.070 A  
HETATM   13  C   UNL     1      -8.170   4.070  71.327  1.00  0.00    -0.076 A  
ENDBRANCH   3   4
ENDBRANCH   2   3
BRANCH   2  14
HETATM   14  C   UNL     1      -8.126  10.398  68.486  1.00  0.00    -0.116 C  
BRANCH  14  15
HETATM   15  C   UNL     1      -8.910  10.599  67.220  1.00  0.00    -0.137 C  
HETATM   16  C   UNL     1      -9.936  11.460  67.115  1.00  0.00    -0.217 C  
BRANCH  16  17
HETATM   17  C   UNL     1     -10.655  11.756  65.867  1.00  0.00    -0.314 A  
HETATM   18  C   UNL     1     -10.238  11.282  64.619  1.00  0.00    -0.357 A  
HETATM   19  C   UNL     1     -12.546  12.835  64.781  1.00  0.00    -0.518 A  
HETATM   20  C   UNL     1     -11.828  12.522  65.938  1.00  0.00    -0.489 A  
HETATM   21  C   UNL     1     -12.107  12.377  63.543  1.00  0.00    -0.651 A  
HETATM   22  C   UNL     1     -10.956  11.596  63.461  1.00  0.00    -0.485 A  
ENDBRANCH  16  17
ENDBRANCH  14  15
ENDBRANCH   2  14
TORSDOF 5
ENDMDL
MODEL      227
REMARK 921   NORMALIZED FREE ENERGY PREDICTED BY IDOCK:   -2.97 KCAL/MOL
REMARK 922        TOTAL FREE ENERGY PREDICTED BY IDOCK:   -5.15 KCAL/MOL
REMARK 923 INTER-LIGAND FREE ENERGY PREDICTED BY IDOCK:   -4.57 KCAL/MOL
REMARK 924 INTRA-LIGAND FREE ENERGY PREDICTED BY IDOCK:   -0.58 KCAL/MOL
REMARK 927      BINDING AFFINITY PREDICTED BY RF-SCORE:    0.00 PKD
ROOT
HETATM    1  C   UNL     1     -11.583   6.854  71.222  1.00  0.00    -0.310 C  
HETATM    2  N   UNL     1     -11.093   7.936  70.363  1.00  0.00    -0.254 NA 
ENDROOT
BRANCH   2   3
HETATM    3  C   UNL     1      -9.677   8.256  70.649  1.00  0.00    -0.171 C  
BRANCH   3   4
HETATM    4  C   UNL     1      -8.679   7.521  69.765  1.00  0.00    -0.140 A  
HETATM    5  C   UNL     1      -8.699   7.607  68.342  1.00  0.00    -0.127 A  
HETATM    6  C   UNL     1      -7.720   6.709  70.402  1.00  0.00    -0.097 A  
HETATM    7  C   UNL     1      -9.603   8.415  67.611  1.00  0.00    -0.188 A  
HETATM    8  C   UNL     1      -9.633   8.414  66.215  1.00  0.00    -0.286 A  
HETATM    9  C   UNL     1      -6.811   5.968  69.659  1.00  0.00    -0.065 A  
HETATM   10  C   UNL     1      -8.745   7.617  65.507  1.00  0.00    -0.079 A  
HETATM   11  C   UNL     1      -6.845   6.021  68.268  1.00  0.00    -0.070 A  
HETATM   12  C   UNL     1      -7.780   6.822  67.600  1.00  0.00    -0.111 A  
HETATM   13  C   UNL     1      -7.816   6.839  66.195  1.00  0.00    -0.102 A  
ENDBRANCH   3   4
ENDBRANCH   2   3
BRANCH   2  14
HETATM   14  C   UNL     1     -11.963   9.112  70.509  1.00  0.00    -0.040 C  
BRANCH  14  15
HETATM   15  C   UNL     1     -11.373  10.342  69.878  1.00  0.00    -0.354 C  
HETATM   16  C   UNL     1     -12.004  11.527  69.836  1.00  0.00    -0.426 C  
BRANCH  16  17
HETATM   17  C   UNL     1     -11.415  12.771  69.320  1.00  0.00    -0.349 A  
HETATM   18  C   UNL     1     -10.307  12.790  68.466  1.00  0.00    -0.231 A  
HETATM   19  C   UNL     1     -11.486  15.201  69.217  1.00  0.00    -0.327 A  
HETATM   20  C   UNL     1     -12.009  13.990  69.677  1.00  0.00    -0.393 A  
HETATM   21  C   UNL     1     -10.369  15.206  68.387  1.00  0.00    -0.229 A  
HETATM   22  C   UNL     1      -9.782  14.001  68.007  1.00  0.00    -0.221 A  
ENDBRANCH  16  17
ENDBRANCH  14  15
ENDBRANCH   2  14
TORSDOF 5
ENDMDL
MODEL      228
REMARK 921   NORMALIZED FREE ENERGY PREDICTED BY IDOCK:   -2.95 KCAL/MOL
REMARK 922        TOTAL FREE ENERGY PREDICTED BY IDOCK:   -5.13 KCAL/MOL
REMARK 923 INTER-LIGAND FREE ENERGY PREDICTED BY IDOCK:   -5.07 KCAL/MOL
REMARK 924 INTRA-LIGAND FREE ENERGY PREDICTED BY IDOCK:   -0.06 KCAL/MOL
REMARK 927      BINDING AFFINITY PREDICTED BY RF-SCORE:    0.00 PKD
ROOT
HETATM    1  C   UNL     1     -10.631  15.360  70.640  1.00  0.00    -0.127 C  
HETATM    2  N   UNL     1     -10.560  16.176  69.425  1.00  0.00    -0.276 NA 
ENDROOT
BRANCH   2   3
HETATM    3  C   UNL     1     -11.566  15.750  68.427  1.00  0.00    -0.338 C  
BRANCH   3   4
HETATM    4  C   UNL     1     -11.522  14.265  68.090  1.00  0.00    -0.336 A  
HETATM    5  C   UNL     1     -11.291  13.780  66.769  1.00  0.00    -0.345 A  
HETATM    6  C   UNL     1     -11.747  13.353  69.139  1.00  0.00    -0.375 A  
HETATM    7  C   UNL     1     -11.028  14.614  65.656  1.00  0.00    -0.336 A  
HETATM    8  C   UNL     1     -10.877  14.100  64.366  1.00  0.00    -0.218 A  
HETATM    9  C   UNL     1     -11.775  11.986  68.898  1.00  0.00    -0.383 A  
HETATM   10  C   UNL     1     -10.966  12.732  64.155  1.00  0.00    -0.435 A  
HETATM   11  C   UNL     1     -11.581  11.505  67.605  1.00  0.00    -0.320 A  
HETATM   12  C   UNL     1     -11.349  12.383  66.537  1.00  0.00    -0.392 A  
HETATM   13  C   UNL     1     -11.185  11.879  65.236  1.00  0.00    -0.351 A  
ENDBRANCH   3   4
ENDBRANCH   2   3
BRANCH   2  14
HETATM   14  C   UNL     1      -9.195  16.134  68.882  1.00  0.00    -0.234 C  
BRANCH  14  15
HETATM   15  C   UNL     1      -8.897  14.837  68.184  1.00  0.00    -0.170 C  
HETATM   16  C   UNL     1      -8.094  13.890  68.697  1.00  0.00    -0.097 C  
BRANCH  16  17
HETATM   17  C   UNL     1      -7.863  12.571  68.090  1.00  0.00    -0.151 A  
HETATM   18  C   UNL     1      -7.780  12.374  66.707  1.00  0.00     0.115 A  
HETATM   19  C   UNL     1      -7.471  10.191  68.410  1.00  0.00    -0.086 A  
HETATM   20  C   UNL     1      -7.689  11.467  68.937  1.00  0.00    -0.088 A  
HETATM   21  C   UNL     1      -7.414  10.007  67.033  1.00  0.00    -0.092 A  
HETATM   22  C   UNL     1      -7.564  11.098  66.180  1.00  0.00    -0.032 A  
ENDBRANCH  16  17
ENDBRANCH  14  15
ENDBRANCH   2  14
TORSDOF 5
ENDMDL
MODEL      229
REMARK 921   NORMALIZED FREE ENERGY PREDICTED BY IDOCK:   -2.93 KCAL/MOL
REMARK 922        TOTAL FREE ENERGY PREDICTED BY IDOCK:   -5.09 KCAL/MOL
REMARK 923 INTER-LIGAND FREE ENERGY PREDICTED BY IDOCK:   -4.54 KCAL/MOL
REMARK 924 INTRA-LIGAND FREE ENERGY PREDICTED BY IDOCK:   -0.55 KCAL/MOL
REMARK 927      BINDING AFFINITY PREDICTED BY RF-SCORE:    0.00 PKD
ROOT
HETATM    1  C   UNL     1      -8.085   8.564  65.477  1.00  0.00    -0.126 C  
HETATM    2  N   UNL     1      -8.483   8.302  66.864  1.00  0.00    -0.117 NA 
ENDROOT
BRANCH   2   3
HETATM    3  C   UNL     1      -9.620   7.358  66.931  1.00  0.00    -0.187 C  
BRANCH   3   4
HETATM    4  C   UNL     1      -9.269   5.997  67.518  1.00  0.00    -0.111 A  
HETATM    5  C   UNL     1      -9.112   4.828  66.717  1.00  0.00    -0.117 A  
HETATM    6  C   UNL     1      -9.122   5.910  68.916  1.00  0.00    -0.120 A  
HETATM    7  C   UNL     1      -9.213   4.818  65.305  1.00  0.00    -0.155 A  
HETATM    8  C   UNL     1      -9.122   3.637  64.566  1.00  0.00    -0.131 A  
HETATM    9  C   UNL     1      -8.855   4.692  69.528  1.00  0.00    -0.121 A  
HETATM   10  C   UNL     1      -8.909   2.431  65.217  1.00  0.00    -0.122 A  
HETATM   11  C   UNL     1      -8.732   3.540  68.756  1.00  0.00    -0.140 A  
HETATM   12  C   UNL     1      -8.865   3.589  67.361  1.00  0.00    -0.149 A  
HETATM   13  C   UNL     1      -8.767   2.410  66.604  1.00  0.00    -0.131 A  
ENDBRANCH   3   4
ENDBRANCH   2   3
BRANCH   2  14
HETATM   14  C   UNL     1      -8.783   9.572  67.538  1.00  0.00    -0.126 C  
BRANCH  14  15
HETATM   15  C   UNL     1      -9.711  10.441  66.737  1.00  0.00    -0.224 C  
HETATM   16  C   UNL     1      -9.693  11.784  66.785  1.00  0.00    -0.213 C  
BRANCH  16  17
HETATM   17  C   UNL     1     -10.514  12.662  65.940  1.00  0.00    -0.295 A  
HETATM   18  C   UNL     1     -10.968  13.917  66.363  1.00  0.00    -0.303 A  
HETATM   19  C   UNL     1     -11.611  13.031  63.800  1.00  0.00    -0.517 A  
HETATM   20  C   UNL     1     -10.830  12.236  64.642  1.00  0.00    -0.349 A  
HETATM   21  C   UNL     1     -12.076  14.266  64.242  1.00  0.00    -0.467 A  
HETATM   22  C   UNL     1     -11.751  14.712  65.521  1.00  0.00    -0.316 A  
ENDBRANCH  16  17
ENDBRANCH  14  15
ENDBRANCH   2  14
TORSDOF 5
ENDMDL
MODEL      230
REMARK 921   NORMALIZED FREE ENERGY PREDICTED BY IDOCK:   -2.83 KCAL/MOL
REMARK 922        TOTAL FREE ENERGY PREDICTED BY IDOCK:   -4.96 KCAL/MOL
REMARK 923 INTER-LIGAND FREE ENERGY PREDICTED BY IDOCK:   -4.88 KCAL/MOL
REMARK 924 INTRA-LIGAND FREE ENERGY PREDICTED BY IDOCK:   -0.08 KCAL/MOL
REMARK 927      BINDING AFFINITY PREDICTED BY RF-SCORE:    0.00 PKD
ROOT
HETATM    1  C   UNL     1      -7.745   6.921  69.336  1.00  0.00    -0.105 C  
HETATM    2  N   UNL     1      -9.022   7.338  68.749  1.00  0.00    -0.130 NA 
ENDROOT
BRANCH   2   3
HETATM    3  C   UNL     1      -9.889   6.175  68.459  1.00  0.00    -0.137 C  
BRANCH   3   4
HETATM    4  C   UNL     1      -9.699   5.000  69.409  1.00  0.00    -0.254 A  
HETATM    5  C   UNL     1     -10.249   4.976  70.725  1.00  0.00    -0.299 A  
HETATM    6  C   UNL     1      -8.924   3.915  68.956  1.00  0.00    -0.175 A  
HETATM    7  C   UNL     1     -11.062   6.002  71.261  1.00  0.00    -0.337 A  
HETATM    8  C   UNL     1     -11.521   5.969  72.580  1.00  0.00    -0.336 A  
HETATM    9  C   UNL     1      -8.663   2.833  69.786  1.00  0.00    -0.130 A  
HETATM   10  C   UNL     1     -11.195   4.897  73.396  1.00  0.00    -0.415 A  
HETATM   11  C   UNL     1      -9.170   2.815  71.083  1.00  0.00    -0.197 A  
HETATM   12  C   UNL     1      -9.951   3.874  71.566  1.00  0.00    -0.209 A  
HETATM   13  C   UNL     1     -10.427   3.850  72.888  1.00  0.00    -0.247 A  
ENDBRANCH   3   4
ENDBRANCH   2   3
BRANCH   2  14
HETATM   14  C   UNL     1      -8.771   8.150  67.551  1.00  0.00    -0.129 C  
BRANCH  14  15
HETATM   15  C   UNL     1      -9.443   9.493  67.618  1.00  0.00    -0.153 C  
HETATM   16  C   UNL     1      -8.899  10.617  67.122  1.00  0.00    -0.139 C  
BRANCH  16  17
HETATM   17  C   UNL     1      -9.572  11.923  67.079  1.00  0.00    -0.196 A  
HETATM   18  C   UNL     1     -10.525  12.257  66.110  1.00  0.00    -0.270 A  
HETATM   19  C   UNL     1      -9.875  14.123  68.075  1.00  0.00    -0.223 A  
HETATM   20  C   UNL     1      -9.266  12.865  68.072  1.00  0.00    -0.212 A  
HETATM   21  C   UNL     1     -10.803  14.449  67.092  1.00  0.00    -0.292 A  
HETATM   22  C   UNL     1     -11.133  13.515  66.112  1.00  0.00    -0.299 A  
ENDBRANCH  16  17
ENDBRANCH  14  15
ENDBRANCH   2  14
TORSDOF 5
ENDMDL
MODEL      231
REMARK 921   NORMALIZED FREE ENERGY PREDICTED BY IDOCK:   -2.77 KCAL/MOL
REMARK 922        TOTAL FREE ENERGY PREDICTED BY IDOCK:   -4.89 KCAL/MOL
REMARK 923 INTER-LIGAND FREE ENERGY PREDICTED BY IDOCK:   -4.34 KCAL/MOL
REMARK 924 INTRA-LIGAND FREE ENERGY PREDICTED BY IDOCK:   -0.55 KCAL/MOL
REMARK 927      BINDING AFFINITY PREDICTED BY RF-SCORE:    0.00 PKD
ROOT
HETATM    1  C   UNL     1      -7.690   5.759  69.000  1.00  0.00    -0.090 C  
HETATM    2  N   UNL     1      -8.186   7.138  68.960  1.00  0.00    -0.124 NA 
ENDROOT
BRANCH   2   3
HETATM    3  C   UNL     1      -8.408   7.672  70.322  1.00  0.00    -0.132 C  
BRANCH   3   4
HETATM    4  C   UNL     1      -9.873   7.761  70.729  1.00  0.00    -0.183 A  
HETATM    5  C   UNL     1     -10.600   8.988  70.731  1.00  0.00    -0.300 A  
HETATM    6  C   UNL     1     -10.508   6.573  71.138  1.00  0.00    -0.257 A  
HETATM    7  C   UNL     1     -10.060  10.227  70.311  1.00  0.00    -0.012 A  
HETATM    8  C   UNL     1     -10.786  11.417  70.398  1.00  0.00     1.091 A  
HETATM    9  C   UNL     1     -11.827   6.586  71.572  1.00  0.00    -0.386 A  
HETATM   10  C   UNL     1     -12.083  11.399  70.889  1.00  0.00    -0.383 A  
HETATM   11  C   UNL     1     -12.534   7.784  71.608  1.00  0.00    -0.352 A  
HETATM   12  C   UNL     1     -11.937   8.986  71.202  1.00  0.00    -0.356 A  
HETATM   13  C   UNL     1     -12.659  10.189  71.274  1.00  0.00    -0.508 A  
ENDBRANCH   3   4
ENDBRANCH   2   3
BRANCH   2  14
HETATM   14  C   UNL     1      -9.403   7.201  68.140  1.00  0.00    -0.129 C  
BRANCH  14  15
HETATM   15  C   UNL     1      -9.171   7.888  66.824  1.00  0.00    -0.206 C  
HETATM   16  C   UNL     1      -9.774   9.037  66.473  1.00  0.00    -0.311 C  
BRANCH  16  17
HETATM   17  C   UNL     1      -9.492   9.787  65.241  1.00  0.00    -0.343 A  
HETATM   18  C   UNL     1     -10.339  10.786  64.748  1.00  0.00    -0.380 A  
HETATM   19  C   UNL     1      -7.994  10.189  63.366  1.00  0.00    -0.160 A  
HETATM   20  C   UNL     1      -8.307   9.508  64.545  1.00  0.00    -0.167 A  
HETATM   21  C   UNL     1      -8.857  11.164  62.875  1.00  0.00    -0.227 A  
HETATM   22  C   UNL     1     -10.028  11.466  63.568  1.00  0.00    -0.424 A  
ENDBRANCH  16  17
ENDBRANCH  14  15
ENDBRANCH   2  14
TORSDOF 5
ENDMDL
MODEL      232
REMARK 921   NORMALIZED FREE ENERGY PREDICTED BY IDOCK:   -2.62 KCAL/MOL
REMARK 922        TOTAL FREE ENERGY PREDICTED BY IDOCK:   -4.70 KCAL/MOL
REMARK 923 INTER-LIGAND FREE ENERGY PREDICTED BY IDOCK:   -4.34 KCAL/MOL
REMARK 924 INTRA-LIGAND FREE ENERGY PREDICTED BY IDOCK:   -0.35 KCAL/MOL
REMARK 927      BINDING AFFINITY PREDICTED BY RF-SCORE:    0.00 PKD
ROOT
HETATM    1  C   UNL     1     -11.373  11.995  68.922  1.00  0.00    -0.278 C  
HETATM    2  N   UNL     1     -10.408  11.035  68.378  1.00  0.00    -0.175 NA 
ENDROOT
BRANCH   2   3
HETATM    3  C   UNL     1     -10.290  11.160  66.908  1.00  0.00    -0.231 C  
BRANCH   3   4
HETATM    4  C   UNL     1     -10.255  12.597  66.403  1.00  0.00    -0.263 A  
HETATM    5  C   UNL     1      -9.199  13.501  66.722  1.00  0.00    -0.248 A  
HETATM    6  C   UNL     1     -11.333  13.034  65.610  1.00  0.00    -0.330 A  
HETATM    7  C   UNL     1      -8.061  13.149  67.487  1.00  0.00    -0.181 A  
HETATM    8  C   UNL     1      -7.086  14.086  67.835  1.00  0.00    -0.166 A  
HETATM    9  C   UNL     1     -11.396  14.345  65.158  1.00  0.00    -0.359 A  
HETATM   10  C   UNL     1      -7.210  15.401  67.410  1.00  0.00    -0.242 A  
HETATM   11  C   UNL     1     -10.385  15.243  65.491  1.00  0.00    -0.408 A  
HETATM   12  C   UNL     1      -9.293  14.842  66.273  1.00  0.00    -0.329 A  
HETATM   13  C   UNL     1      -8.300  15.772  66.623  1.00  0.00    -0.319 A  
ENDBRANCH   3   4
ENDBRANCH   2   3
BRANCH   2  14
HETATM   14  C   UNL     1     -10.782   9.674  68.785  1.00  0.00    -0.206 C  
BRANCH  14  15
HETATM   15  C   UNL     1      -9.699   8.995  69.575  1.00  0.00    -0.171 C  
HETATM   16  C   UNL     1      -8.393   9.278  69.435  1.00  0.00    -0.127 C  
BRANCH  16  17
HETATM   17  C   UNL     1      -7.320   8.708  70.263  1.00  0.00    -0.054 A  
HETATM   18  C   UNL     1      -7.338   7.388  70.727  1.00  0.00    -0.069 A  
HETATM   19  C   UNL     1      -5.172   9.022  71.360  1.00  0.00    -0.039 A  
HETATM   20  C   UNL     1      -6.216   9.515  70.574  1.00  0.00    -0.071 A  
HETATM   21  C   UNL     1      -5.214   7.715  71.835  1.00  0.00    -0.035 A  
HETATM   22  C   UNL     1      -6.294   6.896  71.515  1.00  0.00    -0.041 A  
ENDBRANCH  16  17
ENDBRANCH  14  15
ENDBRANCH   2  14
TORSDOF 5
ENDMDL
MODEL      233
REMARK 921   NORMALIZED FREE ENERGY PREDICTED BY IDOCK:   -2.54 KCAL/MOL
REMARK 922        TOTAL FREE ENERGY PREDICTED BY IDOCK:   -4.59 KCAL/MOL
REMARK 923 INTER-LIGAND FREE ENERGY PREDICTED BY IDOCK:   -4.31 KCAL/MOL
REMARK 924 INTRA-LIGAND FREE ENERGY PREDICTED BY IDOCK:   -0.28 KCAL/MOL
REMARK 927      BINDING AFFINITY PREDICTED BY RF-SCORE:    0.00 PKD
ROOT
HETATM    1  C   UNL     1      -7.282   5.786  69.058  1.00  0.00    -0.078 C  
HETATM    2  N   UNL     1      -7.702   7.151  68.727  1.00  0.00    -0.114 NA 
ENDROOT
BRANCH   2   3
HETATM    3  C   UNL     1      -7.810   7.992  69.940  1.00  0.00    -0.102 C  
BRANCH   3   4
HETATM    4  C   UNL     1      -9.182   8.622  70.144  1.00  0.00    -0.165 A  
HETATM    5  C   UNL     1     -10.262   7.932  70.768  1.00  0.00    -0.202 A  
HETATM    6  C   UNL     1      -9.373   9.933  69.666  1.00  0.00    -0.247 A  
HETATM    7  C   UNL     1     -10.161   6.626  71.305  1.00  0.00    -0.222 A  
HETATM    8  C   UNL     1     -11.265   5.962  71.844  1.00  0.00    -0.323 A  
HETATM    9  C   UNL     1     -10.612  10.552  69.769  1.00  0.00    -0.274 A  
HETATM   10  C   UNL     1     -12.499   6.592  71.881  1.00  0.00    -0.334 A  
HETATM   11  C   UNL     1     -11.680   9.874  70.349  1.00  0.00    -0.333 A  
HETATM   12  C   UNL     1     -11.526   8.571  70.841  1.00  0.00    -0.302 A  
HETATM   13  C   UNL     1     -12.625   7.894  71.396  1.00  0.00    -0.319 A  
ENDBRANCH   3   4
ENDBRANCH   2   3
BRANCH   2  14
HETATM   14  C   UNL     1      -8.962   7.110  67.973  1.00  0.00    -0.127 C  
BRANCH  14  15
HETATM   15  C   UNL     1      -9.212   5.765  67.350  1.00  0.00    -0.109 C  
HETATM   16  C   UNL     1      -9.412   5.586  66.034  1.00  0.00    -0.147 C  
BRANCH  16  17
HETATM   17  C   UNL     1      -9.557   4.277  65.381  1.00  0.00    -0.187 A  
HETATM   18  C   UNL     1     -10.416   4.058  64.297  1.00  0.00    -0.207 A  
HETATM   19  C   UNL     1      -8.881   1.942  65.263  1.00  0.00    -0.120 A  
HETATM   20  C   UNL     1      -8.778   3.208  65.847  1.00  0.00    -0.129 A  
HETATM   21  C   UNL     1      -9.756   1.734  64.201  1.00  0.00    -0.114 A  
HETATM   22  C   UNL     1     -10.520   2.792  63.715  1.00  0.00    -0.154 A  
ENDBRANCH  16  17
ENDBRANCH  14  15
ENDBRANCH   2  14
TORSDOF 5
ENDMDL
MODEL      234
REMARK 921   NORMALIZED FREE ENERGY PREDICTED BY IDOCK:   -2.53 KCAL/MOL
REMARK 922        TOTAL FREE ENERGY PREDICTED BY IDOCK:   -4.57 KCAL/MOL
REMARK 923 INTER-LIGAND FREE ENERGY PREDICTED BY IDOCK:   -5.08 KCAL/MOL
REMARK 924 INTRA-LIGAND FREE ENERGY PREDICTED BY IDOCK:    0.51 KCAL/MOL
REMARK 927      BINDING AFFINITY PREDICTED BY RF-SCORE:    0.00 PKD
ROOT
HETATM    1  C   UNL     1     -10.317  15.218  70.175  1.00  0.00    -0.187 C  
HETATM    2  N   UNL     1     -10.452  16.054  68.978  1.00  0.00    -0.230 NA 
ENDROOT
BRANCH   2   3
HETATM    3  C   UNL     1     -11.652  15.687  68.195  1.00  0.00    -0.283 C  
BRANCH   3   4
HETATM    4  C   UNL     1     -11.428  14.556  67.199  1.00  0.00    -0.383 A  
HETATM    5  C   UNL     1     -11.413  13.183  67.583  1.00  0.00    -0.366 A  
HETATM    6  C   UNL     1     -11.204  14.908  65.855  1.00  0.00    -0.328 A  
HETATM    7  C   UNL     1     -11.655  12.728  68.902  1.00  0.00    -0.362 A  
HETATM    8  C   UNL     1     -11.560  11.377  69.246  1.00  0.00    -0.384 A  
HETATM    9  C   UNL     1     -10.940  13.934  64.900  1.00  0.00    -0.391 A  
HETATM   10  C   UNL     1     -11.240  10.439  68.276  1.00  0.00    -0.330 A  
HETATM   11  C   UNL     1     -10.892  12.593  65.272  1.00  0.00    -0.319 A  
HETATM   12  C   UNL     1     -11.117  12.205  66.600  1.00  0.00    -0.353 A  
HETATM   13  C   UNL     1     -11.035  10.849  66.960  1.00  0.00    -0.310 A  
ENDBRANCH   3   4
ENDBRANCH   2   3
BRANCH   2  14
HETATM   14  C   UNL     1      -9.224  15.967  68.176  1.00  0.00    -0.190 C  
BRANCH  14  15
HETATM   15  C   UNL     1      -8.854  14.548  67.847  1.00  0.00    -0.176 C  
HETATM   16  C   UNL     1      -7.936  13.845  68.530  1.00  0.00    -0.137 C  
BRANCH  16  17
HETATM   17  C   UNL     1      -7.626  12.427  68.300  1.00  0.00    -0.131 A  
HETATM   18  C   UNL     1      -6.986  11.966  67.144  1.00  0.00    -0.142 A  
HETATM   19  C   UNL     1      -7.692  10.139  69.126  1.00  0.00    -0.112 A  
HETATM   20  C   UNL     1      -7.961  11.500  69.297  1.00  0.00     0.198 A  
HETATM   21  C   UNL     1      -7.076   9.692  67.961  1.00  0.00    -0.080 A  
HETATM   22  C   UNL     1      -6.718  10.606  66.971  1.00  0.00    -0.086 A  
ENDBRANCH  16  17
ENDBRANCH  14  15
ENDBRANCH   2  14
TORSDOF 5
ENDMDL
MODEL      235
REMARK 921   NORMALIZED FREE ENERGY PREDICTED BY IDOCK:   -2.49 KCAL/MOL
REMARK 922        TOTAL FREE ENERGY PREDICTED BY IDOCK:   -4.52 KCAL/MOL
REMARK 923 INTER-LIGAND FREE ENERGY PREDICTED BY IDOCK:   -3.95 KCAL/MOL
REMARK 924 INTRA-LIGAND FREE ENERGY PREDICTED BY IDOCK:   -0.57 KCAL/MOL
REMARK 927      BINDING AFFINITY PREDICTED BY RF-SCORE:    0.00 PKD
ROOT
HETATM    1  C   UNL     1     -12.166   7.153  71.157  1.00  0.00    -0.365 C  
HETATM    2  N   UNL     1     -11.497   8.285  70.509  1.00  0.00    -0.225 NA 
ENDROOT
BRANCH   2   3
HETATM    3  C   UNL     1     -10.527   7.829  69.490  1.00  0.00    -0.225 C  
BRANCH   3   4
HETATM    4  C   UNL     1      -9.970   8.943  68.613  1.00  0.00    -0.192 A  
HETATM    5  C   UNL     1      -8.633   8.938  68.116  1.00  0.00    -0.130 A  
HETATM    6  C   UNL     1     -10.822  10.024  68.315  1.00  0.00    -0.286 A  
HETATM    7  C   UNL     1      -7.712   7.887  68.337  1.00  0.00    -0.114 A  
HETATM    8  C   UNL     1      -6.390   7.957  67.891  1.00  0.00    -0.051 A  
HETATM    9  C   UNL     1     -10.367  11.101  67.566  1.00  0.00    -0.228 A  
HETATM   10  C   UNL     1      -5.956   9.075  67.193  1.00  0.00    -0.057 A  
HETATM   11  C   UNL     1      -9.054  11.120  67.104  1.00  0.00    -0.151 A  
HETATM   12  C   UNL     1      -8.179  10.059  67.375  1.00  0.00    -0.118 A  
HETATM   13  C   UNL     1      -6.850  10.111  66.925  1.00  0.00    -0.084 A  
ENDBRANCH   3   4
ENDBRANCH   2   3
BRANCH   2  14
HETATM   14  C   UNL     1     -10.865   9.133  71.529  1.00  0.00    -0.366 C  
BRANCH  14  15
HETATM   15  C   UNL     1      -9.556   8.572  72.009  1.00  0.00    -0.371 C  
HETATM   16  C   UNL     1      -9.391   8.012  73.219  1.00  0.00    -0.344 C  
BRANCH  16  17
HETATM   17  C   UNL     1      -8.154   7.363  73.678  1.00  0.00    -0.157 A  
HETATM   18  C   UNL     1      -6.993   8.076  73.994  1.00  0.00    -0.159 A  
HETATM   19  C   UNL     1      -6.999   5.303  74.264  1.00  0.00    -0.078 A  
HETATM   20  C   UNL     1      -8.150   5.969  73.834  1.00  0.00    -0.107 A  
HETATM   21  C   UNL     1      -5.844   6.023  74.552  1.00  0.00    -0.062 A  
HETATM   22  C   UNL     1      -5.841   7.410  74.423  1.00  0.00    -0.076 A  
ENDBRANCH  16  17
ENDBRANCH  14  15
ENDBRANCH   2  14
TORSDOF 5
ENDMDL
MODEL      236
REMARK 921   NORMALIZED FREE ENERGY PREDICTED BY IDOCK:   -2.46 KCAL/MOL
REMARK 922        TOTAL FREE ENERGY PREDICTED BY IDOCK:   -4.49 KCAL/MOL
REMARK 923 INTER-LIGAND FREE ENERGY PREDICTED BY IDOCK:   -3.53 KCAL/MOL
REMARK 924 INTRA-LIGAND FREE ENERGY PREDICTED BY IDOCK:   -0.96 KCAL/MOL
REMARK 927      BINDING AFFINITY PREDICTED BY RF-SCORE:    0.00 PKD
ROOT
HETATM    1  C   UNL     1      -6.852   9.775  70.702  1.00  0.00    -0.103 C  
HETATM    2  N   UNL     1      -6.545  10.719  69.624  1.00  0.00    -0.098 NA 
ENDROOT
BRANCH   2   3
HETATM    3  C   UNL     1      -5.990  10.026  68.440  1.00  0.00    -0.042 C  
BRANCH   3   4
HETATM    4  C   UNL     1      -7.037   9.353  67.561  1.00  0.00    -0.078 A  
HETATM    5  C   UNL     1      -8.099  10.073  66.938  1.00  0.00    -0.117 A  
HETATM    6  C   UNL     1      -6.945   7.959  67.392  1.00  0.00    -0.075 A  
HETATM    7  C   UNL     1      -8.261  11.476  67.025  1.00  0.00    -0.167 A  
HETATM    8  C   UNL     1      -9.356  12.130  66.457  1.00  0.00    -0.229 A  
HETATM    9  C   UNL     1      -7.893   7.269  66.649  1.00  0.00    -0.102 A  
HETATM   10  C   UNL     1     -10.314  11.400  65.768  1.00  0.00    -0.304 A  
HETATM   11  C   UNL     1      -8.951   7.959  66.064  1.00  0.00    -0.195 A  
HETATM   12  C   UNL     1      -9.072   9.348  66.205  1.00  0.00    -0.214 A  
HETATM   13  C   UNL     1     -10.164  10.021  65.631  1.00  0.00    -0.258 A  
ENDBRANCH   3   4
ENDBRANCH   2   3
BRANCH   2  14
HETATM   14  C   UNL     1      -5.639  11.762  70.124  1.00  0.00    -0.131 C  
BRANCH  14  15
HETATM   15  C   UNL     1      -5.815  13.068  69.403  1.00  0.00    -0.096 C  
HETATM   16  C   UNL     1      -6.993  13.709  69.310  1.00  0.00    -0.025 C  
BRANCH  16  17
HETATM   17  C   UNL     1      -7.178  15.035  68.702  1.00  0.00    -0.115 A  
HETATM   18  C   UNL     1      -7.078  16.226  69.430  1.00  0.00    -0.204 A  
HETATM   19  C   UNL     1      -7.626  16.343  66.700  1.00  0.00    -0.288 A  
HETATM   20  C   UNL     1      -7.438  15.108  67.326  1.00  0.00    -0.228 A  
HETATM   21  C   UNL     1      -7.547  17.518  67.441  1.00  0.00    -0.213 A  
HETATM   22  C   UNL     1      -7.268  17.461  68.805  1.00  0.00    -0.249 A  
ENDBRANCH  16  17
ENDBRANCH  14  15
ENDBRANCH   2  14
TORSDOF 5
ENDMDL
MODEL      237
REMARK 921   NORMALIZED FREE ENERGY PREDICTED BY IDOCK:   -2.43 KCAL/MOL
REMARK 922        TOTAL FREE ENERGY PREDICTED BY IDOCK:   -4.45 KCAL/MOL
REMARK 923 INTER-LIGAND FREE ENERGY PREDICTED BY IDOCK:   -3.26 KCAL/MOL
REMARK 924 INTRA-LIGAND FREE ENERGY PREDICTED BY IDOCK:   -1.19 KCAL/MOL
REMARK 927      BINDING AFFINITY PREDICTED BY RF-SCORE:    0.00 PKD
ROOT
HETATM    1  C   UNL     1      -6.927   9.980  70.541  1.00  0.00    -0.089 C  
HETATM    2  N   UNL     1      -6.937  11.028  69.516  1.00  0.00    -0.129 NA 
ENDROOT
BRANCH   2   3
HETATM    3  C   UNL     1      -6.655  10.475  68.173  1.00  0.00    -0.063 C  
BRANCH   3   4
HETATM    4  C   UNL     1      -7.777  10.679  67.164  1.00  0.00    -0.110 A  
HETATM    5  C   UNL     1      -7.572  10.595  65.755  1.00  0.00    -0.120 A  
HETATM    6  C   UNL     1      -9.056  10.985  67.666  1.00  0.00    -0.145 A  
HETATM    7  C   UNL     1      -6.333  10.266  65.154  1.00  0.00    -0.123 A  
HETATM    8  C   UNL     1      -6.160  10.266  63.768  1.00  0.00    -0.127 A  
HETATM    9  C   UNL     1     -10.116  11.236  66.805  1.00  0.00    -0.254 A  
HETATM   10  C   UNL     1      -7.229  10.576  62.940  1.00  0.00    -0.053 A  
HETATM   11  C   UNL     1      -9.917  11.188  65.428  1.00  0.00    -0.309 A  
HETATM   12  C   UNL     1      -8.659  10.880  64.891  1.00  0.00    -0.029 A  
HETATM   13  C   UNL     1      -8.474  10.866  63.499  1.00  0.00     0.056 A  
ENDBRANCH   3   4
ENDBRANCH   2   3
BRANCH   2  14
HETATM   14  C   UNL     1      -5.987  12.087  69.885  1.00  0.00    -0.149 C  
BRANCH  14  15
HETATM   15  C   UNL     1      -6.195  13.344  69.088  1.00  0.00    -0.098 C  
HETATM   16  C   UNL     1      -7.378  13.973  68.995  1.00  0.00    -0.081 C  
BRANCH  16  17
HETATM   17  C   UNL     1      -7.591  15.257  68.311  1.00  0.00    -0.112 A  
HETATM   18  C   UNL     1      -7.335  16.493  68.916  1.00  0.00    -0.219 A  
HETATM   19  C   UNL     1      -8.266  16.433  66.291  1.00  0.00    -0.343 A  
HETATM   20  C   UNL     1      -8.044  15.240  66.984  1.00  0.00    -0.253 A  
HETATM   21  C   UNL     1      -8.029  17.655  66.913  1.00  0.00    -0.252 A  
HETATM   22  C   UNL     1      -7.559  17.686  68.224  1.00  0.00    -0.257 A  
ENDBRANCH  16  17
ENDBRANCH  14  15
ENDBRANCH   2  14
TORSDOF 5
ENDMDL
MODEL      238
REMARK 921   NORMALIZED FREE ENERGY PREDICTED BY IDOCK:   -2.34 KCAL/MOL
REMARK 922        TOTAL FREE ENERGY PREDICTED BY IDOCK:   -4.34 KCAL/MOL
REMARK 923 INTER-LIGAND FREE ENERGY PREDICTED BY IDOCK:   -3.70 KCAL/MOL
REMARK 924 INTRA-LIGAND FREE ENERGY PREDICTED BY IDOCK:   -0.64 KCAL/MOL
REMARK 927      BINDING AFFINITY PREDICTED BY RF-SCORE:    0.00 PKD
ROOT
HETATM    1  C   UNL     1     -12.120   7.167  71.128  1.00  0.00    -0.358 C  
HETATM    2  N   UNL     1     -11.545   8.351  70.483  1.00  0.00    -0.191 NA 
ENDROOT
BRANCH   2   3
HETATM    3  C   UNL     1     -10.572   7.976  69.433  1.00  0.00    -0.205 C  
BRANCH   3   4
HETATM    4  C   UNL     1      -9.792   6.701  69.730  1.00  0.00    -0.174 A  
HETATM    5  C   UNL     1      -8.374   6.682  69.883  1.00  0.00    -0.132 A  
HETATM    6  C   UNL     1     -10.521   5.501  69.829  1.00  0.00    -0.389 A  
HETATM    7  C   UNL     1      -7.558   7.837  69.829  1.00  0.00    -0.091 A  
HETATM    8  C   UNL     1      -6.166   7.762  69.914  1.00  0.00    -0.027 A  
HETATM    9  C   UNL     1      -9.874   4.292  70.045  1.00  0.00    -0.275 A  
HETATM   10  C   UNL     1      -5.550   6.530  70.075  1.00  0.00    -0.015 A  
HETATM   11  C   UNL     1      -8.487   4.260  70.163  1.00  0.00    -0.089 A  
HETATM   12  C   UNL     1      -7.728   5.435  70.077  1.00  0.00    -0.077 A  
HETATM   13  C   UNL     1      -6.328   5.376  70.170  1.00  0.00    -0.030 A  
ENDBRANCH   3   4
ENDBRANCH   2   3
BRANCH   2  14
HETATM   14  C   UNL     1     -10.946   9.226  71.500  1.00  0.00    -0.375 C  
BRANCH  14  15
HETATM   15  C   UNL     1      -9.570   8.775  71.904  1.00  0.00    -0.372 C  
HETATM   16  C   UNL     1      -9.315   8.108  73.042  1.00  0.00    -0.335 C  
BRANCH  16  17
HETATM   17  C   UNL     1      -8.002   7.564  73.417  1.00  0.00    -0.150 A  
HETATM   18  C   UNL     1      -7.784   6.204  73.663  1.00  0.00    -0.095 A  
HETATM   19  C   UNL     1      -5.645   7.980  73.857  1.00  0.00    -0.066 A  
HETATM   20  C   UNL     1      -6.914   8.445  73.501  1.00  0.00    -0.127 A  
HETATM   21  C   UNL     1      -5.448   6.628  74.122  1.00  0.00    -0.050 A  
HETATM   22  C   UNL     1      -6.516   5.739  74.021  1.00  0.00    -0.074 A  
ENDBRANCH  16  17
ENDBRANCH  14  15
ENDBRANCH   2  14
TORSDOF 5
ENDMDL
MODEL      239
REMARK 921   NORMALIZED FREE ENERGY PREDICTED BY IDOCK:   -2.34 KCAL/MOL
REMARK 922        TOTAL FREE ENERGY PREDICTED BY IDOCK:   -4.33 KCAL/MOL
REMARK 923 INTER-LIGAND FREE ENERGY PREDICTED BY IDOCK:   -4.25 KCAL/MOL
REMARK 924 INTRA-LIGAND FREE ENERGY PREDICTED BY IDOCK:   -0.08 KCAL/MOL
REMARK 927      BINDING AFFINITY PREDICTED BY RF-SCORE:    0.00 PKD
ROOT
HETATM    1  C   UNL     1     -11.312  11.357  69.088  1.00  0.00    -0.288 C  
HETATM    2  N   UNL     1     -10.269  10.488  68.534  1.00  0.00    -0.166 NA 
ENDROOT
BRANCH   2   3
HETATM    3  C   UNL     1     -10.055  10.751  67.094  1.00  0.00    -0.204 C  
BRANCH   3   4
HETATM    4  C   UNL     1     -10.159  12.220  66.703  1.00  0.00    -0.231 A  
HETATM    5  C   UNL     1     -10.939  12.671  65.598  1.00  0.00    -0.313 A  
HETATM    6  C   UNL     1      -9.425  13.149  67.465  1.00  0.00    -0.212 A  
HETATM    7  C   UNL     1     -11.732  11.820  64.791  1.00  0.00    -0.212 A  
HETATM    8  C   UNL     1     -12.424  12.295  63.675  1.00  0.00    -0.647 A  
HETATM    9  C   UNL     1      -9.429  14.498  67.136  1.00  0.00    -0.236 A  
HETATM   10  C   UNL     1     -12.360  13.641  63.345  1.00  0.00    -0.167 A  
HETATM   11  C   UNL     1     -10.163  14.943  66.040  1.00  0.00    -0.317 A  
HETATM   12  C   UNL     1     -10.910  14.048  65.262  1.00  0.00    -0.352 A  
HETATM   13  C   UNL     1     -11.620  14.513  64.142  1.00  0.00    -0.148 A  
ENDBRANCH   3   4
ENDBRANCH   2   3
BRANCH   2  14
HETATM   14  C   UNL     1     -10.611   9.083  68.791  1.00  0.00    -0.169 C  
BRANCH  14  15
HETATM   15  C   UNL     1      -9.543   8.367  69.569  1.00  0.00    -0.170 C  
HETATM   16  C   UNL     1      -8.269   8.791  69.638  1.00  0.00    -0.113 C  
BRANCH  16  17
HETATM   17  C   UNL     1      -7.227   8.174  70.471  1.00  0.00    -0.048 A  
HETATM   18  C   UNL     1      -6.939   6.805  70.440  1.00  0.00    -0.063 A  
HETATM   19  C   UNL     1      -5.468   8.463  72.127  1.00  0.00    -0.041 A  
HETATM   20  C   UNL     1      -6.468   9.000  71.312  1.00  0.00    -0.085 A  
HETATM   21  C   UNL     1      -5.208   7.096  72.102  1.00  0.00    -0.036 A  
HETATM   22  C   UNL     1      -5.940   6.267  71.255  1.00  0.00    -0.031 A  
ENDBRANCH  16  17
ENDBRANCH  14  15
ENDBRANCH   2  14
TORSDOF 5
ENDMDL
MODEL      240
REMARK 921   NORMALIZED FREE ENERGY PREDICTED BY IDOCK:   -2.33 KCAL/MOL
REMARK 922        TOTAL FREE ENERGY PREDICTED BY IDOCK:   -4.32 KCAL/MOL
REMARK 923 INTER-LIGAND FREE ENERGY PREDICTED BY IDOCK:   -3.72 KCAL/MOL
REMARK 924 INTRA-LIGAND FREE ENERGY PREDICTED BY IDOCK:   -0.60 KCAL/MOL
REMARK 927      BINDING AFFINITY PREDICTED BY RF-SCORE:    0.00 PKD
ROOT
HETATM    1  C   UNL     1     -11.924   9.176  71.968  1.00  0.00    -0.350 C  
HETATM    2  N   UNL     1     -11.390   7.841  71.685  1.00  0.00    -0.247 NA 
ENDROOT
BRANCH   2   3
HETATM    3  C   UNL     1     -10.540   7.352  72.793  1.00  0.00    -0.297 C  
BRANCH   3   4
HETATM    4  C   UNL     1      -9.955   5.964  72.567  1.00  0.00    -0.198 A  
HETATM    5  C   UNL     1      -8.643   5.755  72.048  1.00  0.00    -0.130 A  
HETATM    6  C   UNL     1     -10.771   4.857  72.869  1.00  0.00    -0.297 A  
HETATM    7  C   UNL     1      -7.739   6.800  71.741  1.00  0.00    -0.096 A  
HETATM    8  C   UNL     1      -6.490   6.552  71.167  1.00  0.00    -0.049 A  
HETATM    9  C   UNL     1     -10.324   3.562  72.639  1.00  0.00    -0.222 A  
HETATM   10  C   UNL     1      -6.101   5.248  70.901  1.00  0.00    -0.022 A  
HETATM   11  C   UNL     1      -9.058   3.350  72.102  1.00  0.00    -0.149 A  
HETATM   12  C   UNL     1      -8.215   4.427  71.796  1.00  0.00    -0.101 A  
HETATM   13  C   UNL     1      -6.952   4.192  71.227  1.00  0.00    -0.035 A  
ENDBRANCH   3   4
ENDBRANCH   2   3
BRANCH   2  14
HETATM   14  C   UNL     1     -10.668   7.860  70.405  1.00  0.00    -0.233 C  
BRANCH  14  15
HETATM   15  C   UNL     1     -10.281   9.250  69.988  1.00  0.00    -0.244 C  
HETATM   16  C   UNL     1      -9.172   9.528  69.282  1.00  0.00    -0.169 C  
BRANCH  16  17
HETATM   17  C   UNL     1      -8.818  10.860  68.770  1.00  0.00    -0.162 A  
HETATM   18  C   UNL     1      -9.710  11.658  68.045  1.00  0.00    -0.182 A  
HETATM   19  C   UNL     1      -7.152  12.623  68.580  1.00  0.00    -0.101 A  
HETATM   20  C   UNL     1      -7.539  11.364  69.047  1.00  0.00    -0.084 A  
HETATM   21  C   UNL     1      -8.042  13.395  67.840  1.00  0.00    -0.162 A  
HETATM   22  C   UNL     1      -9.323  12.916  67.577  1.00  0.00    -0.190 A  
ENDBRANCH  16  17
ENDBRANCH  14  15
ENDBRANCH   2  14
TORSDOF 5
ENDMDL
MODEL      241
REMARK 921   NORMALIZED FREE ENERGY PREDICTED BY IDOCK:   -2.32 KCAL/MOL
REMARK 922        TOTAL FREE ENERGY PREDICTED BY IDOCK:   -4.31 KCAL/MOL
REMARK 923 INTER-LIGAND FREE ENERGY PREDICTED BY IDOCK:   -3.72 KCAL/MOL
REMARK 924 INTRA-LIGAND FREE ENERGY PREDICTED BY IDOCK:   -0.59 KCAL/MOL
REMARK 927      BINDING AFFINITY PREDICTED BY RF-SCORE:    0.00 PKD
ROOT
HETATM    1  C   UNL     1     -12.272   9.048  71.231  1.00  0.00    -0.312 C  
HETATM    2  N   UNL     1     -11.371   7.895  71.149  1.00  0.00    -0.262 NA 
ENDROOT
BRANCH   2   3
HETATM    3  C   UNL     1     -10.048   8.199  71.738  1.00  0.00    -0.205 C  
BRANCH   3   4
HETATM    4  C   UNL     1      -9.546   7.152  72.723  1.00  0.00    -0.183 A  
HETATM    5  C   UNL     1      -8.159   6.909  72.951  1.00  0.00    -0.115 A  
HETATM    6  C   UNL     1     -10.510   6.388  73.408  1.00  0.00    -0.283 A  
HETATM    7  C   UNL     1      -7.117   7.641  72.333  1.00  0.00    -0.078 A  
HETATM    8  C   UNL     1      -5.772   7.322  72.531  1.00  0.00    -0.037 A  
HETATM    9  C   UNL     1     -10.127   5.379  74.282  1.00  0.00    -0.267 A  
HETATM   10  C   UNL     1      -5.429   6.271  73.370  1.00  0.00    -0.037 A  
HETATM   11  C   UNL     1      -8.776   5.114  74.486  1.00  0.00    -0.108 A  
HETATM   12  C   UNL     1      -7.788   5.858  73.827  1.00  0.00    -0.099 A  
HETATM   13  C   UNL     1      -6.430   5.555  74.024  1.00  0.00    -0.074 A  
ENDBRANCH   3   4
ENDBRANCH   2   3
BRANCH   2  14
HETATM   14  C   UNL     1     -11.262   7.452  69.752  1.00  0.00    -0.091 C  
BRANCH  14  15
HETATM   15  C   UNL     1     -10.684   8.514  68.859  1.00  0.00    -0.100 C  
HETATM   16  C   UNL     1     -10.399   8.314  67.561  1.00  0.00    -0.333 C  
BRANCH  16  17
HETATM   17  C   UNL     1      -9.930   9.357  66.637  1.00  0.00    -0.326 A  
HETATM   18  C   UNL     1     -10.623  10.554  66.428  1.00  0.00    -0.218 A  
HETATM   19  C   UNL     1      -8.233  10.112  65.066  1.00  0.00    -0.152 A  
HETATM   20  C   UNL     1      -8.720   9.153  65.958  1.00  0.00    -0.176 A  
HETATM   21  C   UNL     1      -8.944  11.288  64.850  1.00  0.00     0.022 A  
HETATM   22  C   UNL     1     -10.137  11.513  65.535  1.00  0.00    -0.286 A  
ENDBRANCH  16  17
ENDBRANCH  14  15
ENDBRANCH   2  14
TORSDOF 5
ENDMDL
MODEL      242
REMARK 921   NORMALIZED FREE ENERGY PREDICTED BY IDOCK:   -2.26 KCAL/MOL
REMARK 922        TOTAL FREE ENERGY PREDICTED BY IDOCK:   -4.23 KCAL/MOL
REMARK 923 INTER-LIGAND FREE ENERGY PREDICTED BY IDOCK:   -3.22 KCAL/MOL
REMARK 924 INTRA-LIGAND FREE ENERGY PREDICTED BY IDOCK:   -1.00 KCAL/MOL
REMARK 927      BINDING AFFINITY PREDICTED BY RF-SCORE:    0.00 PKD
ROOT
HETATM    1  C   UNL     1      -9.287   2.596  68.439  1.00  0.00    -0.197 C  
HETATM    2  N   UNL     1      -9.353   4.060  68.417  1.00  0.00    -0.150 NA 
ENDROOT
BRANCH   2   3
HETATM    3  C   UNL     1     -10.203   4.579  69.511  1.00  0.00     0.074 C  
BRANCH   3   4
HETATM    4  C   UNL     1      -9.485   5.521  70.469  1.00  0.00    -0.209 A  
HETATM    5  C   UNL     1      -9.492   6.938  70.308  1.00  0.00    -0.162 A  
HETATM    6  C   UNL     1      -8.770   4.943  71.536  1.00  0.00    -0.141 A  
HETATM    7  C   UNL     1     -10.202   7.614  69.286  1.00  0.00    -0.210 A  
HETATM    8  C   UNL     1     -10.123   8.999  69.124  1.00  0.00    -0.201 A  
HETATM    9  C   UNL     1      -8.047   5.735  72.418  1.00  0.00    -0.107 A  
HETATM   10  C   UNL     1      -9.346   9.752  69.992  1.00  0.00    -0.274 A  
HETATM   11  C   UNL     1      -8.023   7.117  72.249  1.00  0.00    -0.101 A  
HETATM   12  C   UNL     1      -8.727   7.728  71.203  1.00  0.00    -0.141 A  
HETATM   13  C   UNL     1      -8.665   9.121  71.033  1.00  0.00    -0.251 A  
ENDBRANCH   3   4
ENDBRANCH   2   3
BRANCH   2  14
HETATM   14  C   UNL     1      -9.817   4.512  67.099  1.00  0.00    -0.189 C  
BRANCH  14  15
HETATM   15  C   UNL     1      -9.222   5.835  66.705  1.00  0.00    -0.135 C  
HETATM   16  C   UNL     1      -8.735   6.091  65.479  1.00  0.00    -0.120 C  
BRANCH  16  17
HETATM   17  C   UNL     1      -8.242   7.402  65.033  1.00  0.00    -0.101 A  
HETATM   18  C   UNL     1      -7.074   7.558  64.277  1.00  0.00    -0.063 A  
HETATM   19  C   UNL     1      -8.564   9.812  64.955  1.00  0.00    -0.178 A  
HETATM   20  C   UNL     1      -8.991   8.543  65.353  1.00  0.00    -0.150 A  
HETATM   21  C   UNL     1      -7.388   9.954  64.225  1.00  0.00    -0.133 A  
HETATM   22  C   UNL     1      -6.645   8.827  63.881  1.00  0.00    -0.087 A  
ENDBRANCH  16  17
ENDBRANCH  14  15
ENDBRANCH   2  14
TORSDOF 5
ENDMDL
MODEL      243
REMARK 921   NORMALIZED FREE ENERGY PREDICTED BY IDOCK:   -2.22 KCAL/MOL
REMARK 922        TOTAL FREE ENERGY PREDICTED BY IDOCK:   -4.18 KCAL/MOL
REMARK 923 INTER-LIGAND FREE ENERGY PREDICTED BY IDOCK:   -2.82 KCAL/MOL
REMARK 924 INTRA-LIGAND FREE ENERGY PREDICTED BY IDOCK:   -1.35 KCAL/MOL
REMARK 927      BINDING AFFINITY PREDICTED BY RF-SCORE:    0.00 PKD
ROOT
HETATM    1  C   UNL     1      -5.989   4.036  68.593  1.00  0.00    -0.027 C  
HETATM    2  N   UNL     1      -5.368   5.359  68.484  1.00  0.00    -0.007 NA 
ENDROOT
BRANCH   2   3
HETATM    3  C   UNL     1      -5.990   6.327  69.414  1.00  0.00    -0.021 C  
BRANCH   3   4
HETATM    4  C   UNL     1      -6.979   7.281  68.756  1.00  0.00    -0.079 A  
HETATM    5  C   UNL     1      -8.363   6.973  68.606  1.00  0.00    -0.122 A  
HETATM    6  C   UNL     1      -6.476   8.500  68.263  1.00  0.00    -0.060 A  
HETATM    7  C   UNL     1      -8.967   5.789  69.092  1.00  0.00    -0.120 A  
HETATM    8  C   UNL     1     -10.313   5.497  68.859  1.00  0.00    -0.289 A  
HETATM    9  C   UNL     1      -7.308   9.396  67.604  1.00  0.00    -0.084 A  
HETATM   10  C   UNL     1     -11.100   6.392  68.149  1.00  0.00    -0.358 A  
HETATM   11  C   UNL     1      -8.654   9.090  67.424  1.00  0.00    -0.115 A  
HETATM   12  C   UNL     1      -9.191   7.888  67.907  1.00  0.00    -0.139 A  
HETATM   13  C   UNL     1     -10.545   7.586  67.689  1.00  0.00    -0.303 A  
ENDBRANCH   3   4
ENDBRANCH   2   3
BRANCH   2  14
HETATM   14  C   UNL     1      -5.429   5.819  67.090  1.00  0.00    -0.008 C  
BRANCH  14  15
HETATM   15  C   UNL     1      -6.473   5.090  66.292  1.00  0.00    -0.044 C  
HETATM   16  C   UNL     1      -7.419   5.712  65.569  1.00  0.00    -0.074 C  
BRANCH  16  17
HETATM   17  C   UNL     1      -8.388   5.032  64.698  1.00  0.00    -0.141 A  
HETATM   18  C   UNL     1      -8.178   4.846  63.327  1.00  0.00    -0.109 A  
HETATM   19  C   UNL     1     -10.516   3.871  64.488  1.00  0.00    -0.221 A  
HETATM   20  C   UNL     1      -9.561   4.522  65.273  1.00  0.00    -0.179 A  
HETATM   21  C   UNL     1     -10.304   3.714  63.122  1.00  0.00    -0.208 A  
HETATM   22  C   UNL     1      -9.134   4.196  62.541  1.00  0.00    -0.115 A  
ENDBRANCH  16  17
ENDBRANCH  14  15
ENDBRANCH   2  14
TORSDOF 5
ENDMDL
MODEL      244
REMARK 921   NORMALIZED FREE ENERGY PREDICTED BY IDOCK:   -2.17 KCAL/MOL
REMARK 922        TOTAL FREE ENERGY PREDICTED BY IDOCK:   -4.11 KCAL/MOL
REMARK 923 INTER-LIGAND FREE ENERGY PREDICTED BY IDOCK:   -3.34 KCAL/MOL
REMARK 924 INTRA-LIGAND FREE ENERGY PREDICTED BY IDOCK:   -0.77 KCAL/MOL
REMARK 927      BINDING AFFINITY PREDICTED BY RF-SCORE:    0.00 PKD
ROOT
HETATM    1  C   UNL     1      -7.163   3.141  68.777  1.00  0.00    -0.049 C  
HETATM    2  N   UNL     1      -6.243   4.269  68.602  1.00  0.00    -0.031 NA 
ENDROOT
BRANCH   2   3
HETATM    3  C   UNL     1      -6.768   5.499  69.235  1.00  0.00    -0.056 C  
BRANCH   3   4
HETATM    4  C   UNL     1      -8.222   5.803  68.900  1.00  0.00    -0.101 A  
HETATM    5  C   UNL     1      -8.602   6.791  67.944  1.00  0.00    -0.122 A  
HETATM    6  C   UNL     1      -9.214   5.084  69.593  1.00  0.00    -0.168 A  
HETATM    7  C   UNL     1      -7.682   7.546  67.178  1.00  0.00    -0.112 A  
HETATM    8  C   UNL     1      -8.098   8.553  66.305  1.00  0.00    -0.107 A  
HETATM    9  C   UNL     1     -10.561   5.345  69.378  1.00  0.00    -0.295 A  
HETATM   10  C   UNL     1      -9.451   8.822  66.157  1.00  0.00    -0.315 A  
HETATM   11  C   UNL     1     -10.941   6.329  68.471  1.00  0.00    -0.421 A  
HETATM   12  C   UNL     1      -9.982   7.062  67.758  1.00  0.00    -0.186 A  
HETATM   13  C   UNL     1     -10.386   8.071  66.868  1.00  0.00    -0.408 A  
ENDBRANCH   3   4
ENDBRANCH   2   3
BRANCH   2  14
HETATM   14  C   UNL     1      -5.967   4.462  67.172  1.00  0.00    -0.024 C  
BRANCH  14  15
HETATM   15  C   UNL     1      -6.966   3.760  66.296  1.00  0.00    -0.062 C  
HETATM   16  C   UNL     1      -7.762   4.400  65.423  1.00  0.00    -0.086 C  
BRANCH  16  17
HETATM   17  C   UNL     1      -8.675   3.736  64.481  1.00  0.00    -0.114 A  
HETATM   18  C   UNL     1     -10.048   4.001  64.439  1.00  0.00    -0.199 A  
HETATM   19  C   UNL     1      -8.963   2.158  62.652  1.00  0.00    -0.080 A  
HETATM   20  C   UNL     1      -8.138   2.820  63.566  1.00  0.00    -0.081 A  
HETATM   21  C   UNL     1     -10.331   2.414  62.636  1.00  0.00    -0.115 A  
HETATM   22  C   UNL     1     -10.873   3.339  63.526  1.00  0.00    -0.206 A  
ENDBRANCH  16  17
ENDBRANCH  14  15
ENDBRANCH   2  14
TORSDOF 5
ENDMDL
MODEL      245
REMARK 921   NORMALIZED FREE ENERGY PREDICTED BY IDOCK:   -2.13 KCAL/MOL
REMARK 922        TOTAL FREE ENERGY PREDICTED BY IDOCK:   -4.05 KCAL/MOL
REMARK 923 INTER-LIGAND FREE ENERGY PREDICTED BY IDOCK:   -4.09 KCAL/MOL
REMARK 924 INTRA-LIGAND FREE ENERGY PREDICTED BY IDOCK:    0.04 KCAL/MOL
REMARK 927      BINDING AFFINITY PREDICTED BY RF-SCORE:    0.00 PKD
ROOT
HETATM    1  C   UNL     1      -7.791   8.091  73.025  1.00  0.00    -0.149 C  
HETATM    2  N   UNL     1      -9.139   7.550  72.824  1.00  0.00    -0.141 NA 
ENDROOT
BRANCH   2   3
HETATM    3  C   UNL     1      -9.148   6.488  71.794  1.00  0.00    -0.142 C  
BRANCH   3   4
HETATM    4  C   UNL     1      -8.792   5.103  72.320  1.00  0.00    -0.134 A  
HETATM    5  C   UNL     1      -8.904   3.924  71.525  1.00  0.00    -0.141 A  
HETATM    6  C   UNL     1      -8.361   5.006  73.656  1.00  0.00    -0.106 A  
HETATM    7  C   UNL     1      -9.301   3.921  70.166  1.00  0.00    -0.241 A  
HETATM    8  C   UNL     1      -9.465   2.736  69.447  1.00  0.00    -0.145 A  
HETATM    9  C   UNL     1      -8.069   3.771  74.221  1.00  0.00    -0.082 A  
HETATM   10  C   UNL     1      -9.217   1.517  70.061  1.00  0.00    -0.161 A  
HETATM   11  C   UNL     1      -8.206   2.612  73.462  1.00  0.00    -0.064 A  
HETATM   12  C   UNL     1      -8.627   2.670  72.126  1.00  0.00    -0.084 A  
HETATM   13  C   UNL     1      -8.787   1.486  71.387  1.00  0.00    -0.098 A  
ENDBRANCH   3   4
ENDBRANCH   2   3
BRANCH   2  14
HETATM   14  C   UNL     1     -10.065   8.642  72.496  1.00  0.00    -0.172 C  
BRANCH  14  15
HETATM   15  C   UNL     1      -9.846   9.180  71.110  1.00  0.00    -0.371 C  
HETATM   16  C   UNL     1     -10.507   8.731  70.030  1.00  0.00    -0.222 C  
BRANCH  16  17
HETATM   17  C   UNL     1     -10.393   9.304  68.680  1.00  0.00    -0.229 A  
HETATM   18  C   UNL     1     -10.622  10.657  68.407  1.00  0.00    -0.231 A  
HETATM   19  C   UNL     1      -9.889   8.955  66.326  1.00  0.00    -0.355 A  
HETATM   20  C   UNL     1     -10.008   8.461  67.628  1.00  0.00    -0.246 A  
HETATM   21  C   UNL     1     -10.142  10.298  66.065  1.00  0.00    -0.311 A  
HETATM   22  C   UNL     1     -10.504  11.151  67.105  1.00  0.00    -0.270 A  
ENDBRANCH  16  17
ENDBRANCH  14  15
ENDBRANCH   2  14
TORSDOF 5
ENDMDL
MODEL      246
REMARK 921   NORMALIZED FREE ENERGY PREDICTED BY IDOCK:   -2.12 KCAL/MOL
REMARK 922        TOTAL FREE ENERGY PREDICTED BY IDOCK:   -4.05 KCAL/MOL
REMARK 923 INTER-LIGAND FREE ENERGY PREDICTED BY IDOCK:   -4.30 KCAL/MOL
REMARK 924 INTRA-LIGAND FREE ENERGY PREDICTED BY IDOCK:    0.24 KCAL/MOL
REMARK 927      BINDING AFFINITY PREDICTED BY RF-SCORE:    0.00 PKD
ROOT
HETATM    1  C   UNL     1      -8.085   8.564  65.477  1.00  0.00    -0.126 C  
HETATM    2  N   UNL     1      -8.483   8.302  66.864  1.00  0.00    -0.117 NA 
ENDROOT
BRANCH   2   3
HETATM    3  C   UNL     1      -9.620   7.358  66.931  1.00  0.00    -0.187 C  
BRANCH   3   4
HETATM    4  C   UNL     1      -9.269   5.997  67.518  1.00  0.00    -0.111 A  
HETATM    5  C   UNL     1      -8.282   5.826  68.533  1.00  0.00    -0.108 A  
HETATM    6  C   UNL     1      -9.944   4.873  67.005  1.00  0.00    -0.238 A  
HETATM    7  C   UNL     1      -7.570   6.893  69.132  1.00  0.00    -0.097 A  
HETATM    8  C   UNL     1      -6.561   6.674  70.072  1.00  0.00    -0.048 A  
HETATM    9  C   UNL     1      -9.639   3.595  67.454  1.00  0.00    -0.197 A  
HETATM   10  C   UNL     1      -6.246   5.378  70.456  1.00  0.00    -0.026 A  
HETATM   11  C   UNL     1      -8.654   3.416  68.421  1.00  0.00    -0.120 A  
HETATM   12  C   UNL     1      -7.966   4.511  68.960  1.00  0.00    -0.070 A  
HETATM   13  C   UNL     1      -6.955   4.306  69.914  1.00  0.00    -0.042 A  
ENDBRANCH   3   4
ENDBRANCH   2   3
BRANCH   2  14
HETATM   14  C   UNL     1      -8.783   9.572  67.538  1.00  0.00    -0.126 C  
BRANCH  14  15
HETATM   15  C   UNL     1      -9.711  10.441  66.737  1.00  0.00    -0.224 C  
HETATM   16  C   UNL     1      -9.693  11.784  66.785  1.00  0.00    -0.213 C  
BRANCH  16  17
HETATM   17  C   UNL     1     -10.514  12.662  65.940  1.00  0.00    -0.295 A  
HETATM   18  C   UNL     1     -10.968  13.917  66.363  1.00  0.00    -0.303 A  
HETATM   19  C   UNL     1     -11.611  13.031  63.800  1.00  0.00    -0.517 A  
HETATM   20  C   UNL     1     -10.830  12.236  64.642  1.00  0.00    -0.349 A  
HETATM   21  C   UNL     1     -12.076  14.266  64.242  1.00  0.00    -0.467 A  
HETATM   22  C   UNL     1     -11.751  14.712  65.521  1.00  0.00    -0.316 A  
ENDBRANCH  16  17
ENDBRANCH  14  15
ENDBRANCH   2  14
TORSDOF 5
ENDMDL
MODEL      247
REMARK 921   NORMALIZED FREE ENERGY PREDICTED BY IDOCK:   -2.07 KCAL/MOL
REMARK 922        TOTAL FREE ENERGY PREDICTED BY IDOCK:   -3.98 KCAL/MOL
REMARK 923 INTER-LIGAND FREE ENERGY PREDICTED BY IDOCK:   -3.01 KCAL/MOL
REMARK 924 INTRA-LIGAND FREE ENERGY PREDICTED BY IDOCK:   -0.97 KCAL/MOL
REMARK 927      BINDING AFFINITY PREDICTED BY RF-SCORE:    0.00 PKD
ROOT
HETATM    1  C   UNL     1      -9.213   7.493  66.128  1.00  0.00    -0.105 C  
HETATM    2  N   UNL     1      -9.464   6.603  67.266  1.00  0.00    -0.130 NA 
ENDROOT
BRANCH   2   3
HETATM    3  C   UNL     1     -10.346   5.477  66.887  1.00  0.00    -0.265 C  
BRANCH   3   4
HETATM    4  C   UNL     1      -9.615   4.289  66.274  1.00  0.00    -0.204 A  
HETATM    5  C   UNL     1      -8.651   3.522  66.992  1.00  0.00    -0.116 A  
HETATM    6  C   UNL     1      -9.904   3.970  64.933  1.00  0.00    -0.203 A  
HETATM    7  C   UNL     1      -8.313   3.746  68.348  1.00  0.00    -0.098 A  
HETATM    8  C   UNL     1      -7.311   3.016  68.991  1.00  0.00    -0.048 A  
HETATM    9  C   UNL     1      -9.239   2.934  64.291  1.00  0.00    -0.125 A  
HETATM   10  C   UNL     1      -6.630   2.025  68.300  1.00  0.00    -0.029 A  
HETATM   11  C   UNL     1      -8.273   2.201  64.975  1.00  0.00    -0.081 A  
HETATM   12  C   UNL     1      -7.964   2.485  66.312  1.00  0.00    -0.082 A  
HETATM   13  C   UNL     1      -6.965   1.752  66.974  1.00  0.00    -0.039 A  
ENDBRANCH   3   4
ENDBRANCH   2   3
BRANCH   2  14
HETATM   14  C   UNL     1     -10.014   7.379  68.386  1.00  0.00    -0.164 C  
BRANCH  14  15
HETATM   15  C   UNL     1      -9.712   6.753  69.718  1.00  0.00    -0.162 C  
HETATM   16  C   UNL     1     -10.589   5.989  70.391  1.00  0.00    -0.332 C  
BRANCH  16  17
HETATM   17  C   UNL     1     -10.290   5.279  71.644  1.00  0.00    -0.281 A  
HETATM   18  C   UNL     1     -11.246   4.530  72.340  1.00  0.00     0.155 A  
HETATM   19  C   UNL     1      -8.647   4.677  73.334  1.00  0.00    -0.101 A  
HETATM   20  C   UNL     1      -8.982   5.331  72.146  1.00  0.00    -0.138 A  
HETATM   21  C   UNL     1      -9.614   3.956  74.028  1.00  0.00    -0.121 A  
HETATM   22  C   UNL     1     -10.912   3.878  73.529  1.00  0.00    -0.343 A  
ENDBRANCH  16  17
ENDBRANCH  14  15
ENDBRANCH   2  14
TORSDOF 5
ENDMDL
MODEL      248
REMARK 921   NORMALIZED FREE ENERGY PREDICTED BY IDOCK:   -2.02 KCAL/MOL
REMARK 922        TOTAL FREE ENERGY PREDICTED BY IDOCK:   -3.92 KCAL/MOL
REMARK 923 INTER-LIGAND FREE ENERGY PREDICTED BY IDOCK:   -4.50 KCAL/MOL
REMARK 924 INTRA-LIGAND FREE ENERGY PREDICTED BY IDOCK:    0.58 KCAL/MOL
REMARK 927      BINDING AFFINITY PREDICTED BY RF-SCORE:    0.00 PKD
ROOT
HETATM    1  C   UNL     1      -8.555   9.874  69.677  1.00  0.00    -0.194 C  
HETATM    2  N   UNL     1      -9.504   9.887  68.559  1.00  0.00    -0.144 NA 
ENDROOT
BRANCH   2   3
HETATM    3  C   UNL     1     -10.491   8.790  68.676  1.00  0.00    -0.183 C  
BRANCH   3   4
HETATM    4  C   UNL     1     -11.132   8.669  70.052  1.00  0.00    -0.161 A  
HETATM    5  C   UNL     1     -10.943   7.532  70.893  1.00  0.00    -0.267 A  
HETATM    6  C   UNL     1     -11.960   9.724  70.480  1.00  0.00    -0.282 A  
HETATM    7  C   UNL     1     -10.110   6.436  70.566  1.00  0.00    -0.221 A  
HETATM    8  C   UNL     1     -10.011   5.312  71.388  1.00  0.00    -0.245 A  
HETATM    9  C   UNL     1     -12.620   9.660  71.699  1.00  0.00    -0.493 A  
HETATM   10  C   UNL     1     -10.729   5.260  72.574  1.00  0.00    -0.290 A  
HETATM   11  C   UNL     1     -12.467   8.540  72.513  1.00  0.00    -0.358 A  
HETATM   12  C   UNL     1     -11.646   7.473  72.123  1.00  0.00    -0.340 A  
HETATM   13  C   UNL     1     -11.529   6.340  72.945  1.00  0.00    -0.126 A  
ENDBRANCH   3   4
ENDBRANCH   2   3
BRANCH   2  14
HETATM   14  C   UNL     1      -8.769   9.833  67.288  1.00  0.00    -0.132 C  
BRANCH  14  15
HETATM   15  C   UNL     1      -8.761   8.454  66.690  1.00  0.00    -0.144 C  
HETATM   16  C   UNL     1      -8.959   7.336  67.408  1.00  0.00    -0.122 C  
BRANCH  16  17
HETATM   17  C   UNL     1      -9.059   5.983  66.840  1.00  0.00    -0.126 A  
HETATM   18  C   UNL     1     -10.253   5.460  66.329  1.00  0.00    -0.234 A  
HETATM   19  C   UNL     1      -7.943   3.903  66.254  1.00  0.00    -0.094 A  
HETATM   20  C   UNL     1      -7.901   5.196  66.781  1.00  0.00    -0.100 A  
HETATM   21  C   UNL     1      -9.141   3.386  65.770  1.00  0.00    -0.152 A  
HETATM   22  C   UNL     1     -10.296   4.166  65.803  1.00  0.00    -0.091 A  
ENDBRANCH  16  17
ENDBRANCH  14  15
ENDBRANCH   2  14
TORSDOF 5
ENDMDL
MODEL      249
REMARK 921   NORMALIZED FREE ENERGY PREDICTED BY IDOCK:   -1.94 KCAL/MOL
REMARK 922        TOTAL FREE ENERGY PREDICTED BY IDOCK:   -3.82 KCAL/MOL
REMARK 923 INTER-LIGAND FREE ENERGY PREDICTED BY IDOCK:   -3.42 KCAL/MOL
REMARK 924 INTRA-LIGAND FREE ENERGY PREDICTED BY IDOCK:   -0.40 KCAL/MOL
REMARK 927      BINDING AFFINITY PREDICTED BY RF-SCORE:    0.00 PKD
ROOT
HETATM    1  C   UNL     1     -11.367  12.035  68.950  1.00  0.00    -0.278 C  
HETATM    2  N   UNL     1     -10.360  11.045  68.557  1.00  0.00    -0.182 NA 
ENDROOT
BRANCH   2   3
HETATM    3  C   UNL     1     -10.228  10.963  67.085  1.00  0.00    -0.210 C  
BRANCH   3   4
HETATM    4  C   UNL     1      -9.087  10.073  66.608  1.00  0.00    -0.169 A  
HETATM    5  C   UNL     1      -9.194   8.653  66.537  1.00  0.00    -0.236 A  
HETATM    6  C   UNL     1      -7.879  10.701  66.250  1.00  0.00    -0.150 A  
HETATM    7  C   UNL     1     -10.372   7.932  66.848  1.00  0.00    -0.400 A  
HETATM    8  C   UNL     1     -10.410   6.536  66.833  1.00  0.00    -0.311 A  
HETATM    9  C   UNL     1      -6.778   9.952  65.857  1.00  0.00    -0.097 A  
HETATM   10  C   UNL     1      -9.274   5.819  66.487  1.00  0.00    -0.150 A  
HETATM   11  C   UNL     1      -6.864   8.563  65.815  1.00  0.00    -0.067 A  
HETATM   12  C   UNL     1      -8.052   7.903  66.158  1.00  0.00    -0.109 A  
HETATM   13  C   UNL     1      -8.108   6.499  66.138  1.00  0.00    -0.118 A  
ENDBRANCH   3   4
ENDBRANCH   2   3
BRANCH   2  14
HETATM   14  C   UNL     1     -10.690   9.743  69.152  1.00  0.00    -0.221 C  
BRANCH  14  15
HETATM   15  C   UNL     1      -9.633   9.265  70.107  1.00  0.00    -0.254 C  
HETATM   16  C   UNL     1      -8.332   9.579  69.986  1.00  0.00    -0.192 C  
BRANCH  16  17
HETATM   17  C   UNL     1      -7.290   9.215  70.957  1.00  0.00    -0.116 A  
HETATM   18  C   UNL     1      -7.310   8.017  71.681  1.00  0.00    -0.078 A  
HETATM   19  C   UNL     1      -5.199   9.797  72.057  1.00  0.00    -0.063 A  
HETATM   20  C   UNL     1      -6.213  10.094  71.143  1.00  0.00     0.095 A  
HETATM   21  C   UNL     1      -5.244   8.613  72.787  1.00  0.00    -0.049 A  
HETATM   22  C   UNL     1      -6.296   7.720  72.595  1.00  0.00    -0.063 A  
ENDBRANCH  16  17
ENDBRANCH  14  15
ENDBRANCH   2  14
TORSDOF 5
ENDMDL
MODEL      250
REMARK 921   NORMALIZED FREE ENERGY PREDICTED BY IDOCK:   -1.89 KCAL/MOL
REMARK 922        TOTAL FREE ENERGY PREDICTED BY IDOCK:   -3.75 KCAL/MOL
REMARK 923 INTER-LIGAND FREE ENERGY PREDICTED BY IDOCK:   -3.10 KCAL/MOL
REMARK 924 INTRA-LIGAND FREE ENERGY PREDICTED BY IDOCK:   -0.65 KCAL/MOL
REMARK 927      BINDING AFFINITY PREDICTED BY RF-SCORE:    0.00 PKD
ROOT
HETATM    1  C   UNL     1      -8.305   8.552  65.561  1.00  0.00    -0.156 C  
HETATM    2  N   UNL     1      -8.262   7.793  66.814  1.00  0.00    -0.117 NA 
ENDROOT
BRANCH   2   3
HETATM    3  C   UNL     1      -9.207   6.655  66.791  1.00  0.00    -0.149 C  
BRANCH   3   4
HETATM    4  C   UNL     1      -8.542   5.293  66.641  1.00  0.00    -0.110 A  
HETATM    5  C   UNL     1      -8.677   4.494  65.468  1.00  0.00    -0.127 A  
HETATM    6  C   UNL     1      -7.789   4.814  67.730  1.00  0.00    -0.086 A  
HETATM    7  C   UNL     1      -9.388   4.899  64.313  1.00  0.00     0.107 A  
HETATM    8  C   UNL     1      -9.554   4.054  63.213  1.00  0.00    -0.149 A  
HETATM    9  C   UNL     1      -7.198   3.558  67.687  1.00  0.00    -0.058 A  
HETATM   10  C   UNL     1      -8.995   2.784  63.228  1.00  0.00    -0.088 A  
HETATM   11  C   UNL     1      -7.351   2.758  66.558  1.00  0.00    -0.070 A  
HETATM   12  C   UNL     1      -8.088   3.204  65.452  1.00  0.00    -0.086 A  
HETATM   13  C   UNL     1      -8.255   2.369  64.335  1.00  0.00    -0.082 A  
ENDBRANCH   3   4
ENDBRANCH   2   3
BRANCH   2  14
HETATM   14  C   UNL     1      -8.516   8.696  67.945  1.00  0.00    -0.129 C  
BRANCH  14  15
HETATM   15  C   UNL     1      -8.981   7.961  69.171  1.00  0.00    -0.145 C  
HETATM   16  C   UNL     1     -10.259   7.949  69.585  1.00  0.00    -0.207 C  
BRANCH  16  17
HETATM   17  C   UNL     1     -10.764   7.159  70.718  1.00  0.00    -0.251 A  
HETATM   18  C   UNL     1     -12.076   7.263  71.192  1.00  0.00    -0.376 A  
HETATM   19  C   UNL     1     -10.330   5.466  72.410  1.00  0.00    -0.257 A  
HETATM   20  C   UNL     1      -9.900   6.239  71.328  1.00  0.00    -0.197 A  
HETATM   21  C   UNL     1     -11.630   5.597  72.887  1.00  0.00    -0.252 A  
HETATM   22  C   UNL     1     -12.506   6.492  72.275  1.00  0.00    -0.112 A  
ENDBRANCH  16  17
ENDBRANCH  14  15
ENDBRANCH   2  14
TORSDOF 5
ENDMDL
MODEL      251
REMARK 921   NORMALIZED FREE ENERGY PREDICTED BY IDOCK:   -1.87 KCAL/MOL
REMARK 922        TOTAL FREE ENERGY PREDICTED BY IDOCK:   -3.72 KCAL/MOL
REMARK 923 INTER-LIGAND FREE ENERGY PREDICTED BY IDOCK:   -3.15 KCAL/MOL
REMARK 924 INTRA-LIGAND FREE ENERGY PREDICTED BY IDOCK:   -0.57 KCAL/MOL
REMARK 927      BINDING AFFINITY PREDICTED BY RF-SCORE:    0.00 PKD
ROOT
HETATM    1  C   UNL     1      -9.298   8.003  65.777  1.00  0.00     0.060 C  
HETATM    2  N   UNL     1      -9.320   7.537  67.167  1.00  0.00    -0.137 NA 
ENDROOT
BRANCH   2   3
HETATM    3  C   UNL     1     -10.224   6.377  67.333  1.00  0.00    -0.178 C  
BRANCH   3   4
HETATM    4  C   UNL     1      -9.741   5.105  66.648  1.00  0.00    -0.181 A  
HETATM    5  C   UNL     1      -8.572   4.401  67.063  1.00  0.00    -0.104 A  
HETATM    6  C   UNL     1     -10.484   4.637  65.547  1.00  0.00    -0.220 A  
HETATM    7  C   UNL     1      -7.777   4.774  68.172  1.00  0.00    -0.082 A  
HETATM    8  C   UNL     1      -6.600   4.097  68.499  1.00  0.00    -0.045 A  
HETATM    9  C   UNL     1     -10.076   3.514  64.840  1.00  0.00    -0.047 A  
HETATM   10  C   UNL     1      -6.194   3.012  67.736  1.00  0.00    -0.032 A  
HETATM   11  C   UNL     1      -8.918   2.840  65.218  1.00  0.00    -0.137 A  
HETATM   12  C   UNL     1      -8.157   3.272  66.313  1.00  0.00    -0.092 A  
HETATM   13  C   UNL     1      -6.976   2.594  66.659  1.00  0.00    -0.049 A  
ENDBRANCH   3   4
ENDBRANCH   2   3
BRANCH   2  14
HETATM   14  C   UNL     1      -9.685   8.649  68.054  1.00  0.00    -0.158 C  
BRANCH  14  15
HETATM   15  C   UNL     1      -9.280   8.401  69.480  1.00  0.00    -0.154 C  
HETATM   16  C   UNL     1     -10.160   8.189  70.473  1.00  0.00    -0.201 C  
BRANCH  16  17
HETATM   17  C   UNL     1      -9.796   7.842  71.854  1.00  0.00    -0.233 A  
HETATM   18  C   UNL     1      -8.490   7.951  72.346  1.00  0.00    -0.189 A  
HETATM   19  C   UNL     1     -10.514   7.065  74.045  1.00  0.00    -0.222 A  
HETATM   20  C   UNL     1     -10.808   7.411  72.723  1.00  0.00    -0.374 A  
HETATM   21  C   UNL     1      -9.207   7.156  74.514  1.00  0.00    -0.156 A  
HETATM   22  C   UNL     1      -8.196   7.604  73.667  1.00  0.00    -0.218 A  
ENDBRANCH  16  17
ENDBRANCH  14  15
ENDBRANCH   2  14
TORSDOF 5
ENDMDL
MODEL      252
REMARK 921   NORMALIZED FREE ENERGY PREDICTED BY IDOCK:   -1.81 KCAL/MOL
REMARK 922        TOTAL FREE ENERGY PREDICTED BY IDOCK:   -3.65 KCAL/MOL
REMARK 923 INTER-LIGAND FREE ENERGY PREDICTED BY IDOCK:   -2.87 KCAL/MOL
REMARK 924 INTRA-LIGAND FREE ENERGY PREDICTED BY IDOCK:   -0.77 KCAL/MOL
REMARK 927      BINDING AFFINITY PREDICTED BY RF-SCORE:    0.00 PKD
ROOT
HETATM    1  C   UNL     1      -8.897   2.846  65.484  1.00  0.00    -0.131 C  
HETATM    2  N   UNL     1      -8.237   3.607  66.549  1.00  0.00    -0.099 NA 
ENDROOT
BRANCH   2   3
HETATM    3  C   UNL     1      -7.203   4.514  66.004  1.00  0.00    -0.076 C  
BRANCH   3   4
HETATM    4  C   UNL     1      -7.604   5.984  65.990  1.00  0.00    -0.087 A  
HETATM    5  C   UNL     1      -7.889   6.694  64.786  1.00  0.00    -0.115 A  
HETATM    6  C   UNL     1      -7.666   6.653  67.227  1.00  0.00    -0.104 A  
HETATM    7  C   UNL     1      -7.881   6.105  63.500  1.00  0.00    -0.111 A  
HETATM    8  C   UNL     1      -8.097   6.855  62.342  1.00  0.00    -0.108 A  
HETATM    9  C   UNL     1      -7.973   8.006  67.288  1.00  0.00    -0.121 A  
HETATM   10  C   UNL     1      -8.346   8.216  62.439  1.00  0.00    -0.142 A  
HETATM   11  C   UNL     1      -8.221   8.715  66.116  1.00  0.00    -0.121 A  
HETATM   12  C   UNL     1      -8.175   8.081  64.867  1.00  0.00    -0.137 A  
HETATM   13  C   UNL     1      -8.399   8.821  63.694  1.00  0.00    -0.146 A  
ENDBRANCH   3   4
ENDBRANCH   2   3
BRANCH   2  14
HETATM   14  C   UNL     1      -7.685   2.681  67.547  1.00  0.00    -0.061 C  
BRANCH  14  15
HETATM   15  C   UNL     1      -8.080   3.049  68.949  1.00  0.00    -0.069 C  
HETATM   16  C   UNL     1      -8.608   4.240  69.280  1.00  0.00    -0.110 C  
BRANCH  16  17
HETATM   17  C   UNL     1      -9.099   4.593  70.620  1.00  0.00    -0.181 A  
HETATM   18  C   UNL     1     -10.384   5.098  70.850  1.00  0.00    -0.282 A  
HETATM   19  C   UNL     1      -8.669   4.710  73.012  1.00  0.00    -0.113 A  
HETATM   20  C   UNL     1      -8.252   4.387  71.718  1.00  0.00    -0.101 A  
HETATM   21  C   UNL     1      -9.941   5.234  73.223  1.00  0.00    -0.185 A  
HETATM   22  C   UNL     1     -10.800   5.423  72.144  1.00  0.00    -0.275 A  
ENDBRANCH  16  17
ENDBRANCH  14  15
ENDBRANCH   2  14
TORSDOF 5
ENDMDL
MODEL      253
REMARK 921   NORMALIZED FREE ENERGY PREDICTED BY IDOCK:   -1.34 KCAL/MOL
REMARK 922        TOTAL FREE ENERGY PREDICTED BY IDOCK:   -3.03 KCAL/MOL
REMARK 923 INTER-LIGAND FREE ENERGY PREDICTED BY IDOCK:   -2.55 KCAL/MOL
REMARK 924 INTRA-LIGAND FREE ENERGY PREDICTED BY IDOCK:   -0.48 KCAL/MOL
REMARK 927      BINDING AFFINITY PREDICTED BY RF-SCORE:    0.00 PKD
ROOT
HETATM    1  C   UNL     1     -10.096   8.678  71.695  1.00  0.00    -0.294 C  
HETATM    2  N   UNL     1     -10.966   7.591  71.238  1.00  0.00    -0.240 NA 
ENDROOT
BRANCH   2   3
HETATM    3  C   UNL     1     -10.309   6.775  70.193  1.00  0.00    -0.202 C  
BRANCH   3   4
HETATM    4  C   UNL     1      -9.369   5.705  70.734  1.00  0.00    -0.194 A  
HETATM    5  C   UNL     1      -7.950   5.801  70.631  1.00  0.00    -0.109 A  
HETATM    6  C   UNL     1      -9.950   4.572  71.334  1.00  0.00    -0.259 A  
HETATM    7  C   UNL     1      -7.271   6.910  70.071  1.00  0.00    -0.080 A  
HETATM    8  C   UNL     1      -5.882   6.930  69.927  1.00  0.00    -0.023 A  
HETATM    9  C   UNL     1      -9.159   3.531  71.803  1.00  0.00    -0.168 A  
HETATM   10  C   UNL     1      -5.129   5.848  70.357  1.00  0.00    -0.009 A  
HETATM   11  C   UNL     1      -7.774   3.603  71.678  1.00  0.00    -0.060 A  
HETATM   12  C   UNL     1      -7.160   4.718  71.092  1.00  0.00    -0.051 A  
HETATM   13  C   UNL     1      -5.763   4.756  70.949  1.00  0.00    -0.016 A  
ENDBRANCH   3   4
ENDBRANCH   2   3
BRANCH   2  14
HETATM   14  C   UNL     1     -12.247   8.145  70.777  1.00  0.00    -0.002 C  
BRANCH  14  15
HETATM   15  C   UNL     1     -12.256   9.648  70.786  1.00  0.00    -0.309 C  
HETATM   16  C   UNL     1     -13.374  10.380  70.927  1.00  0.00    -0.199 C  
BRANCH  16  17
HETATM   17  C   UNL     1     -13.405  11.845  71.043  1.00  0.00     0.382 A  
HETATM   18  C   UNL     1     -14.169  12.515  72.006  1.00  0.00     0.577 A  
HETATM   19  C   UNL     1     -12.609  13.997  70.235  1.00  0.00    -0.354 A  
HETATM   20  C   UNL     1     -12.612  12.601  70.169  1.00  0.00     0.031 A  
HETATM   21  C   UNL     1     -13.391  14.651  71.182  1.00  0.00    -0.433 A  
HETATM   22  C   UNL     1     -14.167  13.911  72.071  1.00  0.00    -0.536 A  
ENDBRANCH  16  17
ENDBRANCH  14  15
ENDBRANCH   2  14
TORSDOF 5
ENDMDL
MODEL      254
REMARK 921   NORMALIZED FREE ENERGY PREDICTED BY IDOCK:   -1.33 KCAL/MOL
REMARK 922        TOTAL FREE ENERGY PREDICTED BY IDOCK:   -3.02 KCAL/MOL
REMARK 923 INTER-LIGAND FREE ENERGY PREDICTED BY IDOCK:   -4.31 KCAL/MOL
REMARK 924 INTRA-LIGAND FREE ENERGY PREDICTED BY IDOCK:    1.29 KCAL/MOL
REMARK 927      BINDING AFFINITY PREDICTED BY RF-SCORE:    0.00 PKD
ROOT
HETATM    1  C   UNL     1      -7.888   9.672  69.809  1.00  0.00    -0.142 C  
HETATM    2  N   UNL     1      -8.687  10.242  68.720  1.00  0.00    -0.135 NA 
ENDROOT
BRANCH   2   3
HETATM    3  C   UNL     1      -9.364   9.185  67.936  1.00  0.00    -0.137 C  
BRANCH   3   4
HETATM    4  C   UNL     1      -8.433   8.093  67.425  1.00  0.00    -0.126 A  
HETATM    5  C   UNL     1      -8.848   6.737  67.268  1.00  0.00    -0.118 A  
HETATM    6  C   UNL     1      -7.106   8.456  67.125  1.00  0.00    -0.079 A  
HETATM    7  C   UNL     1     -10.164   6.280  67.516  1.00  0.00    -0.213 A  
HETATM    8  C   UNL     1     -10.508   4.930  67.417  1.00  0.00    -0.066 A  
HETATM    9  C   UNL     1      -6.187   7.504  66.705  1.00  0.00    -0.048 A  
HETATM   10  C   UNL     1      -9.548   3.999  67.048  1.00  0.00    -0.231 A  
HETATM   11  C   UNL     1      -6.575   6.173  66.580  1.00  0.00    -0.055 A  
HETATM   12  C   UNL     1      -7.889   5.775  66.863  1.00  0.00    -0.101 A  
HETATM   13  C   UNL     1      -8.251   4.422  66.759  1.00  0.00    -0.102 A  
ENDBRANCH   3   4
ENDBRANCH   2   3
BRANCH   2  14
HETATM   14  C   UNL     1      -7.837  11.093  67.878  1.00  0.00    -0.111 C  
BRANCH  14  15
HETATM   15  C   UNL     1      -8.624  11.832  66.832  1.00  0.00    -0.177 C  
HETATM   16  C   UNL     1      -9.692  11.311  66.206  1.00  0.00    -0.246 C  
BRANCH  16  17
HETATM   17  C   UNL     1     -10.544  12.042  65.256  1.00  0.00    -0.328 A  
HETATM   18  C   UNL     1     -10.765  13.421  65.339  1.00  0.00    -0.307 A  
HETATM   19  C   UNL     1     -11.956  11.975  63.276  1.00  0.00    -0.477 A  
HETATM   20  C   UNL     1     -11.135  11.329  64.203  1.00  0.00    -0.306 A  
HETATM   21  C   UNL     1     -12.186  13.343  63.384  1.00  0.00    -0.419 A  
HETATM   22  C   UNL     1     -11.587  14.068  64.412  1.00  0.00    -0.385 A  
ENDBRANCH  16  17
ENDBRANCH  14  15
ENDBRANCH   2  14
TORSDOF 5
ENDMDL
MODEL      255
REMARK 921   NORMALIZED FREE ENERGY PREDICTED BY IDOCK:   -1.12 KCAL/MOL
REMARK 922        TOTAL FREE ENERGY PREDICTED BY IDOCK:   -2.75 KCAL/MOL
REMARK 923 INTER-LIGAND FREE ENERGY PREDICTED BY IDOCK:   -2.53 KCAL/MOL
REMARK 924 INTRA-LIGAND FREE ENERGY PREDICTED BY IDOCK:   -0.22 KCAL/MOL
REMARK 927      BINDING AFFINITY PREDICTED BY RF-SCORE:    0.00 PKD
ROOT
HETATM    1  C   UNL     1      -7.642   8.054  73.018  1.00  0.00    -0.132 C  
HETATM    2  N   UNL     1      -8.710   7.251  72.414  1.00  0.00    -0.118 NA 
ENDROOT
BRANCH   2   3
HETATM    3  C   UNL     1      -8.159   6.157  71.584  1.00  0.00    -0.110 C  
BRANCH   3   4
HETATM    4  C   UNL     1      -7.551   5.011  72.383  1.00  0.00    -0.095 A  
HETATM    5  C   UNL     1      -8.273   3.822  72.698  1.00  0.00    -0.089 A  
HETATM    6  C   UNL     1      -6.228   5.166  72.838  1.00  0.00    -0.035 A  
HETATM    7  C   UNL     1      -9.595   3.561  72.263  1.00  0.00    -0.206 A  
HETATM    8  C   UNL     1     -10.288   2.414  72.656  1.00  0.00    -0.234 A  
HETATM    9  C   UNL     1      -5.625   4.186  73.616  1.00  0.00    -0.007 A  
HETATM   10  C   UNL     1      -9.672   1.483  73.479  1.00  0.00    -0.099 A  
HETATM   11  C   UNL     1      -6.333   3.036  73.955  1.00  0.00    -0.024 A  
HETATM   12  C   UNL     1      -7.650   2.845  73.515  1.00  0.00    -0.051 A  
HETATM   13  C   UNL     1      -8.357   1.691  73.893  1.00  0.00    -0.046 A  
ENDBRANCH   3   4
ENDBRANCH   2   3
BRANCH   2  14
HETATM   14  C   UNL     1      -9.609   8.123  71.647  1.00  0.00    -0.180 C  
BRANCH  14  15
HETATM   15  C   UNL     1      -8.941   8.713  70.437  1.00  0.00    -0.173 C  
HETATM   16  C   UNL     1      -9.381   8.521  69.183  1.00  0.00    -0.153 C  
BRANCH  16  17
HETATM   17  C   UNL     1      -8.813   9.165  67.989  1.00  0.00    -0.129 A  
HETATM   18  C   UNL     1      -9.044  10.507  67.667  1.00  0.00    -0.146 A  
HETATM   19  C   UNL     1      -7.417   8.972  66.006  1.00  0.00    -0.094 A  
HETATM   20  C   UNL     1      -7.978   8.408  67.155  1.00  0.00    -0.104 A  
HETATM   21  C   UNL     1      -7.674  10.301  65.685  1.00  0.00    -0.148 A  
HETATM   22  C   UNL     1      -8.484  11.071  66.517  1.00  0.00    -0.161 A  
ENDBRANCH  16  17
ENDBRANCH  14  15
ENDBRANCH   2  14
TORSDOF 5
ENDMDL
MODEL      256
REMARK 921   NORMALIZED FREE ENERGY PREDICTED BY IDOCK:   -1.00 KCAL/MOL
REMARK 922        TOTAL FREE ENERGY PREDICTED BY IDOCK:   -2.60 KCAL/MOL
REMARK 923 INTER-LIGAND FREE ENERGY PREDICTED BY IDOCK:   -2.87 KCAL/MOL
REMARK 924 INTRA-LIGAND FREE ENERGY PREDICTED BY IDOCK:    0.28 KCAL/MOL
REMARK 927      BINDING AFFINITY PREDICTED BY RF-SCORE:    0.00 PKD
ROOT
HETATM    1  C   UNL     1      -8.725   2.658  63.705  1.00  0.00    -0.086 C  
HETATM    2  N   UNL     1      -8.106   3.044  64.978  1.00  0.00    -0.086 NA 
ENDROOT
BRANCH   2   3
HETATM    3  C   UNL     1      -7.025   4.033  64.775  1.00  0.00    -0.050 C  
BRANCH   3   4
HETATM    4  C   UNL     1      -7.239   5.353  65.505  1.00  0.00    -0.068 A  
HETATM    5  C   UNL     1      -8.506   5.751  66.022  1.00  0.00    -0.135 A  
HETATM    6  C   UNL     1      -6.129   6.209  65.639  1.00  0.00    -0.033 A  
HETATM    7  C   UNL     1      -9.672   4.951  65.962  1.00  0.00    -0.200 A  
HETATM    8  C   UNL     1     -10.909   5.411  66.419  1.00  0.00    -0.202 A  
HETATM    9  C   UNL     1      -6.260   7.452  66.245  1.00  0.00    -0.041 A  
HETATM   10  C   UNL     1     -11.012   6.680  66.969  1.00  0.00    -0.463 A  
HETATM   11  C   UNL     1      -7.501   7.862  66.725  1.00  0.00    -0.090 A  
HETATM   12  C   UNL     1      -8.626   7.034  66.615  1.00  0.00    -0.124 A  
HETATM   13  C   UNL     1      -9.875   7.479  67.079  1.00  0.00    -0.280 A  
ENDBRANCH   3   4
ENDBRANCH   2   3
BRANCH   2  14
HETATM   14  C   UNL     1      -7.630   1.844  65.678  1.00  0.00    -0.070 C  
BRANCH  14  15
HETATM   15  C   UNL     1      -7.848   1.923  67.163  1.00  0.00    -0.065 C  
HETATM   16  C   UNL     1      -8.133   3.067  67.808  1.00  0.00    -0.082 C  
BRANCH  16  17
HETATM   17  C   UNL     1      -8.452   3.162  69.240  1.00  0.00    -0.098 A  
HETATM   18  C   UNL     1      -9.642   3.723  69.718  1.00  0.00    -0.253 A  
HETATM   19  C   UNL     1      -7.791   2.710  71.537  1.00  0.00    -0.047 A  
HETATM   20  C   UNL     1      -7.536   2.641  70.165  1.00  0.00    -0.043 A  
HETATM   21  C   UNL     1      -8.967   3.292  71.999  1.00  0.00    -0.143 A  
HETATM   22  C   UNL     1      -9.896   3.794  71.090  1.00  0.00    -0.213 A  
ENDBRANCH  16  17
ENDBRANCH  14  15
ENDBRANCH   2  14
TORSDOF 5
ENDMDL
MODEL      257
REMARK 921   NORMALIZED FREE ENERGY PREDICTED BY IDOCK:    0.76 KCAL/MOL
REMARK 922        TOTAL FREE ENERGY PREDICTED BY IDOCK:   -0.33 KCAL/MOL
REMARK 923 INTER-LIGAND FREE ENERGY PREDICTED BY IDOCK:   -2.79 KCAL/MOL
REMARK 924 INTRA-LIGAND FREE ENERGY PREDICTED BY IDOCK:    2.46 KCAL/MOL
REMARK 927      BINDING AFFINITY PREDICTED BY RF-SCORE:    0.00 PKD
ROOT
HETATM    1  C   UNL     1      -9.593   3.953  67.452  1.00  0.00    -0.172 C  
HETATM    2  N   UNL     1      -9.096   5.313  67.224  1.00  0.00    -0.112 NA 
ENDROOT
BRANCH   2   3
HETATM    3  C   UNL     1      -8.275   5.390  65.996  1.00  0.00    -0.116 C  
BRANCH   3   4
HETATM    4  C   UNL     1      -7.464   4.134  65.705  1.00  0.00    -0.081 A  
HETATM    5  C   UNL     1      -6.733   3.438  66.713  1.00  0.00    -0.049 A  
HETATM    6  C   UNL     1      -7.430   3.674  64.375  1.00  0.00    -0.072 A  
HETATM    7  C   UNL     1      -6.726   3.804  68.080  1.00  0.00    -0.046 A  
HETATM    8  C   UNL     1      -5.938   3.135  69.020  1.00  0.00    -0.024 A  
HETATM    9  C   UNL     1      -6.670   2.567  64.025  1.00  0.00    -0.032 A  
HETATM   10  C   UNL     1      -5.149   2.066  68.623  1.00  0.00    -0.011 A  
HETATM   11  C   UNL     1      -5.928   1.900  64.996  1.00  0.00    -0.017 A  
HETATM   12  C   UNL     1      -5.942   2.324  66.332  1.00  0.00    -0.023 A  
HETATM   13  C   UNL     1      -5.162   1.655  67.290  1.00  0.00    -0.008 A  
ENDBRANCH   3   4
ENDBRANCH   2   3
BRANCH   2  14
HETATM   14  C   UNL     1      -8.357   5.772  68.409  1.00  0.00    -0.107 C  
BRANCH  14  15
HETATM   15  C   UNL     1      -9.155   6.733  69.244  1.00  0.00    -0.139 C  
HETATM   16  C   UNL     1      -9.735   7.839  68.748  1.00  0.00    -0.157 C  
BRANCH  16  17
HETATM   17  C   UNL     1     -10.605   8.743  69.514  1.00  0.00    -0.224 A  
HETATM   18  C   UNL     1     -11.601   8.283  70.383  1.00  0.00    -0.060 A  
HETATM   19  C   UNL     1     -11.211  11.027  70.092  1.00  0.00    -0.264 A  
HETATM   20  C   UNL     1     -10.408  10.125  69.389  1.00  0.00    -0.251 A  
HETATM   21  C   UNL     1     -12.213  10.556  70.935  1.00  0.00    -0.490 A  
HETATM   22  C   UNL     1     -12.405   9.185  71.085  1.00  0.00    -0.330 A  
ENDBRANCH  16  17
ENDBRANCH  14  15
ENDBRANCH   2  14
TORSDOF 5
ENDMDL
MODEL      258
REMARK 921   NORMALIZED FREE ENERGY PREDICTED BY IDOCK:    1.68 KCAL/MOL
REMARK 922        TOTAL FREE ENERGY PREDICTED BY IDOCK:    0.87 KCAL/MOL
REMARK 923 INTER-LIGAND FREE ENERGY PREDICTED BY IDOCK:    0.90 KCAL/MOL
REMARK 924 INTRA-LIGAND FREE ENERGY PREDICTED BY IDOCK:   -0.04 KCAL/MOL
REMARK 927      BINDING AFFINITY PREDICTED BY RF-SCORE:    0.00 PKD
ROOT
HETATM    1  C   UNL     1     -10.602  16.380  65.503  1.00  0.00    -0.330 C  
HETATM    2  N   UNL     1     -10.180  15.014  65.829  1.00  0.00    -0.314 NA 
ENDROOT
BRANCH   2   3
HETATM    3  C   UNL     1     -11.328  14.179  66.247  1.00  0.00    -0.338 C  
BRANCH   3   4
HETATM    4  C   UNL     1     -11.790  13.179  65.195  1.00  0.00    -0.392 A  
HETATM    5  C   UNL     1     -10.888  12.319  64.501  1.00  0.00    -0.355 A  
HETATM    6  C   UNL     1     -13.165  13.138  64.895  1.00  0.00     0.227 A  
HETATM    7  C   UNL     1      -9.496  12.266  64.750  1.00  0.00     0.196 A  
HETATM    8  C   UNL     1      -8.641  11.459  63.997  1.00  0.00     0.511 A  
HETATM    9  C   UNL     1     -13.652  12.289  63.910  1.00  0.00     0.954 A  
HETATM   10  C   UNL     1      -9.156  10.664  62.983  1.00  0.00    -0.286 A  
HETATM   11  C   UNL     1     -12.775  11.468  63.205  1.00  0.00     0.048 A  
HETATM   12  C   UNL     1     -11.400  11.478  63.480  1.00  0.00    -0.375 A  
HETATM   13  C   UNL     1     -10.529  10.664  62.737  1.00  0.00     0.533 A  
ENDBRANCH   3   4
ENDBRANCH   2   3
BRANCH   2  14
HETATM   14  C   UNL     1      -9.129  15.055  66.855  1.00  0.00    -0.247 C  
BRANCH  14  15
HETATM   15  C   UNL     1      -9.681  14.925  68.246  1.00  0.00    -0.215 C  
HETATM   16  C   UNL     1     -10.236  15.946  68.920  1.00  0.00    -0.226 C  
BRANCH  16  17
HETATM   17  C   UNL     1     -10.877  15.830  70.238  1.00  0.00    -0.363 A  
HETATM   18  C   UNL     1     -10.508  16.616  71.335  1.00  0.00     2.064 A  
HETATM   19  C   UNL     1     -12.564  14.757  71.625  1.00  0.00    -0.394 A  
HETATM   20  C   UNL     1     -11.924  14.910  70.392  1.00  0.00    -0.368 A  
HETATM   21  C   UNL     1     -12.171  15.529  72.714  1.00  0.00    -0.538 A  
HETATM   22  C   UNL     1     -11.147  16.462  72.569  1.00  0.00     1.111 A  
ENDBRANCH  16  17
ENDBRANCH  14  15
ENDBRANCH   2  14
TORSDOF 5
ENDMDL
MODEL      259
REMARK 921   NORMALIZED FREE ENERGY PREDICTED BY IDOCK:    1.86 KCAL/MOL
REMARK 922        TOTAL FREE ENERGY PREDICTED BY IDOCK:    1.09 KCAL/MOL
REMARK 923 INTER-LIGAND FREE ENERGY PREDICTED BY IDOCK:    1.90 KCAL/MOL
REMARK 924 INTRA-LIGAND FREE ENERGY PREDICTED BY IDOCK:   -0.81 KCAL/MOL
REMARK 927      BINDING AFFINITY PREDICTED BY RF-SCORE:    0.00 PKD
ROOT
HETATM    1  C   UNL     1      -5.130  15.397  72.164  1.00  0.00     0.001 C  
HETATM    2  N   UNL     1      -5.885  15.160  70.930  1.00  0.00    -0.036 NA 
ENDROOT
BRANCH   2   3
HETATM    3  C   UNL     1      -7.018  16.103  70.800  1.00  0.00     1.866 C  
BRANCH   3   4
HETATM    4  C   UNL     1      -7.513  16.292  69.372  1.00  0.00    -0.152 A  
HETATM    5  C   UNL     1      -8.881  16.542  69.056  1.00  0.00    -0.223 A  
HETATM    6  C   UNL     1      -6.566  16.188  68.335  1.00  0.00    -0.127 A  
HETATM    7  C   UNL     1      -9.901  16.691  70.026  1.00  0.00     0.603 A  
HETATM    8  C   UNL     1     -11.241  16.864  69.669  1.00  0.00     0.250 A  
HETATM    9  C   UNL     1      -6.952  16.297  67.006  1.00  0.00    -0.250 A  
HETATM   10  C   UNL     1     -11.596  16.913  68.330  1.00  0.00     0.374 A  
HETATM   11  C   UNL     1      -8.291  16.509  66.688  1.00  0.00    -0.297 A  
HETATM   12  C   UNL     1      -9.261  16.624  67.693  1.00  0.00    -0.208 A  
HETATM   13  C   UNL     1     -10.611  16.809  67.349  1.00  0.00    -0.291 A  
ENDBRANCH   3   4
ENDBRANCH   2   3
BRANCH   2  14
HETATM   14  C   UNL     1      -6.327  13.760  70.884  1.00  0.00     0.209 C  
BRANCH  14  15
HETATM   15  C   UNL     1      -7.432  13.541  69.889  1.00  0.00     0.944 C  
HETATM   16  C   UNL     1      -7.796  12.327  69.443  1.00  0.00     0.648 C  
BRANCH  16  17
HETATM   17  C   UNL     1      -8.936  12.070  68.552  1.00  0.00    -0.098 A  
HETATM   18  C   UNL     1      -9.458  10.789  68.336  1.00  0.00    -0.174 A  
HETATM   19  C   UNL     1     -10.629  12.970  67.055  1.00  0.00    -0.262 A  
HETATM   20  C   UNL     1      -9.545  13.160  67.915  1.00  0.00    -0.218 A  
HETATM   21  C   UNL     1     -11.124  11.688  66.830  1.00  0.00    -0.365 A  
HETATM   22  C   UNL     1     -10.542  10.598  67.474  1.00  0.00    -0.297 A  
ENDBRANCH  16  17
ENDBRANCH  14  15
ENDBRANCH   2  14
TORSDOF 5
ENDMDL
