MODEL        1
REMARK 921   NORMALIZED FREE ENERGY PREDICTED BY IDOCK:   -6.74 KCAL/MOL
REMARK 922        TOTAL FREE ENERGY PREDICTED BY IDOCK:   -8.40 KCAL/MOL
REMARK 923 INTER-LIGAND FREE ENERGY PREDICTED BY IDOCK:   -7.92 KCAL/MOL
REMARK 924 INTRA-LIGAND FREE ENERGY PREDICTED BY IDOCK:   -0.48 KCAL/MOL
REMARK 927      BINDING AFFINITY PREDICTED BY RF-SCORE:    0.00 PKD
ROOT
HETATM    1  N   UNL     1     -12.535  14.183  63.212  1.00  0.00    -1.098 N  
HETATM    2  H1  UNL     1     -11.832  14.899  63.028  1.00  0.00     0.000 HD 
HETATM    3  C   UNL     1     -12.391  13.239  64.173  1.00  0.00    -0.341 C  
HETATM    4  H2  UNL     1     -13.385  14.177  62.646  1.00  0.00     0.000 HD 
HETATM    5  O   UNL     1     -13.235  12.379  64.394  1.00  0.00    -0.816 OA 
ENDROOT
BRANCH   3   6
HETATM    6  N   UNL     1     -11.219  13.330  64.882  1.00  0.00    -0.308 N  
HETATM    7  H   UNL     1     -11.015  12.637  65.602  1.00  0.00     0.000 HD 
BRANCH   6   8
HETATM    8  N   UNL     1     -10.321  14.329  64.642  1.00  0.00    -0.594 NA 
HETATM    9  H   UNL     1      -9.848  14.380  63.739  1.00  0.00     0.000 HD 
BRANCH   8  10
HETATM   10  C   UNL     1     -10.064  15.215  65.556  1.00  0.00    -0.370 C  
HETATM   11  C   UNL     1      -9.353  15.011  66.848  1.00  0.00    -0.258 C  
HETATM   12  C   UNL     1      -9.123  16.029  67.686  1.00  0.00    -0.200 C  
HETATM   13  C   UNL     1      -9.549  17.397  67.401  1.00  0.00    -0.257 A  
HETATM   14  C   UNL     1      -9.262  18.425  68.310  1.00  0.00    -0.333 A  
HETATM   15  C   UNL     1      -9.668  19.736  68.049  1.00  0.00    -0.505 A  
HETATM   16  C   UNL     1     -10.365  20.035  66.880  1.00  0.00    -0.567 A  
HETATM   17  C   UNL     1     -10.656  19.021  65.967  1.00  0.00    -0.499 A  
HETATM   18  C   UNL     1     -10.246  17.707  66.231  1.00  0.00    -0.362 A  
HETATM   19  C   UNL     1     -10.552  16.636  65.264  1.00  0.00    -0.205 C  
HETATM   20  O   UNL     1     -11.182  16.877  64.242  1.00  0.00    -1.204 OA 
ENDBRANCH   8  10
ENDBRANCH   6   8
ENDBRANCH   3   6
TORSDOF 3
ENDMDL
MODEL        2
REMARK 921   NORMALIZED FREE ENERGY PREDICTED BY IDOCK:   -6.46 KCAL/MOL
REMARK 922        TOTAL FREE ENERGY PREDICTED BY IDOCK:   -8.08 KCAL/MOL
REMARK 923 INTER-LIGAND FREE ENERGY PREDICTED BY IDOCK:   -7.91 KCAL/MOL
REMARK 924 INTRA-LIGAND FREE ENERGY PREDICTED BY IDOCK:   -0.17 KCAL/MOL
REMARK 927      BINDING AFFINITY PREDICTED BY RF-SCORE:    0.00 PKD
ROOT
HETATM    1  N   UNL     1     -11.254  11.350  63.203  1.00  0.00    -0.854 N  
HETATM    2  H1  UNL     1     -10.331  11.653  62.890  1.00  0.00     0.000 HD 
HETATM    3  C   UNL     1     -12.288  12.207  63.383  1.00  0.00    -0.538 C  
HETATM    4  H2  UNL     1     -11.406  10.358  63.386  1.00  0.00     0.000 HD 
HETATM    5  O   UNL     1     -13.396  11.844  63.758  1.00  0.00    -0.614 OA 
ENDROOT
BRANCH   3   6
HETATM    6  N   UNL     1     -11.988  13.518  63.108  1.00  0.00    -0.773 N  
HETATM    7  H   UNL     1     -11.402  13.739  62.304  1.00  0.00     0.000 HD 
BRANCH   6   8
HETATM    8  N   UNL     1     -12.459  14.532  63.890  1.00  0.00    -1.031 NA 
HETATM    9  H   UNL     1     -13.280  15.061  63.595  1.00  0.00     0.000 HD 
BRANCH   8  10
HETATM   10  C   UNL     1     -11.869  14.828  65.008  1.00  0.00    -0.343 C  
HETATM   11  C   UNL     1     -11.776  13.995  66.239  1.00  0.00    -0.401 C  
HETATM   12  C   UNL     1     -11.100  14.412  67.315  1.00  0.00    -0.318 C  
HETATM   13  C   UNL     1     -10.412  15.699  67.364  1.00  0.00    -0.291 A  
HETATM   14  C   UNL     1      -9.702  16.073  68.514  1.00  0.00    -0.214 A  
HETATM   15  C   UNL     1      -9.045  17.304  68.573  1.00  0.00    -0.269 A  
HETATM   16  C   UNL     1      -9.088  18.176  67.486  1.00  0.00    -0.254 A  
HETATM   17  C   UNL     1      -9.790  17.815  66.336  1.00  0.00    -0.328 A  
HETATM   18  C   UNL     1     -10.448  16.579  66.280  1.00  0.00    -0.285 A  
HETATM   19  C   UNL     1     -11.187  16.198  65.061  1.00  0.00    -0.220 C  
HETATM   20  O   UNL     1     -11.254  16.961  64.105  1.00  0.00    -1.176 OA 
ENDBRANCH   8  10
ENDBRANCH   6   8
ENDBRANCH   3   6
TORSDOF 3
ENDMDL
MODEL        3
REMARK 921   NORMALIZED FREE ENERGY PREDICTED BY IDOCK:   -6.23 KCAL/MOL
REMARK 922        TOTAL FREE ENERGY PREDICTED BY IDOCK:   -7.81 KCAL/MOL
REMARK 923 INTER-LIGAND FREE ENERGY PREDICTED BY IDOCK:   -7.35 KCAL/MOL
REMARK 924 INTRA-LIGAND FREE ENERGY PREDICTED BY IDOCK:   -0.46 KCAL/MOL
REMARK 927      BINDING AFFINITY PREDICTED BY RF-SCORE:    0.00 PKD
ROOT
HETATM    1  N   UNL     1     -12.502  14.319  63.467  1.00  0.00    -1.102 N  
HETATM    2  H1  UNL     1     -11.790  15.051  63.483  1.00  0.00     0.000 HD 
HETATM    3  C   UNL     1     -12.199  12.999  63.497  1.00  0.00    -0.501 C  
HETATM    4  H2  UNL     1     -13.483  14.593  63.428  1.00  0.00     0.000 HD 
HETATM    5  O   UNL     1     -13.052  12.120  63.478  1.00  0.00    -0.785 OA 
ENDROOT
BRANCH   3   6
HETATM    6  N   UNL     1     -10.854  12.729  63.553  1.00  0.00    -0.531 N  
HETATM    7  H   UNL     1     -10.389  12.336  62.735  1.00  0.00     0.000 HD 
BRANCH   6   8
HETATM    8  N   UNL     1     -10.128  12.976  64.681  1.00  0.00    -0.568 NA 
HETATM    9  H   UNL     1      -9.255  13.500  64.617  1.00  0.00     0.000 HD 
BRANCH   8  10
HETATM   10  C   UNL     1     -10.541  12.548  65.835  1.00  0.00    -0.265 C  
HETATM   11  C   UNL     1     -10.566  11.144  66.331  1.00  0.00    -0.315 C  
HETATM   12  C   UNL     1     -10.987  10.847  67.566  1.00  0.00    -0.352 C  
HETATM   13  C   UNL     1     -11.450  11.864  68.507  1.00  0.00    -0.349 A  
HETATM   14  C   UNL     1     -11.861  11.493  69.794  1.00  0.00    -0.429 A  
HETATM   15  C   UNL     1     -12.310  12.457  70.701  1.00  0.00    -0.367 A  
HETATM   16  C   UNL     1     -12.354  13.800  70.332  1.00  0.00    -0.423 A  
HETATM   17  C   UNL     1     -11.946  14.182  69.054  1.00  0.00    -0.376 A  
HETATM   18  C   UNL     1     -11.496  13.213  68.148  1.00  0.00    -0.349 A  
HETATM   19  C   UNL     1     -11.063  13.619  66.797  1.00  0.00    -0.307 C  
HETATM   20  O   UNL     1     -11.115  14.792  66.449  1.00  0.00    -0.330 OA 
ENDBRANCH   8  10
ENDBRANCH   6   8
ENDBRANCH   3   6
TORSDOF 3
ENDMDL
MODEL        4
REMARK 921   NORMALIZED FREE ENERGY PREDICTED BY IDOCK:   -6.22 KCAL/MOL
REMARK 922        TOTAL FREE ENERGY PREDICTED BY IDOCK:   -7.80 KCAL/MOL
REMARK 923 INTER-LIGAND FREE ENERGY PREDICTED BY IDOCK:   -7.39 KCAL/MOL
REMARK 924 INTRA-LIGAND FREE ENERGY PREDICTED BY IDOCK:   -0.41 KCAL/MOL
REMARK 927      BINDING AFFINITY PREDICTED BY RF-SCORE:    0.00 PKD
ROOT
HETATM    1  N   UNL     1     -12.375  14.163  63.574  1.00  0.00    -1.127 N  
HETATM    2  H1  UNL     1     -11.863  15.021  63.369  1.00  0.00     0.000 HD 
HETATM    3  C   UNL     1     -12.438  13.623  64.816  1.00  0.00    -0.350 C  
HETATM    4  H2  UNL     1     -12.860  13.689  62.812  1.00  0.00     0.000 HD 
HETATM    5  O   UNL     1     -13.052  12.592  65.063  1.00  0.00    -0.808 OA 
ENDROOT
BRANCH   3   6
HETATM    6  N   UNL     1     -11.757  14.331  65.774  1.00  0.00    -0.351 N  
HETATM    7  H   UNL     1     -11.826  15.349  65.787  1.00  0.00     0.000 HD 
BRANCH   6   8
HETATM    8  N   UNL     1     -10.990  13.701  66.711  1.00  0.00    -0.290 NA 
HETATM    9  H   UNL     1     -10.030  13.438  66.486  1.00  0.00     0.000 HD 
BRANCH   8  10
HETATM   10  C   UNL     1     -11.475  13.434  67.885  1.00  0.00    -0.315 C  
HETATM   11  C   UNL     1     -11.679  12.095  68.504  1.00  0.00    -0.382 C  
HETATM   12  C   UNL     1     -12.158  11.967  69.747  1.00  0.00    -0.317 C  
HETATM   13  C   UNL     1     -12.513  13.115  70.578  1.00  0.00    -0.322 A  
HETATM   14  C   UNL     1     -12.992  12.917  71.881  1.00  0.00    -0.405 A  
HETATM   15  C   UNL     1     -13.338  14.008  72.682  1.00  0.00    -0.643 A  
HETATM   16  C   UNL     1     -13.212  15.307  72.193  1.00  0.00    -0.489 A  
HETATM   17  C   UNL     1     -12.736  15.516  70.899  1.00  0.00    -0.525 A  
HETATM   18  C   UNL     1     -12.388  14.421  70.098  1.00  0.00    -0.406 A  
HETATM   19  C   UNL     1     -11.882  14.645  68.730  1.00  0.00    -0.313 C  
HETATM   20  O   UNL     1     -11.785  15.778  68.276  1.00  0.00    -0.345 OA 
ENDBRANCH   8  10
ENDBRANCH   6   8
ENDBRANCH   3   6
TORSDOF 3
ENDMDL
MODEL        5
REMARK 921   NORMALIZED FREE ENERGY PREDICTED BY IDOCK:   -6.04 KCAL/MOL
REMARK 922        TOTAL FREE ENERGY PREDICTED BY IDOCK:   -7.58 KCAL/MOL
REMARK 923 INTER-LIGAND FREE ENERGY PREDICTED BY IDOCK:   -6.96 KCAL/MOL
REMARK 924 INTRA-LIGAND FREE ENERGY PREDICTED BY IDOCK:   -0.63 KCAL/MOL
REMARK 927      BINDING AFFINITY PREDICTED BY RF-SCORE:    0.00 PKD
ROOT
HETATM    1  N   UNL     1     -14.011   8.763  73.070  1.00  0.00    -0.854 N  
HETATM    2  H1  UNL     1     -13.789   9.734  73.291  1.00  0.00     0.000 HD 
HETATM    3  C   UNL     1     -14.087   8.296  71.800  1.00  0.00    -0.437 C  
HETATM    4  H2  UNL     1     -14.184   8.114  73.839  1.00  0.00     0.000 HD 
HETATM    5  O   UNL     1     -14.355   7.130  71.535  1.00  0.00    -0.406 OA 
ENDROOT
BRANCH   3   6
HETATM    6  N   UNL     1     -13.837   9.240  70.836  1.00  0.00    -0.535 N  
HETATM    7  H   UNL     1     -14.619   9.710  70.381  1.00  0.00     0.000 HD 
BRANCH   6   8
HETATM    8  N   UNL     1     -12.561   9.563  70.474  1.00  0.00    -0.497 NA 
HETATM    9  H   UNL     1     -11.831   8.850  70.500  1.00  0.00     0.000 HD 
BRANCH   8  10
HETATM   10  C   UNL     1     -12.271  10.772  70.099  1.00  0.00    -0.346 C  
HETATM   11  C   UNL     1     -11.611  11.199  68.835  1.00  0.00    -0.385 C  
HETATM   12  C   UNL     1     -11.404  12.492  68.558  1.00  0.00    -0.337 C  
HETATM   13  C   UNL     1     -11.803  13.566  69.464  1.00  0.00    -0.392 A  
HETATM   14  C   UNL     1     -11.576  14.903  69.110  1.00  0.00    -0.331 A  
HETATM   15  C   UNL     1     -11.950  15.938  69.972  1.00  0.00    -0.297 A  
HETATM   16  C   UNL     1     -12.552  15.649  71.196  1.00  0.00    -0.511 A  
HETATM   17  C   UNL     1     -12.783  14.323  71.559  1.00  0.00    -0.425 A  
HETATM   18  C   UNL     1     -12.408  13.288  70.692  1.00  0.00    -0.416 A  
HETATM   19  C   UNL     1     -12.656  11.885  71.077  1.00  0.00    -0.283 C  
HETATM   20  O   UNL     1     -13.164  11.612  72.157  1.00  0.00    -0.504 OA 
ENDBRANCH   8  10
ENDBRANCH   6   8
ENDBRANCH   3   6
TORSDOF 3
ENDMDL
MODEL        6
REMARK 921   NORMALIZED FREE ENERGY PREDICTED BY IDOCK:   -6.03 KCAL/MOL
REMARK 922        TOTAL FREE ENERGY PREDICTED BY IDOCK:   -7.57 KCAL/MOL
REMARK 923 INTER-LIGAND FREE ENERGY PREDICTED BY IDOCK:   -7.12 KCAL/MOL
REMARK 924 INTRA-LIGAND FREE ENERGY PREDICTED BY IDOCK:   -0.46 KCAL/MOL
REMARK 927      BINDING AFFINITY PREDICTED BY RF-SCORE:    0.00 PKD
ROOT
HETATM    1  N   UNL     1     -10.915  11.135  62.969  1.00  0.00    -0.821 N  
HETATM    2  H1  UNL     1      -9.900  11.127  63.074  1.00  0.00     0.000 HD 
HETATM    3  C   UNL     1     -11.688  12.173  63.369  1.00  0.00    -0.444 C  
HETATM    4  H2  UNL     1     -11.368  10.325  62.544  1.00  0.00     0.000 HD 
HETATM    5  O   UNL     1     -12.906  12.182  63.244  1.00  0.00    -0.735 OA 
ENDROOT
BRANCH   3   6
HETATM    6  N   UNL     1     -10.989  13.215  63.926  1.00  0.00    -0.541 N  
HETATM    7  H   UNL     1      -9.981  13.129  64.055  1.00  0.00     0.000 HD 
BRANCH   6   8
HETATM    8  N   UNL     1     -11.616  14.365  64.309  1.00  0.00    -0.627 NA 
HETATM    9  H   UNL     1     -12.317  14.788  63.700  1.00  0.00     0.000 HD 
BRANCH   8  10
HETATM   10  C   UNL     1     -11.327  14.923  65.445  1.00  0.00    -0.346 C  
HETATM   11  C   UNL     1     -10.606  16.206  65.672  1.00  0.00    -0.377 C  
HETATM   12  C   UNL     1     -10.407  16.685  66.906  1.00  0.00    -0.299 C  
HETATM   13  C   UNL     1     -10.873  15.995  68.106  1.00  0.00    -0.322 A  
HETATM   14  C   UNL     1     -10.652  16.557  69.370  1.00  0.00    -0.329 A  
HETATM   15  C   UNL     1     -11.090  15.903  70.524  1.00  0.00    -0.381 A  
HETATM   16  C   UNL     1     -11.753  14.680  70.429  1.00  0.00    -0.355 A  
HETATM   17  C   UNL     1     -11.981  14.111  69.176  1.00  0.00    -0.388 A  
HETATM   18  C   UNL     1     -11.541  14.771  68.020  1.00  0.00    -0.367 A  
HETATM   19  C   UNL     1     -11.785  14.168  66.696  1.00  0.00    -0.403 C  
HETATM   20  O   UNL     1     -12.347  13.085  66.595  1.00  0.00    -0.381 OA 
ENDBRANCH   8  10
ENDBRANCH   6   8
ENDBRANCH   3   6
TORSDOF 3
ENDMDL
MODEL        7
REMARK 921   NORMALIZED FREE ENERGY PREDICTED BY IDOCK:   -6.03 KCAL/MOL
REMARK 922        TOTAL FREE ENERGY PREDICTED BY IDOCK:   -7.56 KCAL/MOL
REMARK 923 INTER-LIGAND FREE ENERGY PREDICTED BY IDOCK:   -7.20 KCAL/MOL
REMARK 924 INTRA-LIGAND FREE ENERGY PREDICTED BY IDOCK:   -0.37 KCAL/MOL
REMARK 927      BINDING AFFINITY PREDICTED BY RF-SCORE:    0.00 PKD
ROOT
HETATM    1  N   UNL     1     -12.389  14.123  63.703  1.00  0.00    -1.092 N  
HETATM    2  H1  UNL     1     -12.203  15.081  63.406  1.00  0.00     0.000 HD 
HETATM    3  C   UNL     1     -12.257  13.712  64.988  1.00  0.00    -0.421 C  
HETATM    4  H2  UNL     1     -12.688  13.444  63.003  1.00  0.00     0.000 HD 
HETATM    5  O   UNL     1     -12.480  12.561  65.345  1.00  0.00    -0.630 OA 
ENDROOT
BRANCH   3   6
HETATM    6  N   UNL     1     -11.853  14.696  65.856  1.00  0.00    -0.317 N  
HETATM    7  H   UNL     1     -12.232  15.637  65.755  1.00  0.00     0.000 HD 
BRANCH   6   8
HETATM    8  N   UNL     1     -10.956  14.438  66.851  1.00  0.00    -0.302 NA 
HETATM    9  H   UNL     1     -10.117  13.893  66.649  1.00  0.00     0.000 HD 
BRANCH   8  10
HETATM   10  C   UNL     1     -11.163  14.883  68.053  1.00  0.00    -0.308 C  
HETATM   11  C   UNL     1     -10.825  16.227  68.598  1.00  0.00    -0.322 C  
HETATM   12  C   UNL     1     -11.131  16.566  69.856  1.00  0.00    -0.241 C  
HETATM   13  C   UNL     1     -11.808  15.657  70.777  1.00  0.00    -0.421 A  
HETATM   14  C   UNL     1     -12.119  16.077  72.077  1.00  0.00    -0.606 A  
HETATM   15  C   UNL     1     -12.762  15.212  72.967  1.00  0.00    -0.556 A  
HETATM   16  C   UNL     1     -13.101  13.920  72.569  1.00  0.00    -0.533 A  
HETATM   17  C   UNL     1     -12.797  13.490  71.278  1.00  0.00    -0.420 A  
HETATM   18  C   UNL     1     -12.153  14.360  70.387  1.00  0.00    -0.399 A  
HETATM   19  C   UNL     1     -11.835  13.904  69.020  1.00  0.00    -0.358 C  
HETATM   20  O   UNL     1     -12.105  12.765  68.661  1.00  0.00    -0.273 OA 
ENDBRANCH   8  10
ENDBRANCH   6   8
ENDBRANCH   3   6
TORSDOF 3
ENDMDL
MODEL        8
REMARK 921   NORMALIZED FREE ENERGY PREDICTED BY IDOCK:   -6.02 KCAL/MOL
REMARK 922        TOTAL FREE ENERGY PREDICTED BY IDOCK:   -7.56 KCAL/MOL
REMARK 923 INTER-LIGAND FREE ENERGY PREDICTED BY IDOCK:   -7.38 KCAL/MOL
REMARK 924 INTRA-LIGAND FREE ENERGY PREDICTED BY IDOCK:   -0.18 KCAL/MOL
REMARK 927      BINDING AFFINITY PREDICTED BY RF-SCORE:    0.00 PKD
ROOT
HETATM    1  N   UNL     1     -11.938  12.286  63.236  1.00  0.00    -0.733 N  
HETATM    2  H1  UNL     1     -12.460  13.143  63.424  1.00  0.00     0.000 HD 
HETATM    3  C   UNL     1     -10.641  12.121  63.594  1.00  0.00    -0.461 C  
HETATM    4  H2  UNL     1     -12.412  11.521  62.757  1.00  0.00     0.000 HD 
HETATM    5  O   UNL     1     -10.014  11.093  63.368  1.00  0.00    -0.314 OA 
ENDROOT
BRANCH   3   6
HETATM    6  N   UNL     1     -10.090  13.203  64.235  1.00  0.00    -0.616 N  
HETATM    7  H   UNL     1      -9.109  13.175  64.509  1.00  0.00     0.000 HD 
BRANCH   6   8
HETATM    8  N   UNL     1     -10.831  14.315  64.513  1.00  0.00    -0.603 NA 
HETATM    9  H   UNL     1     -11.686  14.498  63.988  1.00  0.00     0.000 HD 
BRANCH   8  10
HETATM   10  C   UNL     1     -10.453  15.140  65.441  1.00  0.00    -0.393 C  
HETATM   11  C   UNL     1      -9.744  14.821  66.711  1.00  0.00    -0.264 C  
HETATM   12  C   UNL     1      -9.379  15.783  67.567  1.00  0.00    -0.210 C  
HETATM   13  C   UNL     1      -9.646  17.198  67.325  1.00  0.00    -0.245 A  
HETATM   14  C   UNL     1      -9.222  18.162  68.250  1.00  0.00    -0.307 A  
HETATM   15  C   UNL     1      -9.476  19.518  68.029  1.00  0.00    -0.424 A  
HETATM   16  C   UNL     1     -10.157  19.926  66.883  1.00  0.00    -0.579 A  
HETATM   17  C   UNL     1     -10.584  18.978  65.955  1.00  0.00    -0.499 A  
HETATM   18  C   UNL     1     -10.326  17.619  66.179  1.00  0.00    -0.334 A  
HETATM   19  C   UNL     1     -10.776  16.616  65.194  1.00  0.00    -0.189 C  
HETATM   20  O   UNL     1     -11.394  16.956  64.193  1.00  0.00    -1.208 OA 
ENDBRANCH   8  10
ENDBRANCH   6   8
ENDBRANCH   3   6
TORSDOF 3
ENDMDL
MODEL        9
REMARK 921   NORMALIZED FREE ENERGY PREDICTED BY IDOCK:   -6.02 KCAL/MOL
REMARK 922        TOTAL FREE ENERGY PREDICTED BY IDOCK:   -7.55 KCAL/MOL
REMARK 923 INTER-LIGAND FREE ENERGY PREDICTED BY IDOCK:   -7.20 KCAL/MOL
REMARK 924 INTRA-LIGAND FREE ENERGY PREDICTED BY IDOCK:   -0.36 KCAL/MOL
REMARK 927      BINDING AFFINITY PREDICTED BY RF-SCORE:    0.00 PKD
ROOT
HETATM    1  N   UNL     1     -12.478  15.078  63.754  1.00  0.00    -1.049 N  
HETATM    2  H1  UNL     1     -12.591  14.067  63.679  1.00  0.00     0.000 HD 
HETATM    3  C   UNL     1     -11.410  15.657  64.354  1.00  0.00    -0.263 C  
HETATM    4  H2  UNL     1     -13.202  15.681  63.360  1.00  0.00     0.000 HD 
HETATM    5  O   UNL     1     -11.275  16.871  64.445  1.00  0.00    -1.159 OA 
ENDROOT
BRANCH   3   6
HETATM    6  N   UNL     1     -10.491  14.766  64.850  1.00  0.00    -0.484 N  
HETATM    7  H   UNL     1     -10.183  13.989  64.267  1.00  0.00     0.000 HD 
BRANCH   6   8
HETATM    8  N   UNL     1      -9.980  14.902  66.108  1.00  0.00    -0.285 NA 
HETATM    9  H   UNL     1      -9.116  15.425  66.252  1.00  0.00     0.000 HD 
BRANCH   8  10
HETATM   10  C   UNL     1     -10.587  14.367  67.124  1.00  0.00    -0.277 C  
HETATM   11  C   UNL     1     -10.838  12.922  67.379  1.00  0.00    -0.272 C  
HETATM   12  C   UNL     1     -11.448  12.506  68.495  1.00  0.00    -0.346 C  
HETATM   13  C   UNL     1     -11.910  13.425  69.532  1.00  0.00    -0.391 A  
HETATM   14  C   UNL     1     -12.526  12.927  70.688  1.00  0.00    -0.333 A  
HETATM   15  C   UNL     1     -12.976  13.799  71.683  1.00  0.00    -0.448 A  
HETATM   16  C   UNL     1     -12.816  15.175  71.535  1.00  0.00    -0.442 A  
HETATM   17  C   UNL     1     -12.204  15.683  70.389  1.00  0.00    -0.429 A  
HETATM   18  C   UNL     1     -11.753  14.806  69.393  1.00  0.00    -0.358 A  
HETATM   19  C   UNL     1     -11.104  15.345  68.183  1.00  0.00    -0.309 C  
HETATM   20  O   UNL     1     -10.974  16.553  68.027  1.00  0.00    -0.352 OA 
ENDBRANCH   8  10
ENDBRANCH   6   8
ENDBRANCH   3   6
TORSDOF 3
ENDMDL
MODEL       10
REMARK 921   NORMALIZED FREE ENERGY PREDICTED BY IDOCK:   -6.01 KCAL/MOL
REMARK 922        TOTAL FREE ENERGY PREDICTED BY IDOCK:   -7.54 KCAL/MOL
REMARK 923 INTER-LIGAND FREE ENERGY PREDICTED BY IDOCK:   -6.88 KCAL/MOL
REMARK 924 INTRA-LIGAND FREE ENERGY PREDICTED BY IDOCK:   -0.67 KCAL/MOL
REMARK 927      BINDING AFFINITY PREDICTED BY RF-SCORE:    0.00 PKD
ROOT
HETATM    1  N   UNL     1     -12.052   7.873  72.741  1.00  0.00    -0.614 N  
HETATM    2  H1  UNL     1     -11.982   8.766  73.230  1.00  0.00     0.000 HD 
HETATM    3  C   UNL     1     -11.713   7.718  71.438  1.00  0.00    -0.282 C  
HETATM    4  H2  UNL     1     -12.392   7.061  73.256  1.00  0.00     0.000 HD 
HETATM    5  O   UNL     1     -11.797   6.646  70.851  1.00  0.00    -0.359 OA 
ENDROOT
BRANCH   3   6
HETATM    6  N   UNL     1     -11.264   8.865  70.832  1.00  0.00    -0.266 N  
HETATM    7  H   UNL     1     -10.311   9.182  71.005  1.00  0.00     0.000 HD 
BRANCH   6   8
HETATM    8  N   UNL     1     -12.070   9.590  70.002  1.00  0.00    -0.433 NA 
HETATM    9  H   UNL     1     -12.649   9.111  69.312  1.00  0.00     0.000 HD 
BRANCH   8  10
HETATM   10  C   UNL     1     -12.103  10.885  70.085  1.00  0.00    -0.349 C  
HETATM   11  C   UNL     1     -11.529  11.875  69.132  1.00  0.00    -0.356 C  
HETATM   12  C   UNL     1     -11.670  13.192  69.324  1.00  0.00    -0.376 C  
HETATM   13  C   UNL     1     -12.386  13.750  70.469  1.00  0.00    -0.429 A  
HETATM   14  C   UNL     1     -12.517  15.139  70.606  1.00  0.00    -0.442 A  
HETATM   15  C   UNL     1     -13.195  15.682  71.699  1.00  0.00    -0.554 A  
HETATM   16  C   UNL     1     -13.749  14.847  72.668  1.00  0.00    -0.552 A  
HETATM   17  C   UNL     1     -13.626  13.464  72.542  1.00  0.00    -0.659 A  
HETATM   18  C   UNL     1     -12.946  12.921  71.444  1.00  0.00    -0.362 A  
HETATM   19  C   UNL     1     -12.819  11.457  71.312  1.00  0.00    -0.379 C  
HETATM   20  O   UNL     1     -13.282  10.709  72.164  1.00  0.00    -0.464 OA 
ENDBRANCH   8  10
ENDBRANCH   6   8
ENDBRANCH   3   6
TORSDOF 3
ENDMDL
MODEL       11
REMARK 921   NORMALIZED FREE ENERGY PREDICTED BY IDOCK:   -5.98 KCAL/MOL
REMARK 922        TOTAL FREE ENERGY PREDICTED BY IDOCK:   -7.51 KCAL/MOL
REMARK 923 INTER-LIGAND FREE ENERGY PREDICTED BY IDOCK:   -7.14 KCAL/MOL
REMARK 924 INTRA-LIGAND FREE ENERGY PREDICTED BY IDOCK:   -0.38 KCAL/MOL
REMARK 927      BINDING AFFINITY PREDICTED BY RF-SCORE:    0.00 PKD
ROOT
HETATM    1  N   UNL     1     -12.149  11.606  62.989  1.00  0.00    -0.927 N  
HETATM    2  H1  UNL     1     -11.995  10.672  63.370  1.00  0.00     0.000 HD 
HETATM    3  C   UNL     1     -12.380  12.690  63.768  1.00  0.00    -0.478 C  
HETATM    4  H2  UNL     1     -12.129  11.729  61.976  1.00  0.00     0.000 HD 
HETATM    5  O   UNL     1     -12.565  13.811  63.311  1.00  0.00    -0.830 OA 
ENDROOT
BRANCH   3   6
HETATM    6  N   UNL     1     -12.385  12.425  65.116  1.00  0.00    -0.412 N  
HETATM    7  H   UNL     1     -13.243  12.094  65.556  1.00  0.00     0.000 HD 
BRANCH   6   8
HETATM    8  N   UNL     1     -11.266  12.597  65.877  1.00  0.00    -0.301 NA 
HETATM    9  H   UNL     1     -10.418  12.074  65.657  1.00  0.00     0.000 HD 
BRANCH   8  10
HETATM   10  C   UNL     1     -11.274  13.422  66.879  1.00  0.00    -0.308 C  
HETATM   11  C   UNL     1     -10.831  14.844  66.893  1.00  0.00    -0.319 C  
HETATM   12  C   UNL     1     -10.930  15.595  67.996  1.00  0.00    -0.318 C  
HETATM   13  C   UNL     1     -11.470  15.083  69.253  1.00  0.00    -0.326 A  
HETATM   14  C   UNL     1     -11.566  15.925  70.370  1.00  0.00    -0.387 A  
HETATM   15  C   UNL     1     -12.077  15.444  71.578  1.00  0.00    -0.437 A  
HETATM   16  C   UNL     1     -12.497  14.119  71.685  1.00  0.00    -0.395 A  
HETATM   17  C   UNL     1     -12.407  13.272  70.580  1.00  0.00    -0.416 A  
HETATM   18  C   UNL     1     -11.895  13.758  69.370  1.00  0.00    -0.392 A  
HETATM   19  C   UNL     1     -11.803  12.861  68.201  1.00  0.00    -0.336 C  
HETATM   20  O   UNL     1     -12.148  11.689  68.283  1.00  0.00    -0.552 OA 
ENDBRANCH   8  10
ENDBRANCH   6   8
ENDBRANCH   3   6
TORSDOF 3
ENDMDL
MODEL       12
REMARK 921   NORMALIZED FREE ENERGY PREDICTED BY IDOCK:   -5.98 KCAL/MOL
REMARK 922        TOTAL FREE ENERGY PREDICTED BY IDOCK:   -7.51 KCAL/MOL
REMARK 923 INTER-LIGAND FREE ENERGY PREDICTED BY IDOCK:   -7.11 KCAL/MOL
REMARK 924 INTRA-LIGAND FREE ENERGY PREDICTED BY IDOCK:   -0.40 KCAL/MOL
REMARK 927      BINDING AFFINITY PREDICTED BY RF-SCORE:    0.00 PKD
ROOT
HETATM    1  N   UNL     1     -12.402  14.226  63.213  1.00  0.00    -1.092 N  
HETATM    2  H1  UNL     1     -11.690  14.945  63.085  1.00  0.00     0.000 HD 
HETATM    3  C   UNL     1     -12.111  12.962  63.604  1.00  0.00    -0.535 C  
HETATM    4  H2  UNL     1     -13.378  14.469  63.040  1.00  0.00     0.000 HD 
HETATM    5  O   UNL     1     -12.966  12.098  63.758  1.00  0.00    -0.753 OA 
ENDROOT
BRANCH   3   6
HETATM    6  N   UNL     1     -10.774  12.731  63.816  1.00  0.00    -0.478 N  
HETATM    7  H   UNL     1     -10.304  11.997  63.287  1.00  0.00     0.000 HD 
BRANCH   6   8
HETATM    8  N   UNL     1     -10.063  13.463  64.721  1.00  0.00    -0.596 NA 
HETATM    9  H   UNL     1      -9.187  13.905  64.440  1.00  0.00     0.000 HD 
BRANCH   8  10
HETATM   10  C   UNL     1     -10.493  13.601  65.938  1.00  0.00    -0.296 C  
HETATM   11  C   UNL     1     -10.784  14.867  66.665  1.00  0.00    -0.312 C  
HETATM   12  C   UNL     1     -11.262  14.861  67.915  1.00  0.00    -0.324 C  
HETATM   13  C   UNL     1     -11.529  13.628  68.651  1.00  0.00    -0.342 A  
HETATM   14  C   UNL     1     -12.048  13.686  69.952  1.00  0.00    -0.406 A  
HETATM   15  C   UNL     1     -12.302  12.512  70.666  1.00  0.00    -0.369 A  
HETATM   16  C   UNL     1     -12.041  11.270  70.091  1.00  0.00    -0.448 A  
HETATM   17  C   UNL     1     -11.525  11.199  68.798  1.00  0.00    -0.366 A  
HETATM   18  C   UNL     1     -11.272  12.378  68.083  1.00  0.00    -0.313 A  
HETATM   19  C   UNL     1     -10.729  12.301  66.713  1.00  0.00    -0.240 C  
HETATM   20  O   UNL     1     -10.474  11.219  66.200  1.00  0.00    -0.241 OA 
ENDBRANCH   8  10
ENDBRANCH   6   8
ENDBRANCH   3   6
TORSDOF 3
ENDMDL
MODEL       13
REMARK 921   NORMALIZED FREE ENERGY PREDICTED BY IDOCK:   -5.97 KCAL/MOL
REMARK 922        TOTAL FREE ENERGY PREDICTED BY IDOCK:   -7.50 KCAL/MOL
REMARK 923 INTER-LIGAND FREE ENERGY PREDICTED BY IDOCK:   -7.12 KCAL/MOL
REMARK 924 INTRA-LIGAND FREE ENERGY PREDICTED BY IDOCK:   -0.38 KCAL/MOL
REMARK 927      BINDING AFFINITY PREDICTED BY RF-SCORE:    0.00 PKD
ROOT
HETATM    1  N   UNL     1     -12.476  14.711  63.484  1.00  0.00    -1.016 N  
HETATM    2  H1  UNL     1     -12.736  13.732  63.609  1.00  0.00     0.000 HD 
HETATM    3  C   UNL     1     -11.665  15.373  64.345  1.00  0.00    -0.258 C  
HETATM    4  H2  UNL     1     -12.841  15.213  62.674  1.00  0.00     0.000 HD 
HETATM    5  O   UNL     1     -11.353  16.548  64.194  1.00  0.00    -1.060 OA 
ENDROOT
BRANCH   3   6
HETATM    6  N   UNL     1     -11.223  14.614  65.400  1.00  0.00    -0.334 N  
HETATM    7  H   UNL     1     -11.270  13.598  65.339  1.00  0.00     0.000 HD 
BRANCH   6   8
HETATM    8  N   UNL     1     -10.720  15.194  66.528  1.00  0.00    -0.305 NA 
HETATM    9  H   UNL     1      -9.957  15.867  66.456  1.00  0.00     0.000 HD 
BRANCH   8  10
HETATM   10  C   UNL     1     -11.208  14.893  67.694  1.00  0.00    -0.323 C  
HETATM   11  C   UNL     1     -11.762  15.822  68.717  1.00  0.00    -0.387 C  
HETATM   12  C   UNL     1     -12.268  15.368  69.869  1.00  0.00    -0.363 C  
HETATM   13  C   UNL     1     -12.314  13.948  70.206  1.00  0.00    -0.413 A  
HETATM   14  C   UNL     1     -12.876  13.532  71.422  1.00  0.00    -0.440 A  
HETATM   15  C   UNL     1     -12.920  12.176  71.755  1.00  0.00    -0.437 A  
HETATM   16  C   UNL     1     -12.405  11.221  70.881  1.00  0.00    -0.490 A  
HETATM   17  C   UNL     1     -11.844  11.622  69.668  1.00  0.00    -0.419 A  
HETATM   18  C   UNL     1     -11.802  12.982  69.336  1.00  0.00    -0.380 A  
HETATM   19  C   UNL     1     -11.211  13.404  68.051  1.00  0.00    -0.268 C  
HETATM   20  O   UNL     1     -10.735  12.581  67.281  1.00  0.00    -0.228 OA 
ENDBRANCH   8  10
ENDBRANCH   6   8
ENDBRANCH   3   6
TORSDOF 3
ENDMDL
MODEL       14
REMARK 921   NORMALIZED FREE ENERGY PREDICTED BY IDOCK:   -5.85 KCAL/MOL
REMARK 922        TOTAL FREE ENERGY PREDICTED BY IDOCK:   -7.36 KCAL/MOL
REMARK 923 INTER-LIGAND FREE ENERGY PREDICTED BY IDOCK:   -6.99 KCAL/MOL
REMARK 924 INTRA-LIGAND FREE ENERGY PREDICTED BY IDOCK:   -0.37 KCAL/MOL
REMARK 927      BINDING AFFINITY PREDICTED BY RF-SCORE:    0.00 PKD
ROOT
HETATM    1  N   UNL     1      -9.546  20.431  66.104  1.00  0.00    -0.670 N  
HETATM    2  H1  UNL     1      -9.230  20.165  65.170  1.00  0.00     0.000 HD 
HETATM    3  C   UNL     1     -10.260  19.603  66.903  1.00  0.00    -0.442 C  
HETATM    4  H2  UNL     1      -9.313  21.362  66.450  1.00  0.00     0.000 HD 
HETATM    5  O   UNL     1     -10.640  19.922  68.023  1.00  0.00    -0.397 OA 
ENDROOT
BRANCH   3   6
HETATM    6  N   UNL     1     -10.521  18.373  66.352  1.00  0.00    -0.398 N  
HETATM    7  H   UNL     1     -11.487  18.054  66.276  1.00  0.00     0.000 HD 
BRANCH   6   8
HETATM    8  N   UNL     1      -9.514  17.569  65.903  1.00  0.00    -0.527 NA 
HETATM    9  H   UNL     1      -8.624  17.981  65.620  1.00  0.00     0.000 HD 
BRANCH   8  10
HETATM   10  C   UNL     1      -9.681  16.283  65.833  1.00  0.00    -0.321 C  
HETATM   11  C   UNL     1      -8.915  15.225  66.547  1.00  0.00    -0.340 C  
HETATM   12  C   UNL     1      -9.221  13.929  66.409  1.00  0.00    -0.174 C  
HETATM   13  C   UNL     1     -10.313  13.462  65.560  1.00  0.00    -0.302 A  
HETATM   14  C   UNL     1     -10.598  12.093  65.472  1.00  0.00    -0.314 A  
HETATM   15  C   UNL     1     -11.638  11.636  64.658  1.00  0.00    -0.199 A  
HETATM   16  C   UNL     1     -12.404  12.539  63.924  1.00  0.00    -0.576 A  
HETATM   17  C   UNL     1     -12.131  13.904  64.004  1.00  0.00    -0.437 A  
HETATM   18  C   UNL     1     -11.088  14.360  64.821  1.00  0.00    -0.402 A  
HETATM   19  C   UNL     1     -10.803  15.805  64.907  1.00  0.00    -0.413 C  
HETATM   20  O   UNL     1     -11.452  16.612  64.252  1.00  0.00    -1.075 OA 
ENDBRANCH   8  10
ENDBRANCH   6   8
ENDBRANCH   3   6
TORSDOF 3
ENDMDL
MODEL       15
REMARK 921   NORMALIZED FREE ENERGY PREDICTED BY IDOCK:   -5.85 KCAL/MOL
REMARK 922        TOTAL FREE ENERGY PREDICTED BY IDOCK:   -7.36 KCAL/MOL
REMARK 923 INTER-LIGAND FREE ENERGY PREDICTED BY IDOCK:   -6.79 KCAL/MOL
REMARK 924 INTRA-LIGAND FREE ENERGY PREDICTED BY IDOCK:   -0.57 KCAL/MOL
REMARK 927      BINDING AFFINITY PREDICTED BY RF-SCORE:    0.00 PKD
ROOT
HETATM    1  N   UNL     1     -14.030  16.034  73.276  1.00  0.00    -0.693 N  
HETATM    2  H1  UNL     1     -14.745  15.743  72.609  1.00  0.00     0.000 HD 
HETATM    3  C   UNL     1     -12.732  16.214  72.932  1.00  0.00    -0.417 C  
HETATM    4  H2  UNL     1     -14.304  16.196  74.246  1.00  0.00     0.000 HD 
HETATM    5  O   UNL     1     -11.873  16.563  73.732  1.00  0.00    -0.315 OA 
ENDROOT
BRANCH   3   6
HETATM    6  N   UNL     1     -12.462  15.974  71.607  1.00  0.00    -0.563 N  
HETATM    7  H   UNL     1     -11.666  16.437  71.168  1.00  0.00     0.000 HD 
BRANCH   6   8
HETATM    8  N   UNL     1     -13.236  15.129  70.867  1.00  0.00    -0.577 NA 
HETATM    9  H   UNL     1     -14.145  15.442  70.527  1.00  0.00     0.000 HD 
BRANCH   8  10
HETATM   10  C   UNL     1     -12.822  13.929  70.594  1.00  0.00    -0.222 C  
HETATM   11  C   UNL     1     -11.969  13.497  69.453  1.00  0.00    -0.383 C  
HETATM   12  C   UNL     1     -11.584  12.223  69.313  1.00  0.00    -0.383 C  
HETATM   13  C   UNL     1     -11.969  11.174  70.254  1.00  0.00    -0.460 A  
HETATM   14  C   UNL     1     -11.519   9.860  70.064  1.00  0.00    -0.274 A  
HETATM   15  C   UNL     1     -11.885   8.850  70.956  1.00  0.00    -0.324 A  
HETATM   16  C   UNL     1     -12.705   9.138  72.046  1.00  0.00    -0.473 A  
HETATM   17  C   UNL     1     -13.159  10.441  72.246  1.00  0.00    -0.284 A  
HETATM   18  C   UNL     1     -12.789  11.453  71.351  1.00  0.00    -0.502 A  
HETATM   19  C   UNL     1     -13.268  12.832  71.565  1.00  0.00    -0.239 C  
HETATM   20  O   UNL     1     -14.006  13.100  72.505  1.00  0.00    -0.676 OA 
ENDBRANCH   8  10
ENDBRANCH   6   8
ENDBRANCH   3   6
TORSDOF 3
ENDMDL
MODEL       16
REMARK 921   NORMALIZED FREE ENERGY PREDICTED BY IDOCK:   -5.81 KCAL/MOL
REMARK 922        TOTAL FREE ENERGY PREDICTED BY IDOCK:   -7.31 KCAL/MOL
REMARK 923 INTER-LIGAND FREE ENERGY PREDICTED BY IDOCK:   -6.83 KCAL/MOL
REMARK 924 INTRA-LIGAND FREE ENERGY PREDICTED BY IDOCK:   -0.47 KCAL/MOL
REMARK 927      BINDING AFFINITY PREDICTED BY RF-SCORE:    0.00 PKD
ROOT
HETATM    1  N   UNL     1     -13.040  16.111  74.072  1.00  0.00    -0.941 N  
HETATM    2  H1  UNL     1     -12.690  17.069  74.047  1.00  0.00     0.000 HD 
HETATM    3  C   UNL     1     -13.169  15.346  72.961  1.00  0.00    -0.531 C  
HETATM    4  H2  UNL     1     -13.306  15.711  74.972  1.00  0.00     0.000 HD 
HETATM    5  O   UNL     1     -13.589  14.195  72.990  1.00  0.00    -0.651 OA 
ENDROOT
BRANCH   3   6
HETATM    6  N   UNL     1     -12.784  15.968  71.799  1.00  0.00    -0.514 N  
HETATM    7  H   UNL     1     -13.474  16.494  71.263  1.00  0.00     0.000 HD 
BRANCH   6   8
HETATM    8  N   UNL     1     -11.498  15.897  71.349  1.00  0.00    -0.417 NA 
HETATM    9  H   UNL     1     -10.729  15.853  72.017  1.00  0.00     0.000 HD 
BRANCH   8  10
HETATM   10  C   UNL     1     -11.249  15.886  70.074  1.00  0.00    -0.353 C  
HETATM   11  C   UNL     1     -10.574  16.941  69.269  1.00  0.00    -0.325 C  
HETATM   12  C   UNL     1     -10.347  16.781  67.960  1.00  0.00    -0.317 C  
HETATM   13  C   UNL     1     -10.741  15.577  67.232  1.00  0.00    -0.308 A  
HETATM   14  C   UNL     1     -10.459  15.460  65.864  1.00  0.00    -0.354 A  
HETATM   15  C   UNL     1     -10.836  14.315  65.158  1.00  0.00    -0.387 A  
HETATM   16  C   UNL     1     -11.498  13.275  65.809  1.00  0.00    -0.349 A  
HETATM   17  C   UNL     1     -11.784  13.380  67.170  1.00  0.00    -0.424 A  
HETATM   18  C   UNL     1     -11.404  14.529  67.875  1.00  0.00    -0.329 A  
HETATM   19  C   UNL     1     -11.705  14.637  69.316  1.00  0.00    -0.312 C  
HETATM   20  O   UNL     1     -12.305  13.742  69.899  1.00  0.00    -0.322 OA 
ENDBRANCH   8  10
ENDBRANCH   6   8
ENDBRANCH   3   6
TORSDOF 3
ENDMDL
MODEL       17
REMARK 921   NORMALIZED FREE ENERGY PREDICTED BY IDOCK:   -5.80 KCAL/MOL
REMARK 922        TOTAL FREE ENERGY PREDICTED BY IDOCK:   -7.29 KCAL/MOL
REMARK 923 INTER-LIGAND FREE ENERGY PREDICTED BY IDOCK:   -6.65 KCAL/MOL
REMARK 924 INTRA-LIGAND FREE ENERGY PREDICTED BY IDOCK:   -0.64 KCAL/MOL
REMARK 927      BINDING AFFINITY PREDICTED BY RF-SCORE:    0.00 PKD
ROOT
HETATM    1  N   UNL     1     -13.904  15.345  70.915  1.00  0.00    -0.844 N  
HETATM    2  H1  UNL     1     -13.870  15.272  69.898  1.00  0.00     0.000 HD 
HETATM    3  C   UNL     1     -13.476  14.357  71.738  1.00  0.00    -0.373 C  
HETATM    4  H2  UNL     1     -14.277  16.199  71.331  1.00  0.00     0.000 HD 
HETATM    5  O   UNL     1     -13.517  14.444  72.960  1.00  0.00    -0.615 OA 
ENDROOT
BRANCH   3   6
HETATM    6  N   UNL     1     -12.990  13.251  71.087  1.00  0.00    -0.263 N  
HETATM    7  H   UNL     1     -13.538  12.391  71.086  1.00  0.00     0.000 HD 
BRANCH   6   8
HETATM    8  N   UNL     1     -11.788  13.279  70.441  1.00  0.00    -0.536 NA 
HETATM    9  H   UNL     1     -10.954  13.599  70.936  1.00  0.00     0.000 HD 
BRANCH   8  10
HETATM   10  C   UNL     1     -11.700  12.903  69.202  1.00  0.00    -0.324 C  
HETATM   11  C   UNL     1     -11.398  11.540  68.683  1.00  0.00    -0.330 C  
HETATM   12  C   UNL     1     -11.374  11.284  67.370  1.00  0.00    -0.349 C  
HETATM   13  C   UNL     1     -11.636  12.306  66.361  1.00  0.00    -0.445 A  
HETATM   14  C   UNL     1     -11.615  11.972  65.000  1.00  0.00    -0.323 A  
HETATM   15  C   UNL     1     -11.861  12.944  64.027  1.00  0.00    -0.512 A  
HETATM   16  C   UNL     1     -12.128  14.260  64.401  1.00  0.00    -0.490 A  
HETATM   17  C   UNL     1     -12.152  14.605  65.752  1.00  0.00    -0.201 A  
HETATM   18  C   UNL     1     -11.907  13.628  66.726  1.00  0.00    -0.452 A  
HETATM   19  C   UNL     1     -11.935  13.994  68.154  1.00  0.00    -0.347 C  
HETATM   20  O   UNL     1     -12.147  15.150  68.500  1.00  0.00    -0.250 OA 
ENDBRANCH   8  10
ENDBRANCH   6   8
ENDBRANCH   3   6
TORSDOF 3
ENDMDL
MODEL       18
REMARK 921   NORMALIZED FREE ENERGY PREDICTED BY IDOCK:   -5.75 KCAL/MOL
REMARK 922        TOTAL FREE ENERGY PREDICTED BY IDOCK:   -7.23 KCAL/MOL
REMARK 923 INTER-LIGAND FREE ENERGY PREDICTED BY IDOCK:   -6.99 KCAL/MOL
REMARK 924 INTRA-LIGAND FREE ENERGY PREDICTED BY IDOCK:   -0.24 KCAL/MOL
REMARK 927      BINDING AFFINITY PREDICTED BY RF-SCORE:    0.00 PKD
ROOT
HETATM    1  N   UNL     1     -12.393  14.670  64.024  1.00  0.00    -0.999 N  
HETATM    2  H1  UNL     1     -12.491  13.720  64.385  1.00  0.00     0.000 HD 
HETATM    3  C   UNL     1     -11.550  15.580  64.570  1.00  0.00    -0.283 C  
HETATM    4  H2  UNL     1     -12.952  14.946  63.217  1.00  0.00     0.000 HD 
HETATM    5  O   UNL     1     -11.432  16.720  64.137  1.00  0.00    -1.171 OA 
ENDROOT
BRANCH   3   6
HETATM    6  N   UNL     1     -10.839  15.116  65.648  1.00  0.00    -0.343 N  
HETATM    7  H   UNL     1      -9.904  14.737  65.504  1.00  0.00     0.000 HD 
BRANCH   6   8
HETATM    8  N   UNL     1     -11.359  15.152  66.909  1.00  0.00    -0.307 NA 
HETATM    9  H   UNL     1     -11.573  16.050  67.344  1.00  0.00     0.000 HD 
BRANCH   8  10
HETATM   10  C   UNL     1     -11.582  14.050  67.559  1.00  0.00    -0.367 C  
HETATM   11  C   UNL     1     -11.416  12.654  67.070  1.00  0.00    -0.406 C  
HETATM   12  C   UNL     1     -11.648  11.603  67.866  1.00  0.00    -0.369 C  
HETATM   13  C   UNL     1     -12.079  11.745  69.254  1.00  0.00    -0.292 A  
HETATM   14  C   UNL     1     -12.288  10.606  70.044  1.00  0.00    -0.341 A  
HETATM   15  C   UNL     1     -12.705  10.732  71.372  1.00  0.00    -0.544 A  
HETATM   16  C   UNL     1     -12.917  11.993  71.925  1.00  0.00    -0.428 A  
HETATM   17  C   UNL     1     -12.711  13.134  71.150  1.00  0.00    -0.386 A  
HETATM   18  C   UNL     1     -12.293  13.005  69.819  1.00  0.00    -0.141 A  
HETATM   19  C   UNL     1     -12.073  14.213  69.000  1.00  0.00    -0.313 C  
HETATM   20  O   UNL     1     -12.275  15.329  69.464  1.00  0.00    -0.301 OA 
ENDBRANCH   8  10
ENDBRANCH   6   8
ENDBRANCH   3   6
TORSDOF 3
ENDMDL
MODEL       19
REMARK 921   NORMALIZED FREE ENERGY PREDICTED BY IDOCK:   -5.73 KCAL/MOL
REMARK 922        TOTAL FREE ENERGY PREDICTED BY IDOCK:   -7.22 KCAL/MOL
REMARK 923 INTER-LIGAND FREE ENERGY PREDICTED BY IDOCK:   -6.67 KCAL/MOL
REMARK 924 INTRA-LIGAND FREE ENERGY PREDICTED BY IDOCK:   -0.56 KCAL/MOL
REMARK 927      BINDING AFFINITY PREDICTED BY RF-SCORE:    0.00 PKD
ROOT
HETATM    1  N   UNL     1     -14.258  16.165  73.065  1.00  0.00    -0.348 N  
HETATM    2  H1  UNL     1     -14.800  15.530  72.478  1.00  0.00     0.000 HD 
HETATM    3  C   UNL     1     -13.085  15.809  73.643  1.00  0.00    -0.487 C  
HETATM    4  H2  UNL     1     -14.614  17.107  73.224  1.00  0.00     0.000 HD 
HETATM    5  O   UNL     1     -12.433  16.570  74.348  1.00  0.00    -0.724 OA 
ENDROOT
BRANCH   3   6
HETATM    6  N   UNL     1     -12.687  14.525  73.369  1.00  0.00    -0.419 N  
HETATM    7  H   UNL     1     -11.799  14.187  73.740  1.00  0.00     0.000 HD 
BRANCH   6   8
HETATM    8  N   UNL     1     -13.455  13.691  72.610  1.00  0.00    -0.639 NA 
HETATM    9  H   UNL     1     -14.431  13.532  72.861  1.00  0.00     0.000 HD 
BRANCH   8  10
HETATM   10  C   UNL     1     -12.951  13.098  71.570  1.00  0.00    -0.321 C  
HETATM   11  C   UNL     1     -12.717  11.641  71.377  1.00  0.00    -0.445 C  
HETATM   12  C   UNL     1     -12.221  11.160  70.231  1.00  0.00    -0.436 C  
HETATM   13  C   UNL     1     -11.875  12.017  69.100  1.00  0.00    -0.369 A  
HETATM   14  C   UNL     1     -11.376  11.452  67.918  1.00  0.00    -0.371 A  
HETATM   15  C   UNL     1     -11.038  12.264  66.832  1.00  0.00    -0.341 A  
HETATM   16  C   UNL     1     -11.192  13.647  66.914  1.00  0.00    -0.326 A  
HETATM   17  C   UNL     1     -11.687  14.220  68.085  1.00  0.00    -0.385 A  
HETATM   18  C   UNL     1     -12.027  13.404  69.172  1.00  0.00    -0.363 A  
HETATM   19  C   UNL     1     -12.553  14.012  70.408  1.00  0.00    -0.308 C  
HETATM   20  O   UNL     1     -12.675  15.227  70.506  1.00  0.00    -0.384 OA 
ENDBRANCH   8  10
ENDBRANCH   6   8
ENDBRANCH   3   6
TORSDOF 3
ENDMDL
MODEL       20
REMARK 921   NORMALIZED FREE ENERGY PREDICTED BY IDOCK:   -5.61 KCAL/MOL
REMARK 922        TOTAL FREE ENERGY PREDICTED BY IDOCK:   -7.07 KCAL/MOL
REMARK 923 INTER-LIGAND FREE ENERGY PREDICTED BY IDOCK:   -6.85 KCAL/MOL
REMARK 924 INTRA-LIGAND FREE ENERGY PREDICTED BY IDOCK:   -0.22 KCAL/MOL
REMARK 927      BINDING AFFINITY PREDICTED BY RF-SCORE:    0.00 PKD
ROOT
HETATM    1  N   UNL     1     -12.256  14.555  63.685  1.00  0.00    -1.062 N  
HETATM    2  H1  UNL     1     -12.301  13.586  64.002  1.00  0.00     0.000 HD 
HETATM    3  C   UNL     1     -11.623  15.529  64.383  1.00  0.00    -0.258 C  
HETATM    4  H2  UNL     1     -12.708  14.802  62.804  1.00  0.00     0.000 HD 
HETATM    5  O   UNL     1     -11.569  16.693  64.003  1.00  0.00    -1.197 OA 
ENDROOT
BRANCH   3   6
HETATM    6  N   UNL     1     -11.045  15.101  65.552  1.00  0.00    -0.345 N  
HETATM    7  H   UNL     1     -10.044  15.233  65.693  1.00  0.00     0.000 HD 
BRANCH   6   8
HETATM    8  N   UNL     1     -11.784  14.501  66.530  1.00  0.00    -0.380 NA 
HETATM    9  H   UNL     1     -12.560  15.004  66.961  1.00  0.00     0.000 HD 
BRANCH   8  10
HETATM   10  C   UNL     1     -11.505  13.293  66.916  1.00  0.00    -0.338 C  
HETATM   11  C   UNL     1     -10.926  12.187  66.103  1.00  0.00    -0.335 C  
HETATM   12  C   UNL     1     -10.654  10.994  66.643  1.00  0.00    -0.315 C  
HETATM   13  C   UNL     1     -10.901  10.688  68.050  1.00  0.00    -0.309 A  
HETATM   14  C   UNL     1     -10.577   9.424  68.562  1.00  0.00    -0.234 A  
HETATM   15  C   UNL     1     -10.814   9.121  69.905  1.00  0.00    -0.242 A  
HETATM   16  C   UNL     1     -11.379  10.075  70.751  1.00  0.00    -0.439 A  
HETATM   17  C   UNL     1     -11.705  11.336  70.253  1.00  0.00    -0.415 A  
HETATM   18  C   UNL     1     -11.465  11.638  68.906  1.00  0.00    -0.349 A  
HETATM   19  C   UNL     1     -11.809  12.973  68.382  1.00  0.00    -0.334 C  
HETATM   20  O   UNL     1     -12.325  13.816  69.106  1.00  0.00    -0.303 OA 
ENDBRANCH   8  10
ENDBRANCH   6   8
ENDBRANCH   3   6
TORSDOF 3
ENDMDL
MODEL       21
REMARK 921   NORMALIZED FREE ENERGY PREDICTED BY IDOCK:   -5.59 KCAL/MOL
REMARK 922        TOTAL FREE ENERGY PREDICTED BY IDOCK:   -7.05 KCAL/MOL
REMARK 923 INTER-LIGAND FREE ENERGY PREDICTED BY IDOCK:   -6.67 KCAL/MOL
REMARK 924 INTRA-LIGAND FREE ENERGY PREDICTED BY IDOCK:   -0.38 KCAL/MOL
REMARK 927      BINDING AFFINITY PREDICTED BY RF-SCORE:    0.00 PKD
ROOT
HETATM    1  N   UNL     1     -14.263  15.279  70.945  1.00  0.00    -0.820 N  
HETATM    2  H1  UNL     1     -14.160  15.374  69.934  1.00  0.00     0.000 HD 
HETATM    3  C   UNL     1     -13.261  15.551  71.816  1.00  0.00    -0.481 C  
HETATM    4  H2  UNL     1     -15.160  14.967  71.317  1.00  0.00     0.000 HD 
HETATM    5  O   UNL     1     -13.384  15.438  73.029  1.00  0.00    -0.470 OA 
ENDROOT
BRANCH   3   6
HETATM    6  N   UNL     1     -12.095  15.967  71.222  1.00  0.00    -0.544 N  
HETATM    7  H   UNL     1     -11.921  16.965  71.107  1.00  0.00     0.000 HD 
BRANCH   6   8
HETATM    8  N   UNL     1     -11.164  15.071  70.782  1.00  0.00    -0.452 NA 
HETATM    9  H   UNL     1     -10.336  14.882  71.347  1.00  0.00     0.000 HD 
BRANCH   8  10
HETATM   10  C   UNL     1     -11.327  14.459  69.648  1.00  0.00    -0.263 C  
HETATM   11  C   UNL     1     -11.730  13.043  69.427  1.00  0.00    -0.386 C  
HETATM   12  C   UNL     1     -11.897  12.549  68.194  1.00  0.00    -0.371 C  
HETATM   13  C   UNL     1     -11.697  13.350  66.990  1.00  0.00    -0.426 A  
HETATM   14  C   UNL     1     -11.905  12.782  65.726  1.00  0.00    -0.484 A  
HETATM   15  C   UNL     1     -11.712  13.539  64.567  1.00  0.00    -0.431 A  
HETATM   16  C   UNL     1     -11.308  14.870  64.658  1.00  0.00    -0.362 A  
HETATM   17  C   UNL     1     -11.098  15.447  65.910  1.00  0.00    -0.247 A  
HETATM   18  C   UNL     1     -11.294  14.686  67.070  1.00  0.00    -0.362 A  
HETATM   19  C   UNL     1     -11.073  15.299  68.394  1.00  0.00    -0.287 C  
HETATM   20  O   UNL     1     -10.698  16.461  68.491  1.00  0.00    -0.284 OA 
ENDBRANCH   8  10
ENDBRANCH   6   8
ENDBRANCH   3   6
TORSDOF 3
ENDMDL
MODEL       22
REMARK 921   NORMALIZED FREE ENERGY PREDICTED BY IDOCK:   -5.58 KCAL/MOL
REMARK 922        TOTAL FREE ENERGY PREDICTED BY IDOCK:   -7.04 KCAL/MOL
REMARK 923 INTER-LIGAND FREE ENERGY PREDICTED BY IDOCK:   -7.00 KCAL/MOL
REMARK 924 INTRA-LIGAND FREE ENERGY PREDICTED BY IDOCK:   -0.04 KCAL/MOL
REMARK 927      BINDING AFFINITY PREDICTED BY RF-SCORE:    0.00 PKD
ROOT
HETATM    1  N   UNL     1     -10.845  15.549  65.594  1.00  0.00    -0.346 N  
HETATM    2  H1  UNL     1     -10.860  14.728  66.200  1.00  0.00     0.000 HD 
HETATM    3  C   UNL     1     -11.643  15.675  64.506  1.00  0.00    -0.262 C  
HETATM    4  H2  UNL     1     -10.202  16.309  65.817  1.00  0.00     0.000 HD 
HETATM    5  O   UNL     1     -11.626  16.660  63.778  1.00  0.00    -1.045 OA 
ENDROOT
BRANCH   3   6
HETATM    6  N   UNL     1     -12.475  14.604  64.289  1.00  0.00    -0.747 N  
HETATM    7  H   UNL     1     -13.379  14.572  64.758  1.00  0.00     0.000 HD 
BRANCH   6   8
HETATM    8  N   UNL     1     -12.114  13.583  63.459  1.00  0.00    -0.853 NA 
HETATM    9  H   UNL     1     -12.351  13.629  62.467  1.00  0.00     0.000 HD 
BRANCH   8  10
HETATM   10  C   UNL     1     -11.473  12.554  63.924  1.00  0.00    -0.437 C  
HETATM   11  C   UNL     1     -10.487  11.697  63.210  1.00  0.00    -0.438 C  
HETATM   12  C   UNL     1      -9.869  10.682  63.827  1.00  0.00    -0.394 C  
HETATM   13  C   UNL     1     -10.114  10.343  65.226  1.00  0.00    -0.370 A  
HETATM   14  C   UNL     1      -9.421   9.281  65.822  1.00  0.00    -0.329 A  
HETATM   15  C   UNL     1      -9.651   8.946  67.159  1.00  0.00    -0.225 A  
HETATM   16  C   UNL     1     -10.575   9.667  67.915  1.00  0.00    -0.308 A  
HETATM   17  C   UNL     1     -11.269  10.726  67.333  1.00  0.00    -0.315 A  
HETATM   18  C   UNL     1     -11.036  11.061  65.992  1.00  0.00    -0.136 A  
HETATM   19  C   UNL     1     -11.770  12.184  65.379  1.00  0.00    -0.321 C  
HETATM   20  O   UNL     1     -12.600  12.815  66.022  1.00  0.00    -0.473 OA 
ENDBRANCH   8  10
ENDBRANCH   6   8
ENDBRANCH   3   6
TORSDOF 3
ENDMDL
MODEL       23
REMARK 921   NORMALIZED FREE ENERGY PREDICTED BY IDOCK:   -5.55 KCAL/MOL
REMARK 922        TOTAL FREE ENERGY PREDICTED BY IDOCK:   -7.00 KCAL/MOL
REMARK 923 INTER-LIGAND FREE ENERGY PREDICTED BY IDOCK:   -6.30 KCAL/MOL
REMARK 924 INTRA-LIGAND FREE ENERGY PREDICTED BY IDOCK:   -0.70 KCAL/MOL
REMARK 927      BINDING AFFINITY PREDICTED BY RF-SCORE:    0.00 PKD
ROOT
HETATM    1  N   UNL     1     -11.820   9.194  70.538  1.00  0.00    -0.451 N  
HETATM    2  H1  UNL     1     -11.210   9.545  69.799  1.00  0.00     0.000 HD 
HETATM    3  C   UNL     1     -12.716   9.977  71.187  1.00  0.00    -0.387 C  
HETATM    4  H2  UNL     1     -11.753   8.211  70.801  1.00  0.00     0.000 HD 
HETATM    5  O   UNL     1     -13.448   9.557  72.074  1.00  0.00    -0.405 OA 
ENDROOT
BRANCH   3   6
HETATM    6  N   UNL     1     -12.735  11.283  70.763  1.00  0.00    -0.300 N  
HETATM    7  H   UNL     1     -13.613  11.800  70.777  1.00  0.00     0.000 HD 
BRANCH   6   8
HETATM    8  N   UNL     1     -11.601  11.902  70.323  1.00  0.00    -0.531 NA 
HETATM    9  H   UNL     1     -10.722  11.764  70.821  1.00  0.00     0.000 HD 
BRANCH   8  10
HETATM   10  C   UNL     1     -11.636  12.666  69.273  1.00  0.00    -0.318 C  
HETATM   11  C   UNL     1     -11.596  14.154  69.228  1.00  0.00    -0.350 C  
HETATM   12  C   UNL     1     -11.602  14.817  68.065  1.00  0.00    -0.367 C  
HETATM   13  C   UNL     1     -11.648  14.140  66.771  1.00  0.00    -0.409 A  
HETATM   14  C   UNL     1     -11.632  14.889  65.587  1.00  0.00    -0.245 A  
HETATM   15  C   UNL     1     -11.680  14.251  64.344  1.00  0.00    -0.405 A  
HETATM   16  C   UNL     1     -11.746  12.861  64.271  1.00  0.00    -0.445 A  
HETATM   17  C   UNL     1     -11.762  12.105  65.442  1.00  0.00    -0.379 A  
HETATM   18  C   UNL     1     -11.712  12.747  66.687  1.00  0.00    -0.459 A  
HETATM   19  C   UNL     1     -11.727  11.945  67.926  1.00  0.00    -0.298 C  
HETATM   20  O   UNL     1     -11.806  10.724  67.880  1.00  0.00    -0.553 OA 
ENDBRANCH   8  10
ENDBRANCH   6   8
ENDBRANCH   3   6
TORSDOF 3
ENDMDL
MODEL       24
REMARK 921   NORMALIZED FREE ENERGY PREDICTED BY IDOCK:   -5.55 KCAL/MOL
REMARK 922        TOTAL FREE ENERGY PREDICTED BY IDOCK:   -7.00 KCAL/MOL
REMARK 923 INTER-LIGAND FREE ENERGY PREDICTED BY IDOCK:   -6.37 KCAL/MOL
REMARK 924 INTRA-LIGAND FREE ENERGY PREDICTED BY IDOCK:   -0.63 KCAL/MOL
REMARK 927      BINDING AFFINITY PREDICTED BY RF-SCORE:    0.00 PKD
ROOT
HETATM    1  N   UNL     1      -9.508  10.247  67.144  1.00  0.00    -0.156 N  
HETATM    2  H1  UNL     1      -9.474  11.156  67.606  1.00  0.00     0.000 HD 
HETATM    3  C   UNL     1     -10.525   9.369  67.322  1.00  0.00    -0.264 C  
HETATM    4  H2  UNL     1      -8.743   9.987  66.521  1.00  0.00     0.000 HD 
HETATM    5  O   UNL     1     -10.566   8.277  66.768  1.00  0.00    -0.306 OA 
ENDROOT
BRANCH   3   6
HETATM    6  N   UNL     1     -11.507   9.808  68.175  1.00  0.00    -0.456 N  
HETATM    7  H   UNL     1     -12.412  10.083  67.795  1.00  0.00     0.000 HD 
BRANCH   6   8
HETATM    8  N   UNL     1     -11.295   9.883  69.521  1.00  0.00    -0.398 NA 
HETATM    9  H   UNL     1     -10.642   9.239  69.969  1.00  0.00     0.000 HD 
BRANCH   8  10
HETATM   10  C   UNL     1     -11.920  10.769  70.236  1.00  0.00    -0.351 C  
HETATM   11  C   UNL     1     -12.834  10.531  71.387  1.00  0.00    -0.551 C  
HETATM   12  C   UNL     1     -13.386  11.547  72.061  1.00  0.00    -0.397 C  
HETATM   13  C   UNL     1     -13.138  12.946  71.722  1.00  0.00    -0.458 A  
HETATM   14  C   UNL     1     -13.730  13.967  72.478  1.00  0.00    -0.651 A  
HETATM   15  C   UNL     1     -13.504  15.309  72.158  1.00  0.00    -0.546 A  
HETATM   16  C   UNL     1     -12.686  15.645  71.081  1.00  0.00    -0.525 A  
HETATM   17  C   UNL     1     -12.090  14.638  70.322  1.00  0.00    -0.380 A  
HETATM   18  C   UNL     1     -12.318  13.294  70.645  1.00  0.00    -0.416 A  
HETATM   19  C   UNL     1     -11.686  12.230  69.842  1.00  0.00    -0.273 C  
HETATM   20  O   UNL     1     -10.981  12.507  68.880  1.00  0.00    -0.237 OA 
ENDBRANCH   8  10
ENDBRANCH   6   8
ENDBRANCH   3   6
TORSDOF 3
ENDMDL
MODEL       25
REMARK 921   NORMALIZED FREE ENERGY PREDICTED BY IDOCK:   -5.53 KCAL/MOL
REMARK 922        TOTAL FREE ENERGY PREDICTED BY IDOCK:   -6.98 KCAL/MOL
REMARK 923 INTER-LIGAND FREE ENERGY PREDICTED BY IDOCK:   -6.43 KCAL/MOL
REMARK 924 INTRA-LIGAND FREE ENERGY PREDICTED BY IDOCK:   -0.55 KCAL/MOL
REMARK 927      BINDING AFFINITY PREDICTED BY RF-SCORE:    0.00 PKD
ROOT
HETATM    1  N   UNL     1      -9.351  15.842  69.372  1.00  0.00    -0.263 N  
HETATM    2  H1  UNL     1      -9.181  15.201  70.147  1.00  0.00     0.000 HD 
HETATM    3  C   UNL     1     -10.511  16.526  69.223  1.00  0.00    -0.326 C  
HETATM    4  H2  UNL     1      -8.614  15.976  68.679  1.00  0.00     0.000 HD 
HETATM    5  O   UNL     1     -10.715  17.297  68.293  1.00  0.00    -0.373 OA 
ENDROOT
BRANCH   3   6
HETATM    6  N   UNL     1     -11.439  16.284  70.205  1.00  0.00    -0.444 N  
HETATM    7  H   UNL     1     -11.294  16.672  71.137  1.00  0.00     0.000 HD 
BRANCH   6   8
HETATM    8  N   UNL     1     -12.552  15.533  69.960  1.00  0.00    -0.589 NA 
HETATM    9  H   UNL     1     -13.270  15.884  69.326  1.00  0.00     0.000 HD 
BRANCH   8  10
HETATM   10  C   UNL     1     -12.701  14.375  70.528  1.00  0.00    -0.340 C  
HETATM   11  C   UNL     1     -13.523  14.047  71.726  1.00  0.00    -0.473 C  
HETATM   12  C   UNL     1     -13.616  12.794  72.186  1.00  0.00    -0.547 C  
HETATM   13  C   UNL     1     -12.928  11.670  71.558  1.00  0.00    -0.463 A  
HETATM   14  C   UNL     1     -13.080  10.376  72.076  1.00  0.00    -0.521 A  
HETATM   15  C   UNL     1     -12.422   9.294  71.485  1.00  0.00    -0.435 A  
HETATM   16  C   UNL     1     -11.605   9.492  70.373  1.00  0.00    -0.268 A  
HETATM   17  C   UNL     1     -11.446  10.774  69.849  1.00  0.00    -0.398 A  
HETATM   18  C   UNL     1     -12.108  11.857  70.442  1.00  0.00    -0.421 A  
HETATM   19  C   UNL     1     -11.940  13.213  69.885  1.00  0.00    -0.317 C  
HETATM   20  O   UNL     1     -11.210  13.408  68.922  1.00  0.00    -0.252 OA 
ENDBRANCH   8  10
ENDBRANCH   6   8
ENDBRANCH   3   6
TORSDOF 3
ENDMDL
MODEL       26
REMARK 921   NORMALIZED FREE ENERGY PREDICTED BY IDOCK:   -5.51 KCAL/MOL
REMARK 922        TOTAL FREE ENERGY PREDICTED BY IDOCK:   -6.96 KCAL/MOL
REMARK 923 INTER-LIGAND FREE ENERGY PREDICTED BY IDOCK:   -6.50 KCAL/MOL
REMARK 924 INTRA-LIGAND FREE ENERGY PREDICTED BY IDOCK:   -0.46 KCAL/MOL
REMARK 927      BINDING AFFINITY PREDICTED BY RF-SCORE:    0.00 PKD
ROOT
HETATM    1  N   UNL     1     -13.664  15.606  70.648  1.00  0.00    -0.777 N  
HETATM    2  H1  UNL     1     -13.895  14.991  69.867  1.00  0.00     0.000 HD 
HETATM    3  C   UNL     1     -12.551  15.448  71.404  1.00  0.00    -0.405 C  
HETATM    4  H2  UNL     1     -14.299  16.373  70.870  1.00  0.00     0.000 HD 
HETATM    5  O   UNL     1     -12.273  16.185  72.342  1.00  0.00    -0.469 OA 
ENDROOT
BRANCH   3   6
HETATM    6  N   UNL     1     -11.758  14.393  71.027  1.00  0.00    -0.485 N  
HETATM    7  H   UNL     1     -11.978  13.456  71.365  1.00  0.00     0.000 HD 
BRANCH   6   8
HETATM    8  N   UNL     1     -10.681  14.572  70.208  1.00  0.00    -0.459 NA 
HETATM    9  H   UNL     1      -9.743  14.616  70.607  1.00  0.00     0.000 HD 
BRANCH   8  10
HETATM   10  C   UNL     1     -10.843  14.686  68.925  1.00  0.00    -0.250 C  
HETATM   11  C   UNL     1     -10.560  15.874  68.073  1.00  0.00    -0.287 C  
HETATM   12  C   UNL     1     -10.740  15.840  66.747  1.00  0.00    -0.293 C  
HETATM   13  C   UNL     1     -11.223  14.653  66.046  1.00  0.00    -0.342 A  
HETATM   14  C   UNL     1     -11.374  14.673  64.653  1.00  0.00    -0.372 A  
HETATM   15  C   UNL     1     -11.840  13.544  63.974  1.00  0.00    -0.476 A  
HETATM   16  C   UNL     1     -12.161  12.385  64.677  1.00  0.00    -0.487 A  
HETATM   17  C   UNL     1     -12.015  12.352  66.064  1.00  0.00    -0.419 A  
HETATM   18  C   UNL     1     -11.546  13.485  66.742  1.00  0.00    -0.397 A  
HETATM   19  C   UNL     1     -11.390  13.448  68.209  1.00  0.00    -0.295 C  
HETATM   20  O   UNL     1     -11.688  12.445  68.845  1.00  0.00    -0.288 OA 
ENDBRANCH   8  10
ENDBRANCH   6   8
ENDBRANCH   3   6
TORSDOF 3
ENDMDL
MODEL       27
REMARK 921   NORMALIZED FREE ENERGY PREDICTED BY IDOCK:   -5.51 KCAL/MOL
REMARK 922        TOTAL FREE ENERGY PREDICTED BY IDOCK:   -6.96 KCAL/MOL
REMARK 923 INTER-LIGAND FREE ENERGY PREDICTED BY IDOCK:   -6.51 KCAL/MOL
REMARK 924 INTRA-LIGAND FREE ENERGY PREDICTED BY IDOCK:   -0.45 KCAL/MOL
REMARK 927      BINDING AFFINITY PREDICTED BY RF-SCORE:    0.00 PKD
ROOT
HETATM    1  N   UNL     1     -10.987  11.142  63.076  1.00  0.00    -0.821 N  
HETATM    2  H1  UNL     1     -10.081  10.912  63.485  1.00  0.00     0.000 HD 
HETATM    3  C   UNL     1     -11.904  11.915  63.707  1.00  0.00    -0.458 C  
HETATM    4  H2  UNL     1     -11.213  10.774  62.151  1.00  0.00     0.000 HD 
HETATM    5  O   UNL     1     -12.992  12.192  63.216  1.00  0.00    -0.735 OA 
ENDROOT
BRANCH   3   6
HETATM    6  N   UNL     1     -11.509  12.364  64.942  1.00  0.00    -0.322 N  
HETATM    7  H   UNL     1     -10.537  12.246  65.230  1.00  0.00     0.000 HD 
BRANCH   6   8
HETATM    8  N   UNL     1     -12.390  12.965  65.793  1.00  0.00    -0.550 NA 
HETATM    9  H   UNL     1     -13.373  12.694  65.780  1.00  0.00     0.000 HD 
BRANCH   8  10
HETATM   10  C   UNL     1     -11.984  13.881  66.619  1.00  0.00    -0.442 C  
HETATM   11  C   UNL     1     -12.002  13.838  68.108  1.00  0.00    -0.394 C  
HETATM   12  C   UNL     1     -11.514  14.846  68.840  1.00  0.00    -0.320 C  
HETATM   13  C   UNL     1     -10.937  16.048  68.244  1.00  0.00    -0.335 A  
HETATM   14  C   UNL     1     -10.425  17.062  69.065  1.00  0.00    -0.337 A  
HETATM   15  C   UNL     1      -9.874  18.218  68.504  1.00  0.00    -0.400 A  
HETATM   16  C   UNL     1      -9.831  18.374  67.120  1.00  0.00    -0.329 A  
HETATM   17  C   UNL     1     -10.337  17.372  66.293  1.00  0.00    -0.330 A  
HETATM   18  C   UNL     1     -10.887  16.214  66.858  1.00  0.00    -0.175 A  
HETATM   19  C   UNL     1     -11.420  15.154  65.981  1.00  0.00    -0.157 C  
HETATM   20  O   UNL     1     -11.409  15.284  64.763  1.00  0.00    -0.409 OA 
ENDBRANCH   8  10
ENDBRANCH   6   8
ENDBRANCH   3   6
TORSDOF 3
ENDMDL
MODEL       28
REMARK 921   NORMALIZED FREE ENERGY PREDICTED BY IDOCK:   -5.46 KCAL/MOL
REMARK 922        TOTAL FREE ENERGY PREDICTED BY IDOCK:   -6.90 KCAL/MOL
REMARK 923 INTER-LIGAND FREE ENERGY PREDICTED BY IDOCK:   -6.54 KCAL/MOL
REMARK 924 INTRA-LIGAND FREE ENERGY PREDICTED BY IDOCK:   -0.36 KCAL/MOL
REMARK 927      BINDING AFFINITY PREDICTED BY RF-SCORE:    0.00 PKD
ROOT
HETATM    1  N   UNL     1     -14.393   7.443  72.412  1.00  0.00    -0.588 N  
HETATM    2  H1  UNL     1     -15.104   8.039  72.837  1.00  0.00     0.000 HD 
HETATM    3  C   UNL     1     -13.477   7.906  71.527  1.00  0.00    -0.306 C  
HETATM    4  H2  UNL     1     -14.371   6.454  72.664  1.00  0.00     0.000 HD 
HETATM    5  O   UNL     1     -12.624   7.190  71.017  1.00  0.00    -0.357 OA 
ENDROOT
BRANCH   3   6
HETATM    6  N   UNL     1     -13.584   9.247  71.253  1.00  0.00    -0.530 N  
HETATM    7  H   UNL     1     -14.021   9.545  70.382  1.00  0.00     0.000 HD 
BRANCH   6   8
HETATM    8  N   UNL     1     -13.119  10.188  72.125  1.00  0.00    -0.491 NA 
HETATM    9  H   UNL     1     -12.833   9.911  73.065  1.00  0.00     0.000 HD 
BRANCH   8  10
HETATM   10  C   UNL     1     -13.037  11.433  71.765  1.00  0.00    -0.418 C  
HETATM   11  C   UNL     1     -13.638  12.617  72.437  1.00  0.00    -0.435 C  
HETATM   12  C   UNL     1     -13.441  13.857  71.974  1.00  0.00    -0.543 C  
HETATM   13  C   UNL     1     -12.634  14.138  70.790  1.00  0.00    -0.432 A  
HETATM   14  C   UNL     1     -12.448  15.460  70.364  1.00  0.00    -0.447 A  
HETATM   15  C   UNL     1     -11.681  15.739  69.230  1.00  0.00    -0.384 A  
HETATM   16  C   UNL     1     -11.093  14.702  68.508  1.00  0.00    -0.273 A  
HETATM   17  C   UNL     1     -11.270  13.382  68.921  1.00  0.00    -0.320 A  
HETATM   18  C   UNL     1     -12.039  13.106  70.060  1.00  0.00    -0.375 A  
HETATM   19  C   UNL     1     -12.223  11.709  70.498  1.00  0.00    -0.361 C  
HETATM   20  O   UNL     1     -11.731  10.784  69.863  1.00  0.00    -0.275 OA 
ENDBRANCH   8  10
ENDBRANCH   6   8
ENDBRANCH   3   6
TORSDOF 3
ENDMDL
MODEL       29
REMARK 921   NORMALIZED FREE ENERGY PREDICTED BY IDOCK:   -5.45 KCAL/MOL
REMARK 922        TOTAL FREE ENERGY PREDICTED BY IDOCK:   -6.88 KCAL/MOL
REMARK 923 INTER-LIGAND FREE ENERGY PREDICTED BY IDOCK:   -6.22 KCAL/MOL
REMARK 924 INTRA-LIGAND FREE ENERGY PREDICTED BY IDOCK:   -0.66 KCAL/MOL
REMARK 927      BINDING AFFINITY PREDICTED BY RF-SCORE:    0.00 PKD
ROOT
HETATM    1  N   UNL     1     -11.787  12.091  63.201  1.00  0.00    -0.730 N  
HETATM    2  H1  UNL     1     -11.658  11.229  63.732  1.00  0.00     0.000 HD 
HETATM    3  C   UNL     1     -12.316  13.216  63.741  1.00  0.00    -0.383 C  
HETATM    4  H2  UNL     1     -11.504  12.108  62.221  1.00  0.00     0.000 HD 
HETATM    5  O   UNL     1     -12.472  14.251  63.104  1.00  0.00    -0.612 OA 
ENDROOT
BRANCH   3   6
HETATM    6  N   UNL     1     -12.663  13.098  65.064  1.00  0.00    -0.686 N  
HETATM    7  H   UNL     1     -13.547  12.656  65.312  1.00  0.00     0.000 HD 
BRANCH   6   8
HETATM    8  N   UNL     1     -11.846  13.560  66.055  1.00  0.00    -0.359 NA 
HETATM    9  H   UNL     1     -11.317  14.421  65.915  1.00  0.00     0.000 HD 
BRANCH   8  10
HETATM   10  C   UNL     1     -11.738  12.910  67.174  1.00  0.00    -0.377 C  
HETATM   11  C   UNL     1     -12.134  13.366  68.534  1.00  0.00    -0.283 C  
HETATM   12  C   UNL     1     -11.999  12.571  69.603  1.00  0.00    -0.339 C  
HETATM   13  C   UNL     1     -11.457  11.218  69.517  1.00  0.00    -0.376 A  
HETATM   14  C   UNL     1     -11.358  10.427  70.669  1.00  0.00    -0.411 A  
HETATM   15  C   UNL     1     -10.837   9.132  70.598  1.00  0.00    -0.321 A  
HETATM   16  C   UNL     1     -10.409   8.614  69.377  1.00  0.00    -0.221 A  
HETATM   17  C   UNL     1     -10.504   9.391  68.223  1.00  0.00    -0.260 A  
HETATM   18  C   UNL     1     -11.028  10.688  68.297  1.00  0.00    -0.314 A  
HETATM   19  C   UNL     1     -11.129  11.508  67.075  1.00  0.00    -0.307 C  
HETATM   20  O   UNL     1     -10.739  11.077  65.997  1.00  0.00    -0.245 OA 
ENDBRANCH   8  10
ENDBRANCH   6   8
ENDBRANCH   3   6
TORSDOF 3
ENDMDL
MODEL       30
REMARK 921   NORMALIZED FREE ENERGY PREDICTED BY IDOCK:   -5.42 KCAL/MOL
REMARK 922        TOTAL FREE ENERGY PREDICTED BY IDOCK:   -6.86 KCAL/MOL
REMARK 923 INTER-LIGAND FREE ENERGY PREDICTED BY IDOCK:   -6.24 KCAL/MOL
REMARK 924 INTRA-LIGAND FREE ENERGY PREDICTED BY IDOCK:   -0.62 KCAL/MOL
REMARK 927      BINDING AFFINITY PREDICTED BY RF-SCORE:    0.00 PKD
ROOT
HETATM    1  N   UNL     1     -14.261  15.399  71.239  1.00  0.00    -0.737 N  
HETATM    2  H1  UNL     1     -14.282  14.648  70.549  1.00  0.00     0.000 HD 
HETATM    3  C   UNL     1     -13.775  15.233  72.493  1.00  0.00    -0.526 C  
HETATM    4  H2  UNL     1     -14.622  16.316  70.973  1.00  0.00     0.000 HD 
HETATM    5  O   UNL     1     -13.750  16.135  73.322  1.00  0.00    -0.568 OA 
ENDROOT
BRANCH   3   6
HETATM    6  N   UNL     1     -13.311  13.968  72.756  1.00  0.00    -0.543 N  
HETATM    7  H   UNL     1     -12.531  13.846  73.401  1.00  0.00     0.000 HD 
BRANCH   6   8
HETATM    8  N   UNL     1     -13.872  12.871  72.169  1.00  0.00    -0.393 NA 
HETATM    9  H   UNL     1     -14.888  12.774  72.144  1.00  0.00     0.000 HD 
BRANCH   8  10
HETATM   10  C   UNL     1     -13.122  11.951  71.645  1.00  0.00    -0.328 C  
HETATM   11  C   UNL     1     -12.989  10.530  72.071  1.00  0.00    -0.490 C  
HETATM   12  C   UNL     1     -12.199   9.675  71.412  1.00  0.00    -0.471 C  
HETATM   13  C   UNL     1     -11.417  10.065  70.241  1.00  0.00    -0.372 A  
HETATM   14  C   UNL     1     -10.623   9.118  69.580  1.00  0.00    -0.237 A  
HETATM   15  C   UNL     1      -9.868   9.482  68.462  1.00  0.00    -0.172 A  
HETATM   16  C   UNL     1      -9.897  10.794  67.992  1.00  0.00    -0.180 A  
HETATM   17  C   UNL     1     -10.684  11.745  68.641  1.00  0.00    -0.252 A  
HETATM   18  C   UNL     1     -11.441  11.377  69.761  1.00  0.00    -0.376 A  
HETATM   19  C   UNL     1     -12.276  12.384  70.444  1.00  0.00    -0.287 C  
HETATM   20  O   UNL     1     -12.297  13.546  70.058  1.00  0.00    -0.307 OA 
ENDBRANCH   8  10
ENDBRANCH   6   8
ENDBRANCH   3   6
TORSDOF 3
ENDMDL
MODEL       31
REMARK 921   NORMALIZED FREE ENERGY PREDICTED BY IDOCK:   -5.42 KCAL/MOL
REMARK 922        TOTAL FREE ENERGY PREDICTED BY IDOCK:   -6.85 KCAL/MOL
REMARK 923 INTER-LIGAND FREE ENERGY PREDICTED BY IDOCK:   -6.19 KCAL/MOL
REMARK 924 INTRA-LIGAND FREE ENERGY PREDICTED BY IDOCK:   -0.67 KCAL/MOL
REMARK 927      BINDING AFFINITY PREDICTED BY RF-SCORE:    0.00 PKD
ROOT
HETATM    1  N   UNL     1     -10.793  14.210  64.224  1.00  0.00    -0.586 N  
HETATM    2  H1  UNL     1     -10.658  13.293  64.649  1.00  0.00     0.000 HD 
HETATM    3  C   UNL     1     -10.996  15.336  64.951  1.00  0.00    -0.430 C  
HETATM    4  H2  UNL     1     -10.774  14.284  63.206  1.00  0.00     0.000 HD 
HETATM    5  O   UNL     1     -11.158  16.438  64.440  1.00  0.00    -0.825 OA 
ENDROOT
BRANCH   3   6
HETATM    6  N   UNL     1     -11.003  15.137  66.309  1.00  0.00    -0.340 N  
HETATM    7  H   UNL     1     -10.172  15.370  66.852  1.00  0.00     0.000 HD 
BRANCH   6   8
HETATM    8  N   UNL     1     -12.099  14.633  66.946  1.00  0.00    -0.434 NA 
HETATM    9  H   UNL     1     -13.031  14.961  66.689  1.00  0.00     0.000 HD 
BRANCH   8  10
HETATM   10  C   UNL     1     -11.964  13.738  67.878  1.00  0.00    -0.356 C  
HETATM   11  C   UNL     1     -12.224  13.895  69.335  1.00  0.00    -0.338 C  
HETATM   12  C   UNL     1     -12.077  12.871  70.184  1.00  0.00    -0.373 C  
HETATM   13  C   UNL     1     -11.655  11.541  69.751  1.00  0.00    -0.401 A  
HETATM   14  C   UNL     1     -11.537  10.503  70.685  1.00  0.00    -0.445 A  
HETATM   15  C   UNL     1     -11.129   9.229  70.281  1.00  0.00    -0.289 A  
HETATM   16  C   UNL     1     -10.834   8.978  68.943  1.00  0.00    -0.075 A  
HETATM   17  C   UNL     1     -10.947  10.003  68.004  1.00  0.00    -0.296 A  
HETATM   18  C   UNL     1     -11.358  11.279  68.411  1.00  0.00    -0.348 A  
HETATM   19  C   UNL     1     -11.480  12.361  67.416  1.00  0.00    -0.352 C  
HETATM   20  O   UNL     1     -11.204  12.164  66.239  1.00  0.00    -0.302 OA 
ENDBRANCH   8  10
ENDBRANCH   6   8
ENDBRANCH   3   6
TORSDOF 3
ENDMDL
MODEL       32
REMARK 921   NORMALIZED FREE ENERGY PREDICTED BY IDOCK:   -5.38 KCAL/MOL
REMARK 922        TOTAL FREE ENERGY PREDICTED BY IDOCK:   -6.80 KCAL/MOL
REMARK 923 INTER-LIGAND FREE ENERGY PREDICTED BY IDOCK:   -6.26 KCAL/MOL
REMARK 924 INTRA-LIGAND FREE ENERGY PREDICTED BY IDOCK:   -0.54 KCAL/MOL
REMARK 927      BINDING AFFINITY PREDICTED BY RF-SCORE:    0.00 PKD
ROOT
HETATM    1  N   UNL     1     -10.299  19.316  67.080  1.00  0.00    -0.395 N  
HETATM    2  H1  UNL     1     -11.234  19.322  67.488  1.00  0.00     0.000 HD 
HETATM    3  C   UNL     1      -9.729  18.201  66.563  1.00  0.00    -0.344 C  
HETATM    4  H2  UNL     1      -9.769  20.188  67.059  1.00  0.00     0.000 HD 
HETATM    5  O   UNL     1      -8.606  18.193  66.072  1.00  0.00    -0.496 OA 
ENDROOT
BRANCH   3   6
HETATM    6  N   UNL     1     -10.517  17.079  66.633  1.00  0.00    -0.288 N  
HETATM    7  H   UNL     1     -11.453  17.100  66.228  1.00  0.00     0.000 HD 
BRANCH   6   8
HETATM    8  N   UNL     1     -10.075  15.938  67.235  1.00  0.00    -0.255 NA 
HETATM    9  H   UNL     1      -9.177  15.536  66.962  1.00  0.00     0.000 HD 
BRANCH   8  10
HETATM   10  C   UNL     1     -10.789  15.360  68.153  1.00  0.00    -0.285 C  
HETATM   11  C   UNL     1     -11.454  14.029  68.088  1.00  0.00    -0.341 C  
HETATM   12  C   UNL     1     -12.133  13.537  69.130  1.00  0.00    -0.331 C  
HETATM   13  C   UNL     1     -12.274  14.258  70.393  1.00  0.00    -0.411 A  
HETATM   14  C   UNL     1     -12.982  13.682  71.456  1.00  0.00    -0.443 A  
HETATM   15  C   UNL     1     -13.126  14.366  72.665  1.00  0.00    -0.564 A  
HETATM   16  C   UNL     1     -12.566  15.632  72.827  1.00  0.00    -0.536 A  
HETATM   17  C   UNL     1     -11.858  16.216  71.777  1.00  0.00    -0.581 A  
HETATM   18  C   UNL     1     -11.714  15.527  70.565  1.00  0.00    -0.377 A  
HETATM   19  C   UNL     1     -10.963  16.146  69.456  1.00  0.00    -0.341 C  
HETATM   20  O   UNL     1     -10.483  17.266  69.573  1.00  0.00    -0.276 OA 
ENDBRANCH   8  10
ENDBRANCH   6   8
ENDBRANCH   3   6
TORSDOF 3
ENDMDL
MODEL       33
REMARK 921   NORMALIZED FREE ENERGY PREDICTED BY IDOCK:   -5.38 KCAL/MOL
REMARK 922        TOTAL FREE ENERGY PREDICTED BY IDOCK:   -6.80 KCAL/MOL
REMARK 923 INTER-LIGAND FREE ENERGY PREDICTED BY IDOCK:   -6.36 KCAL/MOL
REMARK 924 INTRA-LIGAND FREE ENERGY PREDICTED BY IDOCK:   -0.45 KCAL/MOL
REMARK 927      BINDING AFFINITY PREDICTED BY RF-SCORE:    0.00 PKD
ROOT
HETATM    1  N   UNL     1     -12.488   7.655  72.506  1.00  0.00    -0.539 N  
HETATM    2  H1  UNL     1     -13.401   7.503  72.077  1.00  0.00     0.000 HD 
HETATM    3  C   UNL     1     -11.509   8.385  71.918  1.00  0.00    -0.318 C  
HETATM    4  H2  UNL     1     -12.303   7.239  73.420  1.00  0.00     0.000 HD 
HETATM    5  O   UNL     1     -10.413   8.567  72.433  1.00  0.00    -0.322 OA 
ENDROOT
BRANCH   3   6
HETATM    6  N   UNL     1     -11.852   8.905  70.695  1.00  0.00    -0.450 N  
HETATM    7  H   UNL     1     -11.289   8.672  69.877  1.00  0.00     0.000 HD 
BRANCH   6   8
HETATM    8  N   UNL     1     -12.931   9.728  70.551  1.00  0.00    -0.555 NA 
HETATM    9  H   UNL     1     -13.859   9.328  70.412  1.00  0.00     0.000 HD 
BRANCH   8  10
HETATM   10  C   UNL     1     -12.783  11.018  70.592  1.00  0.00    -0.288 C  
HETATM   11  C   UNL     1     -13.045  11.930  71.739  1.00  0.00    -0.465 C  
HETATM   12  C   UNL     1     -12.812  13.245  71.652  1.00  0.00    -0.397 C  
HETATM   13  C   UNL     1     -12.292  13.876  70.442  1.00  0.00    -0.433 A  
HETATM   14  C   UNL     1     -12.050  15.256  70.419  1.00  0.00    -0.388 A  
HETATM   15  C   UNL     1     -11.557  15.870  69.264  1.00  0.00    -0.372 A  
HETATM   16  C   UNL     1     -11.301  15.114  68.122  1.00  0.00    -0.345 A  
HETATM   17  C   UNL     1     -11.537  13.740  68.133  1.00  0.00    -0.370 A  
HETATM   18  C   UNL     1     -12.030  13.127  69.292  1.00  0.00    -0.344 A  
HETATM   19  C   UNL     1     -12.277  11.672  69.303  1.00  0.00    -0.164 C  
HETATM   20  O   UNL     1     -12.077  10.996  68.302  1.00  0.00    -0.604 OA 
ENDBRANCH   8  10
ENDBRANCH   6   8
ENDBRANCH   3   6
TORSDOF 3
ENDMDL
MODEL       34
REMARK 921   NORMALIZED FREE ENERGY PREDICTED BY IDOCK:   -5.35 KCAL/MOL
REMARK 922        TOTAL FREE ENERGY PREDICTED BY IDOCK:   -6.77 KCAL/MOL
REMARK 923 INTER-LIGAND FREE ENERGY PREDICTED BY IDOCK:   -6.40 KCAL/MOL
REMARK 924 INTRA-LIGAND FREE ENERGY PREDICTED BY IDOCK:   -0.37 KCAL/MOL
REMARK 927      BINDING AFFINITY PREDICTED BY RF-SCORE:    0.00 PKD
ROOT
HETATM    1  N   UNL     1     -13.903   8.967  72.920  1.00  0.00    -0.915 N  
HETATM    2  H1  UNL     1     -13.626   9.861  73.325  1.00  0.00     0.000 HD 
HETATM    3  C   UNL     1     -13.982   8.757  71.584  1.00  0.00    -0.394 C  
HETATM    4  H2  UNL     1     -14.129   8.196  73.549  1.00  0.00     0.000 HD 
HETATM    5  O   UNL     1     -14.315   7.683  71.098  1.00  0.00    -0.352 OA 
ENDROOT
BRANCH   3   6
HETATM    6  N   UNL     1     -13.656   9.850  70.821  1.00  0.00    -0.500 N  
HETATM    7  H   UNL     1     -14.274  10.130  70.059  1.00  0.00     0.000 HD 
BRANCH   6   8
HETATM    8  N   UNL     1     -12.522  10.570  71.061  1.00  0.00    -0.362 NA 
HETATM    9  H   UNL     1     -11.789  10.178  71.652  1.00  0.00     0.000 HD 
BRANCH   8  10
HETATM   10  C   UNL     1     -12.371  11.750  70.541  1.00  0.00    -0.299 C  
HETATM   11  C   UNL     1     -12.571  13.069  71.203  1.00  0.00    -0.388 C  
HETATM   12  C   UNL     1     -12.342  14.217  70.554  1.00  0.00    -0.434 C  
HETATM   13  C   UNL     1     -11.887  14.262  69.167  1.00  0.00    -0.368 A  
HETATM   14  C   UNL     1     -11.645  15.495  68.547  1.00  0.00    -0.379 A  
HETATM   15  C   UNL     1     -11.214  15.549  67.219  1.00  0.00    -0.226 A  
HETATM   16  C   UNL     1     -11.021  14.373  66.495  1.00  0.00    -0.316 A  
HETATM   17  C   UNL     1     -11.257  13.140  67.101  1.00  0.00    -0.326 A  
HETATM   18  C   UNL     1     -11.688  13.089  68.434  1.00  0.00    -0.386 A  
HETATM   19  C   UNL     1     -11.935  11.783  69.074  1.00  0.00    -0.280 C  
HETATM   20  O   UNL     1     -11.790  10.741  68.447  1.00  0.00    -0.478 OA 
ENDBRANCH   8  10
ENDBRANCH   6   8
ENDBRANCH   3   6
TORSDOF 3
ENDMDL
MODEL       35
REMARK 921   NORMALIZED FREE ENERGY PREDICTED BY IDOCK:   -5.33 KCAL/MOL
REMARK 922        TOTAL FREE ENERGY PREDICTED BY IDOCK:   -6.75 KCAL/MOL
REMARK 923 INTER-LIGAND FREE ENERGY PREDICTED BY IDOCK:   -6.58 KCAL/MOL
REMARK 924 INTRA-LIGAND FREE ENERGY PREDICTED BY IDOCK:   -0.17 KCAL/MOL
REMARK 927      BINDING AFFINITY PREDICTED BY RF-SCORE:    0.00 PKD
ROOT
HETATM    1  N   UNL     1     -10.021   8.512  66.168  1.00  0.00    -0.468 N  
HETATM    2  H1  UNL     1     -10.044   9.318  65.543  1.00  0.00     0.000 HD 
HETATM    3  C   UNL     1     -10.603   8.513  67.391  1.00  0.00    -0.234 C  
HETATM    4  H2  UNL     1      -9.538   7.668  65.858  1.00  0.00     0.000 HD 
HETATM    5  O   UNL     1     -10.575   7.545  68.142  1.00  0.00    -0.198 OA 
ENDROOT
BRANCH   3   6
HETATM    6  N   UNL     1     -11.229   9.690  67.718  1.00  0.00    -0.471 N  
HETATM    7  H   UNL     1     -11.523  10.322  66.974  1.00  0.00     0.000 HD 
BRANCH   6   8
HETATM    8  N   UNL     1     -11.466  10.030  69.018  1.00  0.00    -0.475 NA 
HETATM    9  H   UNL     1     -11.485   9.306  69.736  1.00  0.00     0.000 HD 
BRANCH   8  10
HETATM   10  C   UNL     1     -11.666  11.271  69.345  1.00  0.00    -0.339 C  
HETATM   11  C   UNL     1     -11.271  12.489  68.586  1.00  0.00    -0.319 C  
HETATM   12  C   UNL     1     -11.577  13.715  69.027  1.00  0.00    -0.356 C  
HETATM   13  C   UNL     1     -12.308  13.948  70.270  1.00  0.00    -0.413 A  
HETATM   14  C   UNL     1     -12.615  15.255  70.670  1.00  0.00    -0.471 A  
HETATM   15  C   UNL     1     -13.311  15.488  71.859  1.00  0.00    -0.569 A  
HETATM   16  C   UNL     1     -13.706  14.420  72.662  1.00  0.00    -0.546 A  
HETATM   17  C   UNL     1     -13.406  13.114  72.275  1.00  0.00    -0.621 A  
HETATM   18  C   UNL     1     -12.710  12.883  71.081  1.00  0.00    -0.366 A  
HETATM   19  C   UNL     1     -12.397  11.501  70.671  1.00  0.00    -0.364 C  
HETATM   20  O   UNL     1     -12.717  10.551  71.375  1.00  0.00    -0.368 OA 
ENDBRANCH   8  10
ENDBRANCH   6   8
ENDBRANCH   3   6
TORSDOF 3
ENDMDL
MODEL       36
REMARK 921   NORMALIZED FREE ENERGY PREDICTED BY IDOCK:   -5.32 KCAL/MOL
REMARK 922        TOTAL FREE ENERGY PREDICTED BY IDOCK:   -6.74 KCAL/MOL
REMARK 923 INTER-LIGAND FREE ENERGY PREDICTED BY IDOCK:   -6.36 KCAL/MOL
REMARK 924 INTRA-LIGAND FREE ENERGY PREDICTED BY IDOCK:   -0.38 KCAL/MOL
REMARK 927      BINDING AFFINITY PREDICTED BY RF-SCORE:    0.00 PKD
ROOT
HETATM    1  N   UNL     1      -9.975  12.485  64.146  1.00  0.00    -0.584 N  
HETATM    2  H1  UNL     1      -9.988  13.501  64.055  1.00  0.00     0.000 HD 
HETATM    3  C   UNL     1     -10.400  11.840  65.259  1.00  0.00    -0.274 C  
HETATM    4  H2  UNL     1      -9.628  11.929  63.364  1.00  0.00     0.000 HD 
HETATM    5  O   UNL     1     -10.385  10.620  65.369  1.00  0.00    -0.272 OA 
ENDROOT
BRANCH   3   6
HETATM    6  N   UNL     1     -10.852  12.671  66.255  1.00  0.00    -0.268 N  
HETATM    7  H   UNL     1     -11.635  13.296  66.067  1.00  0.00     0.000 HD 
BRANCH   6   8
HETATM    8  N   UNL     1     -10.273  12.676  67.490  1.00  0.00    -0.213 NA 
HETATM    9  H   UNL     1      -9.256  12.678  67.574  1.00  0.00     0.000 HD 
BRANCH   8  10
HETATM   10  C   UNL     1     -11.009  12.678  68.560  1.00  0.00    -0.261 C  
HETATM   11  C   UNL     1     -11.384  11.515  69.411  1.00  0.00    -0.355 C  
HETATM   12  C   UNL     1     -12.124  11.668  70.515  1.00  0.00    -0.458 C  
HETATM   13  C   UNL     1     -12.616  12.969  70.961  1.00  0.00    -0.386 A  
HETATM   14  C   UNL     1     -13.372  13.068  72.138  1.00  0.00    -0.622 A  
HETATM   15  C   UNL     1     -13.851  14.307  72.570  1.00  0.00    -0.575 A  
HETATM   16  C   UNL     1     -13.582  15.460  71.834  1.00  0.00    -0.590 A  
HETATM   17  C   UNL     1     -12.831  15.374  70.663  1.00  0.00    -0.484 A  
HETATM   18  C   UNL     1     -12.351  14.130  70.232  1.00  0.00    -0.421 A  
HETATM   19  C   UNL     1     -11.553  14.042  68.993  1.00  0.00    -0.306 C  
HETATM   20  O   UNL     1     -11.326  15.042  68.323  1.00  0.00    -0.290 OA 
ENDBRANCH   8  10
ENDBRANCH   6   8
ENDBRANCH   3   6
TORSDOF 3
ENDMDL
MODEL       37
REMARK 921   NORMALIZED FREE ENERGY PREDICTED BY IDOCK:   -5.32 KCAL/MOL
REMARK 922        TOTAL FREE ENERGY PREDICTED BY IDOCK:   -6.74 KCAL/MOL
REMARK 923 INTER-LIGAND FREE ENERGY PREDICTED BY IDOCK:   -6.43 KCAL/MOL
REMARK 924 INTRA-LIGAND FREE ENERGY PREDICTED BY IDOCK:   -0.31 KCAL/MOL
REMARK 927      BINDING AFFINITY PREDICTED BY RF-SCORE:    0.00 PKD
ROOT
HETATM    1  N   UNL     1      -9.675  11.411  62.506  1.00  0.00    -0.534 N  
HETATM    2  H1  UNL     1      -9.858  11.963  61.667  1.00  0.00     0.000 HD 
HETATM    3  C   UNL     1     -10.627  11.142  63.432  1.00  0.00    -0.270 C  
HETATM    4  H2  UNL     1      -8.734  11.044  62.653  1.00  0.00     0.000 HD 
HETATM    5  O   UNL     1     -10.407  10.480  64.439  1.00  0.00    -0.341 OA 
ENDROOT
BRANCH   3   6
HETATM    6  N   UNL     1     -11.859  11.675  63.146  1.00  0.00    -0.900 N  
HETATM    7  H   UNL     1     -12.236  11.584  62.203  1.00  0.00     0.000 HD 
BRANCH   6   8
HETATM    8  N   UNL     1     -12.590  12.323  64.098  1.00  0.00    -0.602 NA 
HETATM    9  H   UNL     1     -13.548  12.029  64.290  1.00  0.00     0.000 HD 
BRANCH   8  10
HETATM   10  C   UNL     1     -12.074  13.312  64.763  1.00  0.00    -0.409 C  
HETATM   11  C   UNL     1     -11.611  14.624  64.231  1.00  0.00    -0.227 C  
HETATM   12  C   UNL     1     -11.129  15.574  65.041  1.00  0.00    -0.411 C  
HETATM   13  C   UNL     1     -11.020  15.398  66.487  1.00  0.00    -0.271 A  
HETATM   14  C   UNL     1     -10.524  16.437  67.285  1.00  0.00    -0.303 A  
HETATM   15  C   UNL     1     -10.412  16.277  68.669  1.00  0.00    -0.282 A  
HETATM   16  C   UNL     1     -10.792  15.078  69.270  1.00  0.00    -0.263 A  
HETATM   17  C   UNL     1     -11.287  14.036  68.486  1.00  0.00    -0.308 A  
HETATM   18  C   UNL     1     -11.400  14.200  67.099  1.00  0.00    -0.348 A  
HETATM   19  C   UNL     1     -11.926  13.098  66.272  1.00  0.00    -0.415 C  
HETATM   20  O   UNL     1     -12.245  12.030  66.780  1.00  0.00    -0.545 OA 
ENDBRANCH   8  10
ENDBRANCH   6   8
ENDBRANCH   3   6
TORSDOF 3
ENDMDL
MODEL       38
REMARK 921   NORMALIZED FREE ENERGY PREDICTED BY IDOCK:   -5.29 KCAL/MOL
REMARK 922        TOTAL FREE ENERGY PREDICTED BY IDOCK:   -6.70 KCAL/MOL
REMARK 923 INTER-LIGAND FREE ENERGY PREDICTED BY IDOCK:   -6.26 KCAL/MOL
REMARK 924 INTRA-LIGAND FREE ENERGY PREDICTED BY IDOCK:   -0.44 KCAL/MOL
REMARK 927      BINDING AFFINITY PREDICTED BY RF-SCORE:    0.00 PKD
ROOT
HETATM    1  N   UNL     1     -13.226  10.921  72.168  1.00  0.00    -0.586 N  
HETATM    2  H1  UNL     1     -13.466  11.878  72.430  1.00  0.00     0.000 HD 
HETATM    3  C   UNL     1     -12.377  10.627  71.153  1.00  0.00    -0.400 C  
HETATM    4  H2  UNL     1     -13.643  10.152  72.692  1.00  0.00     0.000 HD 
HETATM    5  O   UNL     1     -12.089   9.479  70.837  1.00  0.00    -0.291 OA 
ENDROOT
BRANCH   3   6
HETATM    6  N   UNL     1     -11.866  11.727  70.509  1.00  0.00    -0.500 N  
HETATM    7  H   UNL     1     -12.336  12.626  70.606  1.00  0.00     0.000 HD 
BRANCH   6   8
HETATM    8  N   UNL     1     -10.740  11.639  69.743  1.00  0.00    -0.414 NA 
HETATM    9  H   UNL     1      -9.825  11.576  70.191  1.00  0.00     0.000 HD 
BRANCH   8  10
HETATM   10  C   UNL     1     -10.826  11.636  68.448  1.00  0.00    -0.219 C  
HETATM   11  C   UNL     1     -10.419  10.553  67.510  1.00  0.00    -0.284 C  
HETATM   12  C   UNL     1     -10.600  10.670  66.189  1.00  0.00    -0.211 C  
HETATM   13  C   UNL     1     -11.199  11.853  65.576  1.00  0.00    -0.353 A  
HETATM   14  C   UNL     1     -11.380  11.908  64.187  1.00  0.00    -0.455 A  
HETATM   15  C   UNL     1     -11.948  13.037  63.591  1.00  0.00    -0.608 A  
HETATM   16  C   UNL     1     -12.340  14.122  64.373  1.00  0.00    -0.410 A  
HETATM   17  C   UNL     1     -12.166  14.078  65.756  1.00  0.00    -0.475 A  
HETATM   18  C   UNL     1     -11.598  12.944  66.351  1.00  0.00    -0.425 A  
HETATM   19  C   UNL     1     -11.416  12.899  67.815  1.00  0.00    -0.323 C  
HETATM   20  O   UNL     1     -11.736  13.852  68.515  1.00  0.00    -0.312 OA 
ENDBRANCH   8  10
ENDBRANCH   6   8
ENDBRANCH   3   6
TORSDOF 3
ENDMDL
MODEL       39
REMARK 921   NORMALIZED FREE ENERGY PREDICTED BY IDOCK:   -5.27 KCAL/MOL
REMARK 922        TOTAL FREE ENERGY PREDICTED BY IDOCK:   -6.68 KCAL/MOL
REMARK 923 INTER-LIGAND FREE ENERGY PREDICTED BY IDOCK:   -6.04 KCAL/MOL
REMARK 924 INTRA-LIGAND FREE ENERGY PREDICTED BY IDOCK:   -0.64 KCAL/MOL
REMARK 927      BINDING AFFINITY PREDICTED BY RF-SCORE:    0.00 PKD
ROOT
HETATM    1  N   UNL     1     -11.304  14.005  70.539  1.00  0.00    -0.498 N  
HETATM    2  H1  UNL     1     -10.564  13.487  70.066  1.00  0.00     0.000 HD 
HETATM    3  C   UNL     1     -12.145  14.846  69.890  1.00  0.00    -0.332 C  
HETATM    4  H2  UNL     1     -11.417  13.884  71.546  1.00  0.00     0.000 HD 
HETATM    5  O   UNL     1     -13.034  15.468  70.458  1.00  0.00    -0.427 OA 
ENDROOT
BRANCH   3   6
HETATM    6  N   UNL     1     -11.917  14.940  68.539  1.00  0.00    -0.543 N  
HETATM    7  H   UNL     1     -11.108  15.461  68.204  1.00  0.00     0.000 HD 
BRANCH   6   8
HETATM    8  N   UNL     1     -12.753  14.349  67.637  1.00  0.00    -0.059 NA 
HETATM    9  H   UNL     1     -13.761  14.365  67.793  1.00  0.00     0.000 HD 
BRANCH   8  10
HETATM   10  C   UNL     1     -12.272  13.766  66.581  1.00  0.00    -0.409 C  
HETATM   11  C   UNL     1     -12.390  14.207  65.163  1.00  0.00    -0.460 C  
HETATM   12  C   UNL     1     -11.809  13.524  64.170  1.00  0.00    -0.483 C  
HETATM   13  C   UNL     1     -11.029  12.310  64.397  1.00  0.00    -0.374 A  
HETATM   14  C   UNL     1     -10.428  11.649  63.317  1.00  0.00    -0.438 A  
HETATM   15  C   UNL     1      -9.683  10.485  63.524  1.00  0.00    -0.374 A  
HETATM   16  C   UNL     1      -9.531   9.968  64.809  1.00  0.00    -0.366 A  
HETATM   17  C   UNL     1     -10.123  10.617  65.892  1.00  0.00    -0.321 A  
HETATM   18  C   UNL     1     -10.868  11.785  65.682  1.00  0.00    -0.342 A  
HETATM   19  C   UNL     1     -11.492  12.472  66.829  1.00  0.00    -0.362 C  
HETATM   20  O   UNL     1     -11.386  12.021  67.963  1.00  0.00    -0.252 OA 
ENDBRANCH   8  10
ENDBRANCH   6   8
ENDBRANCH   3   6
TORSDOF 3
ENDMDL
MODEL       40
REMARK 921   NORMALIZED FREE ENERGY PREDICTED BY IDOCK:   -5.18 KCAL/MOL
REMARK 922        TOTAL FREE ENERGY PREDICTED BY IDOCK:   -6.56 KCAL/MOL
REMARK 923 INTER-LIGAND FREE ENERGY PREDICTED BY IDOCK:   -6.34 KCAL/MOL
REMARK 924 INTRA-LIGAND FREE ENERGY PREDICTED BY IDOCK:   -0.23 KCAL/MOL
REMARK 927      BINDING AFFINITY PREDICTED BY RF-SCORE:    0.00 PKD
ROOT
HETATM    1  N   UNL     1     -11.427  14.307  71.030  1.00  0.00    -0.499 N  
HETATM    2  H1  UNL     1     -10.683  13.766  70.588  1.00  0.00     0.000 HD 
HETATM    3  C   UNL     1     -12.169  15.221  70.360  1.00  0.00    -0.363 C  
HETATM    4  H2  UNL     1     -11.620  14.152  72.020  1.00  0.00     0.000 HD 
HETATM    5  O   UNL     1     -13.062  15.871  70.891  1.00  0.00    -0.505 OA 
ENDROOT
BRANCH   3   6
HETATM    6  N   UNL     1     -11.837  15.357  69.035  1.00  0.00    -0.451 N  
HETATM    7  H   UNL     1     -11.094  16.003  68.769  1.00  0.00     0.000 HD 
BRANCH   6   8
HETATM    8  N   UNL     1     -12.481  14.644  68.066  1.00  0.00    -0.472 NA 
HETATM    9  H   UNL     1     -13.418  14.920  67.772  1.00  0.00     0.000 HD 
BRANCH   8  10
HETATM   10  C   UNL     1     -11.909  13.615  67.518  1.00  0.00    -0.381 C  
HETATM   11  C   UNL     1     -11.630  12.290  68.137  1.00  0.00    -0.396 C  
HETATM   12  C   UNL     1     -11.062  11.300  67.438  1.00  0.00    -0.358 C  
HETATM   13  C   UNL     1     -10.677  11.442  66.036  1.00  0.00    -0.318 A  
HETATM   14  C   UNL     1     -10.103  10.362  65.352  1.00  0.00    -0.354 A  
HETATM   15  C   UNL     1      -9.728  10.490  64.013  1.00  0.00    -0.383 A  
HETATM   16  C   UNL     1      -9.919  11.697  63.342  1.00  0.00    -0.447 A  
HETATM   17  C   UNL     1     -10.489  12.779  64.012  1.00  0.00    -0.433 A  
HETATM   18  C   UNL     1     -10.866  12.647  65.355  1.00  0.00    -0.318 A  
HETATM   19  C   UNL     1     -11.472  13.793  66.061  1.00  0.00    -0.326 C  
HETATM   20  O   UNL     1     -11.628  14.867  65.494  1.00  0.00    -0.336 OA 
ENDBRANCH   8  10
ENDBRANCH   6   8
ENDBRANCH   3   6
TORSDOF 3
ENDMDL
MODEL       41
REMARK 921   NORMALIZED FREE ENERGY PREDICTED BY IDOCK:   -5.13 KCAL/MOL
REMARK 922        TOTAL FREE ENERGY PREDICTED BY IDOCK:   -6.51 KCAL/MOL
REMARK 923 INTER-LIGAND FREE ENERGY PREDICTED BY IDOCK:   -6.11 KCAL/MOL
REMARK 924 INTRA-LIGAND FREE ENERGY PREDICTED BY IDOCK:   -0.39 KCAL/MOL
REMARK 927      BINDING AFFINITY PREDICTED BY RF-SCORE:    0.00 PKD
ROOT
HETATM    1  N   UNL     1      -9.473  20.781  67.244  1.00  0.00    -0.616 N  
HETATM    2  H1  UNL     1     -10.472  20.606  67.358  1.00  0.00     0.000 HD 
HETATM    3  C   UNL     1      -8.528  19.842  67.490  1.00  0.00    -0.322 C  
HETATM    4  H2  UNL     1      -9.173  21.704  66.929  1.00  0.00     0.000 HD 
HETATM    5  O   UNL     1      -7.329  20.052  67.352  1.00  0.00    -0.247 OA 
ENDROOT
BRANCH   3   6
HETATM    6  N   UNL     1      -9.029  18.633  67.905  1.00  0.00    -0.282 N  
HETATM    7  H   UNL     1      -8.427  17.995  68.425  1.00  0.00     0.000 HD 
BRANCH   6   8
HETATM    8  N   UNL     1     -10.316  18.268  67.635  1.00  0.00    -0.378 NA 
HETATM    9  H   UNL     1     -11.022  18.986  67.470  1.00  0.00     0.000 HD 
BRANCH   8  10
HETATM   10  C   UNL     1     -10.647  17.013  67.587  1.00  0.00    -0.333 C  
HETATM   11  C   UNL     1     -11.253  16.188  68.668  1.00  0.00    -0.369 C  
HETATM   12  C   UNL     1     -11.579  14.906  68.467  1.00  0.00    -0.347 C  
HETATM   13  C   UNL     1     -11.366  14.228  67.191  1.00  0.00    -0.352 A  
HETATM   14  C   UNL     1     -11.747  12.888  67.037  1.00  0.00    -0.447 A  
HETATM   15  C   UNL     1     -11.543  12.229  65.821  1.00  0.00    -0.443 A  
HETATM   16  C   UNL     1     -10.957  12.899  64.749  1.00  0.00    -0.344 A  
HETATM   17  C   UNL     1     -10.575  14.233  64.890  1.00  0.00    -0.452 A  
HETATM   18  C   UNL     1     -10.782  14.891  66.110  1.00  0.00    -0.317 A  
HETATM   19  C   UNL     1     -10.379  16.303  66.257  1.00  0.00    -0.326 C  
HETATM   20  O   UNL     1      -9.844  16.901  65.332  1.00  0.00    -0.537 OA 
ENDBRANCH   8  10
ENDBRANCH   6   8
ENDBRANCH   3   6
TORSDOF 3
ENDMDL
MODEL       42
REMARK 921   NORMALIZED FREE ENERGY PREDICTED BY IDOCK:   -5.12 KCAL/MOL
REMARK 922        TOTAL FREE ENERGY PREDICTED BY IDOCK:   -6.50 KCAL/MOL
REMARK 923 INTER-LIGAND FREE ENERGY PREDICTED BY IDOCK:   -6.06 KCAL/MOL
REMARK 924 INTRA-LIGAND FREE ENERGY PREDICTED BY IDOCK:   -0.44 KCAL/MOL
REMARK 927      BINDING AFFINITY PREDICTED BY RF-SCORE:    0.00 PKD
ROOT
HETATM    1  N   UNL     1     -14.257  15.835  72.747  1.00  0.00    -0.494 N  
HETATM    2  H1  UNL     1     -14.164  16.768  72.345  1.00  0.00     0.000 HD 
HETATM    3  C   UNL     1     -14.004  14.703  72.045  1.00  0.00    -0.485 C  
HETATM    4  H2  UNL     1     -14.552  15.749  73.720  1.00  0.00     0.000 HD 
HETATM    5  O   UNL     1     -14.116  13.582  72.528  1.00  0.00    -0.731 OA 
ENDROOT
BRANCH   3   6
HETATM    6  N   UNL     1     -13.611  14.919  70.748  1.00  0.00    -0.638 N  
HETATM    7  H   UNL     1     -14.012  15.698  70.227  1.00  0.00     0.000 HD 
BRANCH   6   8
HETATM    8  N   UNL     1     -12.693  14.111  70.142  1.00  0.00    -0.407 NA 
HETATM    9  H   UNL     1     -12.577  13.149  70.459  1.00  0.00     0.000 HD 
BRANCH   8  10
HETATM   10  C   UNL     1     -11.967  14.561  69.164  1.00  0.00    -0.309 C  
HETATM   11  C   UNL     1     -11.960  14.101  67.748  1.00  0.00    -0.389 C  
HETATM   12  C   UNL     1     -11.180  14.684  66.829  1.00  0.00    -0.344 C  
HETATM   13  C   UNL     1     -10.289  15.797  67.142  1.00  0.00    -0.291 A  
HETATM   14  C   UNL     1      -9.511  16.379  66.132  1.00  0.00    -0.363 A  
HETATM   15  C   UNL     1      -8.651  17.442  66.422  1.00  0.00    -0.282 A  
HETATM   16  C   UNL     1      -8.559  17.935  67.722  1.00  0.00    -0.242 A  
HETATM   17  C   UNL     1      -9.329  17.365  68.736  1.00  0.00    -0.244 A  
HETATM   18  C   UNL     1     -10.191  16.300  68.442  1.00  0.00    -0.249 A  
HETATM   19  C   UNL     1     -11.006  15.701  69.515  1.00  0.00    -0.281 C  
HETATM   20  O   UNL     1     -10.922  16.107  70.667  1.00  0.00    -0.311 OA 
ENDBRANCH   8  10
ENDBRANCH   6   8
ENDBRANCH   3   6
TORSDOF 3
ENDMDL
MODEL       43
REMARK 921   NORMALIZED FREE ENERGY PREDICTED BY IDOCK:   -5.12 KCAL/MOL
REMARK 922        TOTAL FREE ENERGY PREDICTED BY IDOCK:   -6.49 KCAL/MOL
REMARK 923 INTER-LIGAND FREE ENERGY PREDICTED BY IDOCK:   -6.11 KCAL/MOL
REMARK 924 INTRA-LIGAND FREE ENERGY PREDICTED BY IDOCK:   -0.38 KCAL/MOL
REMARK 927      BINDING AFFINITY PREDICTED BY RF-SCORE:    0.00 PKD
ROOT
HETATM    1  N   UNL     1     -12.897  12.784  64.766  1.00  0.00    -0.743 N  
HETATM    2  H1  UNL     1     -12.526  11.994  65.294  1.00  0.00     0.000 HD 
HETATM    3  C   UNL     1     -12.257  13.976  64.678  1.00  0.00    -0.435 C  
HETATM    4  H2  UNL     1     -13.788  12.673  64.282  1.00  0.00     0.000 HD 
HETATM    5  O   UNL     1     -12.702  14.925  64.044  1.00  0.00    -0.792 OA 
ENDROOT
BRANCH   3   6
HETATM    6  N   UNL     1     -11.066  14.028  65.359  1.00  0.00    -0.309 N  
HETATM    7  H   UNL     1     -10.958  13.490  66.218  1.00  0.00     0.000 HD 
BRANCH   6   8
HETATM    8  N   UNL     1     -10.025  14.786  64.908  1.00  0.00    -0.446 NA 
HETATM    9  H   UNL     1      -9.719  14.702  63.939  1.00  0.00     0.000 HD 
BRANCH   8  10
HETATM   10  C   UNL     1      -9.422  15.614  65.706  1.00  0.00    -0.303 C  
HETATM   11  C   UNL     1      -8.241  15.347  66.573  1.00  0.00    -0.101 C  
HETATM   12  C   UNL     1      -7.695  16.310  67.324  1.00  0.00    -0.210 C  
HETATM   13  C   UNL     1      -8.209  17.677  67.351  1.00  0.00    -0.221 A  
HETATM   14  C   UNL     1      -7.582  18.648  68.144  1.00  0.00    -0.292 A  
HETATM   15  C   UNL     1      -8.069  19.957  68.180  1.00  0.00    -0.287 A  
HETATM   16  C   UNL     1      -9.188  20.311  67.427  1.00  0.00    -0.507 A  
HETATM   17  C   UNL     1      -9.820  19.354  66.634  1.00  0.00    -0.462 A  
HETATM   18  C   UNL     1      -9.328  18.042  66.599  1.00  0.00    -0.297 A  
HETATM   19  C   UNL     1      -9.998  17.032  65.757  1.00  0.00    -0.153 C  
HETATM   20  O   UNL     1     -10.994  17.320  65.106  1.00  0.00    -0.555 OA 
ENDBRANCH   8  10
ENDBRANCH   6   8
ENDBRANCH   3   6
TORSDOF 3
ENDMDL
MODEL       44
REMARK 921   NORMALIZED FREE ENERGY PREDICTED BY IDOCK:   -5.09 KCAL/MOL
REMARK 922        TOTAL FREE ENERGY PREDICTED BY IDOCK:   -6.46 KCAL/MOL
REMARK 923 INTER-LIGAND FREE ENERGY PREDICTED BY IDOCK:   -6.15 KCAL/MOL
REMARK 924 INTRA-LIGAND FREE ENERGY PREDICTED BY IDOCK:   -0.32 KCAL/MOL
REMARK 927      BINDING AFFINITY PREDICTED BY RF-SCORE:    0.00 PKD
ROOT
HETATM    1  N   UNL     1     -10.001  20.596  66.809  1.00  0.00    -0.553 N  
HETATM    2  H1  UNL     1     -10.977  20.606  67.106  1.00  0.00     0.000 HD 
HETATM    3  C   UNL     1      -9.440  19.546  66.161  1.00  0.00    -0.340 C  
HETATM    4  H2  UNL     1      -9.421  21.411  67.009  1.00  0.00     0.000 HD 
HETATM    5  O   UNL     1      -8.268  19.534  65.805  1.00  0.00    -0.427 OA 
ENDROOT
BRANCH   3   6
HETATM    6  N   UNL     1     -10.298  18.498  65.935  1.00  0.00    -0.383 N  
HETATM    7  H   UNL     1     -11.272  18.691  65.703  1.00  0.00     0.000 HD 
BRANCH   6   8
HETATM    8  N   UNL     1      -9.873  17.204  66.015  1.00  0.00    -0.483 NA 
HETATM    9  H   UNL     1      -9.072  16.899  65.461  1.00  0.00     0.000 HD 
BRANCH   8  10
HETATM   10  C   UNL     1     -10.482  16.360  66.791  1.00  0.00    -0.273 C  
HETATM   11  C   UNL     1     -11.062  15.039  66.423  1.00  0.00    -0.329 C  
HETATM   12  C   UNL     1     -11.633  14.248  67.339  1.00  0.00    -0.394 C  
HETATM   13  C   UNL     1     -11.731  14.617  68.749  1.00  0.00    -0.357 A  
HETATM   14  C   UNL     1     -12.324  13.737  69.665  1.00  0.00    -0.284 A  
HETATM   15  C   UNL     1     -12.427  14.083  71.015  1.00  0.00    -0.444 A  
HETATM   16  C   UNL     1     -11.939  15.309  71.465  1.00  0.00    -0.429 A  
HETATM   17  C   UNL     1     -11.347  16.192  70.563  1.00  0.00    -0.392 A  
HETATM   18  C   UNL     1     -11.244  15.843  69.210  1.00  0.00    -0.335 A  
HETATM   19  C   UNL     1     -10.614  16.777  68.258  1.00  0.00    -0.352 C  
HETATM   20  O   UNL     1     -10.200  17.867  68.632  1.00  0.00    -0.372 OA 
ENDBRANCH   8  10
ENDBRANCH   6   8
ENDBRANCH   3   6
TORSDOF 3
ENDMDL
MODEL       45
REMARK 921   NORMALIZED FREE ENERGY PREDICTED BY IDOCK:   -5.05 KCAL/MOL
REMARK 922        TOTAL FREE ENERGY PREDICTED BY IDOCK:   -6.42 KCAL/MOL
REMARK 923 INTER-LIGAND FREE ENERGY PREDICTED BY IDOCK:   -6.09 KCAL/MOL
REMARK 924 INTRA-LIGAND FREE ENERGY PREDICTED BY IDOCK:   -0.33 KCAL/MOL
REMARK 927      BINDING AFFINITY PREDICTED BY RF-SCORE:    0.00 PKD
ROOT
HETATM    1  N   UNL     1     -11.782  11.740  65.011  1.00  0.00    -0.177 N  
HETATM    2  H1  UNL     1     -11.037  11.046  65.080  1.00  0.00     0.000 HD 
HETATM    3  C   UNL     1     -11.698  12.968  65.578  1.00  0.00    -0.368 C  
HETATM    4  H2  UNL     1     -12.627  11.500  64.493  1.00  0.00     0.000 HD 
HETATM    5  O   UNL     1     -12.592  13.802  65.496  1.00  0.00    -0.482 OA 
ENDROOT
BRANCH   3   6
HETATM    6  N   UNL     1     -10.524  13.199  66.251  1.00  0.00    -0.280 N  
HETATM    7  H   UNL     1     -10.301  12.640  67.074  1.00  0.00     0.000 HD 
BRANCH   6   8
HETATM    8  N   UNL     1      -9.649  14.163  65.840  1.00  0.00    -0.495 NA 
HETATM    9  H   UNL     1      -9.090  14.015  64.999  1.00  0.00     0.000 HD 
BRANCH   8  10
HETATM   10  C   UNL     1      -9.524  15.267  66.513  1.00  0.00    -0.283 C  
HETATM   11  C   UNL     1      -8.855  15.461  67.829  1.00  0.00    -0.170 C  
HETATM   12  C   UNL     1      -8.767  16.670  68.395  1.00  0.00    -0.225 C  
HETATM   13  C   UNL     1      -9.315  17.874  67.775  1.00  0.00    -0.262 A  
HETATM   14  C   UNL     1      -9.175  19.116  68.408  1.00  0.00    -0.406 A  
HETATM   15  C   UNL     1      -9.699  20.272  67.825  1.00  0.00    -0.520 A  
HETATM   16  C   UNL     1     -10.370  20.201  66.605  1.00  0.00    -0.508 A  
HETATM   17  C   UNL     1     -10.515  18.971  65.965  1.00  0.00    -0.530 A  
HETATM   18  C   UNL     1      -9.987  17.813  66.551  1.00  0.00    -0.346 A  
HETATM   19  C   UNL     1     -10.140  16.513  65.871  1.00  0.00    -0.337 C  
HETATM   20  O   UNL     1     -10.745  16.429  64.809  1.00  0.00    -0.700 OA 
ENDBRANCH   8  10
ENDBRANCH   6   8
ENDBRANCH   3   6
TORSDOF 3
ENDMDL
MODEL       46
REMARK 921   NORMALIZED FREE ENERGY PREDICTED BY IDOCK:   -5.00 KCAL/MOL
REMARK 922        TOTAL FREE ENERGY PREDICTED BY IDOCK:   -6.36 KCAL/MOL
REMARK 923 INTER-LIGAND FREE ENERGY PREDICTED BY IDOCK:   -5.68 KCAL/MOL
REMARK 924 INTRA-LIGAND FREE ENERGY PREDICTED BY IDOCK:   -0.68 KCAL/MOL
REMARK 927      BINDING AFFINITY PREDICTED BY RF-SCORE:    0.00 PKD
ROOT
HETATM    1  N   UNL     1      -9.898   5.800  72.037  1.00  0.00    -0.154 N  
HETATM    2  H1  UNL     1      -9.501   6.633  71.602  1.00  0.00     0.000 HD 
HETATM    3  C   UNL     1     -10.980   5.839  72.851  1.00  0.00    -0.274 C  
HETATM    4  H2  UNL     1      -9.461   4.897  71.850  1.00  0.00     0.000 HD 
HETATM    5  O   UNL     1     -11.457   4.839  73.373  1.00  0.00    -0.338 OA 
ENDROOT
BRANCH   3   6
HETATM    6  N   UNL     1     -11.499   7.096  73.039  1.00  0.00    -0.559 N  
HETATM    7  H   UNL     1     -11.102   7.698  73.760  1.00  0.00     0.000 HD 
BRANCH   6   8
HETATM    8  N   UNL     1     -12.536   7.556  72.281  1.00  0.00    -0.504 NA 
HETATM    9  H   UNL     1     -13.344   6.956  72.109  1.00  0.00     0.000 HD 
BRANCH   8  10
HETATM   10  C   UNL     1     -12.501   8.751  71.775  1.00  0.00    -0.350 C  
HETATM   11  C   UNL     1     -13.314   9.933  72.173  1.00  0.00    -0.498 C  
HETATM   12  C   UNL     1     -13.147  11.125  71.587  1.00  0.00    -0.529 C  
HETATM   13  C   UNL     1     -12.169  11.351  70.525  1.00  0.00    -0.478 A  
HETATM   14  C   UNL     1     -12.027  12.627  69.963  1.00  0.00    -0.377 A  
HETATM   15  C   UNL     1     -11.098  12.853  68.944  1.00  0.00    -0.301 A  
HETATM   16  C   UNL     1     -10.302  11.809  68.475  1.00  0.00    -0.228 A  
HETATM   17  C   UNL     1     -10.434  10.536  69.027  1.00  0.00    -0.238 A  
HETATM   18  C   UNL     1     -11.365  10.312  70.050  1.00  0.00    -0.370 A  
HETATM   19  C   UNL     1     -11.501   8.964  70.635  1.00  0.00    -0.242 C  
HETATM   20  O   UNL     1     -10.825   8.031  70.221  1.00  0.00    -0.238 OA 
ENDBRANCH   8  10
ENDBRANCH   6   8
ENDBRANCH   3   6
TORSDOF 3
ENDMDL
MODEL       47
REMARK 921   NORMALIZED FREE ENERGY PREDICTED BY IDOCK:   -4.99 KCAL/MOL
REMARK 922        TOTAL FREE ENERGY PREDICTED BY IDOCK:   -6.34 KCAL/MOL
REMARK 923 INTER-LIGAND FREE ENERGY PREDICTED BY IDOCK:   -5.94 KCAL/MOL
REMARK 924 INTRA-LIGAND FREE ENERGY PREDICTED BY IDOCK:   -0.40 KCAL/MOL
REMARK 927      BINDING AFFINITY PREDICTED BY RF-SCORE:    0.00 PKD
ROOT
HETATM    1  N   UNL     1      -7.567  12.246  66.523  1.00  0.00    -0.353 N  
HETATM    2  H1  UNL     1      -7.668  12.943  65.785  1.00  0.00     0.000 HD 
HETATM    3  C   UNL     1      -8.560  11.949  67.396  1.00  0.00    -0.164 C  
HETATM    4  H2  UNL     1      -6.679  11.750  66.607  1.00  0.00     0.000 HD 
HETATM    5  O   UNL     1      -8.439  11.112  68.282  1.00  0.00    -0.131 OA 
ENDROOT
BRANCH   3   6
HETATM    6  N   UNL     1      -9.715  12.664  67.201  1.00  0.00    -0.207 N  
HETATM    7  H   UNL     1      -9.657  13.623  66.860  1.00  0.00     0.000 HD 
BRANCH   6   8
HETATM    8  N   UNL     1     -10.939  12.118  67.456  1.00  0.00    -0.244 NA 
HETATM    9  H   UNL     1     -11.411  11.571  66.734  1.00  0.00     0.000 HD 
BRANCH   8  10
HETATM   10  C   UNL     1     -11.508  12.289  68.610  1.00  0.00    -0.307 C  
HETATM   11  C   UNL     1     -11.803  11.258  69.643  1.00  0.00    -0.430 C  
HETATM   12  C   UNL     1     -12.364  11.583  70.813  1.00  0.00    -0.472 C  
HETATM   13  C   UNL     1     -12.727  12.955  71.161  1.00  0.00    -0.366 A  
HETATM   14  C   UNL     1     -13.295  13.236  72.411  1.00  0.00    -0.616 A  
HETATM   15  C   UNL     1     -13.650  14.544  72.750  1.00  0.00    -0.533 A  
HETATM   16  C   UNL     1     -13.442  15.584  71.847  1.00  0.00    -0.576 A  
HETATM   17  C   UNL     1     -12.877  15.318  70.600  1.00  0.00    -0.462 A  
HETATM   18  C   UNL     1     -12.521  14.005  70.262  1.00  0.00    -0.403 A  
HETATM   19  C   UNL     1     -11.921  13.725  68.944  1.00  0.00    -0.359 C  
HETATM   20  O   UNL     1     -11.752  14.624  68.130  1.00  0.00    -0.317 OA 
ENDBRANCH   8  10
ENDBRANCH   6   8
ENDBRANCH   3   6
TORSDOF 3
ENDMDL
MODEL       48
REMARK 921   NORMALIZED FREE ENERGY PREDICTED BY IDOCK:   -4.98 KCAL/MOL
REMARK 922        TOTAL FREE ENERGY PREDICTED BY IDOCK:   -6.34 KCAL/MOL
REMARK 923 INTER-LIGAND FREE ENERGY PREDICTED BY IDOCK:   -6.08 KCAL/MOL
REMARK 924 INTRA-LIGAND FREE ENERGY PREDICTED BY IDOCK:   -0.26 KCAL/MOL
REMARK 927      BINDING AFFINITY PREDICTED BY RF-SCORE:    0.00 PKD
ROOT
HETATM    1  N   UNL     1      -9.606  11.671  64.504  1.00  0.00    -0.401 N  
HETATM    2  H1  UNL     1      -9.415  10.727  64.841  1.00  0.00     0.000 HD 
HETATM    3  C   UNL     1     -10.468  12.513  65.123  1.00  0.00    -0.293 C  
HETATM    4  H2  UNL     1      -9.126  11.996  63.664  1.00  0.00     0.000 HD 
HETATM    5  O   UNL     1     -10.698  13.646  64.719  1.00  0.00    -0.363 OA 
ENDROOT
BRANCH   3   6
HETATM    6  N   UNL     1     -11.062  11.988  66.245  1.00  0.00    -0.303 N  
HETATM    7  H   UNL     1     -11.925  11.454  66.150  1.00  0.00     0.000 HD 
BRANCH   6   8
HETATM    8  N   UNL     1     -10.519  12.168  67.484  1.00  0.00    -0.207 NA 
HETATM    9  H   UNL     1      -9.698  11.629  67.761  1.00  0.00     0.000 HD 
BRANCH   8  10
HETATM   10  C   UNL     1     -11.042  13.020  68.312  1.00  0.00    -0.263 C  
HETATM   11  C   UNL     1     -11.039  14.506  68.213  1.00  0.00    -0.275 C  
HETATM   12  C   UNL     1     -11.653  15.266  69.127  1.00  0.00    -0.349 C  
HETATM   13  C   UNL     1     -12.360  14.705  70.276  1.00  0.00    -0.406 A  
HETATM   14  C   UNL     1     -13.000  15.553  71.189  1.00  0.00    -0.560 A  
HETATM   15  C   UNL     1     -13.675  15.026  72.294  1.00  0.00    -0.574 A  
HETATM   16  C   UNL     1     -13.717  13.648  72.498  1.00  0.00    -0.663 A  
HETATM   17  C   UNL     1     -13.084  12.794  71.596  1.00  0.00    -0.428 A  
HETATM   18  C   UNL     1     -12.410  13.325  70.489  1.00  0.00    -0.389 A  
HETATM   19  C   UNL     1     -11.743  12.419  69.534  1.00  0.00    -0.322 C  
HETATM   20  O   UNL     1     -11.752  11.207  69.709  1.00  0.00    -0.281 OA 
ENDBRANCH   8  10
ENDBRANCH   6   8
ENDBRANCH   3   6
TORSDOF 3
ENDMDL
MODEL       49
REMARK 921   NORMALIZED FREE ENERGY PREDICTED BY IDOCK:   -4.98 KCAL/MOL
REMARK 922        TOTAL FREE ENERGY PREDICTED BY IDOCK:   -6.33 KCAL/MOL
REMARK 923 INTER-LIGAND FREE ENERGY PREDICTED BY IDOCK:   -5.95 KCAL/MOL
REMARK 924 INTRA-LIGAND FREE ENERGY PREDICTED BY IDOCK:   -0.38 KCAL/MOL
REMARK 927      BINDING AFFINITY PREDICTED BY RF-SCORE:    0.00 PKD
ROOT
HETATM    1  N   UNL     1     -13.275  15.943  70.835  1.00  0.00    -0.640 N  
HETATM    2  H1  UNL     1     -13.389  16.905  71.156  1.00  0.00     0.000 HD 
HETATM    3  C   UNL     1     -12.260  15.553  70.027  1.00  0.00    -0.355 C  
HETATM    4  H2  UNL     1     -13.954  15.244  71.137  1.00  0.00     0.000 HD 
HETATM    5  O   UNL     1     -12.122  14.398  69.642  1.00  0.00    -0.311 OA 
ENDROOT
BRANCH   3   6
HETATM    6  N   UNL     1     -11.397  16.562  69.677  1.00  0.00    -0.334 N  
HETATM    7  H   UNL     1     -10.951  17.114  70.409  1.00  0.00     0.000 HD 
BRANCH   6   8
HETATM    8  N   UNL     1     -11.124  16.839  68.369  1.00  0.00    -0.330 NA 
HETATM    9  H   UNL     1     -11.543  16.272  67.632  1.00  0.00     0.000 HD 
BRANCH   8  10
HETATM   10  C   UNL     1     -10.334  17.822  68.058  1.00  0.00    -0.393 C  
HETATM   11  C   UNL     1     -10.664  19.040  67.268  1.00  0.00    -0.556 C  
HETATM   12  C   UNL     1      -9.754  19.998  67.052  1.00  0.00    -0.555 C  
HETATM   13  C   UNL     1      -8.389  19.921  67.565  1.00  0.00    -0.366 A  
HETATM   14  C   UNL     1      -7.488  20.966  67.322  1.00  0.00    -0.345 A  
HETATM   15  C   UNL     1      -6.178  20.900  67.805  1.00  0.00    -0.391 A  
HETATM   16  C   UNL     1      -5.755  19.790  68.535  1.00  0.00    -0.246 A  
HETATM   17  C   UNL     1      -6.643  18.745  68.785  1.00  0.00    -0.282 A  
HETATM   18  C   UNL     1      -7.956  18.815  68.300  1.00  0.00    -0.346 A  
HETATM   19  C   UNL     1      -8.895  17.708  68.567  1.00  0.00    -0.285 C  
HETATM   20  O   UNL     1      -8.534  16.717  69.188  1.00  0.00    -0.216 OA 
ENDBRANCH   8  10
ENDBRANCH   6   8
ENDBRANCH   3   6
TORSDOF 3
ENDMDL
MODEL       50
REMARK 921   NORMALIZED FREE ENERGY PREDICTED BY IDOCK:   -4.96 KCAL/MOL
REMARK 922        TOTAL FREE ENERGY PREDICTED BY IDOCK:   -6.31 KCAL/MOL
REMARK 923 INTER-LIGAND FREE ENERGY PREDICTED BY IDOCK:   -5.69 KCAL/MOL
REMARK 924 INTRA-LIGAND FREE ENERGY PREDICTED BY IDOCK:   -0.62 KCAL/MOL
REMARK 927      BINDING AFFINITY PREDICTED BY RF-SCORE:    0.00 PKD
ROOT
HETATM    1  N   UNL     1      -9.652   7.855  67.593  1.00  0.00    -0.147 N  
HETATM    2  H1  UNL     1      -9.358   8.528  68.302  1.00  0.00     0.000 HD 
HETATM    3  C   UNL     1     -10.713   7.029  67.758  1.00  0.00    -0.231 C  
HETATM    4  H2  UNL     1      -9.124   7.803  66.721  1.00  0.00     0.000 HD 
HETATM    5  O   UNL     1     -11.066   6.221  66.908  1.00  0.00    -0.361 OA 
ENDROOT
BRANCH   3   6
HETATM    6  N   UNL     1     -11.360   7.175  68.960  1.00  0.00    -0.472 N  
HETATM    7  H   UNL     1     -12.260   6.717  69.102  1.00  0.00     0.000 HD 
BRANCH   6   8
HETATM    8  N   UNL     1     -10.823   7.921  69.969  1.00  0.00    -0.250 NA 
HETATM    9  H   UNL     1      -9.891   7.701  70.321  1.00  0.00     0.000 HD 
BRANCH   8  10
HETATM   10  C   UNL     1     -11.492   8.908  70.483  1.00  0.00    -0.200 C  
HETATM   11  C   UNL     1     -12.444   8.866  71.627  1.00  0.00    -0.403 C  
HETATM   12  C   UNL     1     -13.040   9.975  72.080  1.00  0.00    -0.541 C  
HETATM   13  C   UNL     1     -12.806  11.292  71.494  1.00  0.00    -0.519 A  
HETATM   14  C   UNL     1     -13.445  12.421  72.025  1.00  0.00    -0.460 A  
HETATM   15  C   UNL     1     -13.231  13.684  71.468  1.00  0.00    -0.409 A  
HETATM   16  C   UNL     1     -12.379  13.835  70.375  1.00  0.00    -0.423 A  
HETATM   17  C   UNL     1     -11.736  12.720  69.838  1.00  0.00    -0.321 A  
HETATM   18  C   UNL     1     -11.952  11.454  70.400  1.00  0.00    -0.465 A  
HETATM   19  C   UNL     1     -11.269  10.276  69.832  1.00  0.00    -0.299 C  
HETATM   20  O   UNL     1     -10.533  10.387  68.859  1.00  0.00    -0.187 OA 
ENDBRANCH   8  10
ENDBRANCH   6   8
ENDBRANCH   3   6
TORSDOF 3
ENDMDL
MODEL       51
REMARK 921   NORMALIZED FREE ENERGY PREDICTED BY IDOCK:   -4.92 KCAL/MOL
REMARK 922        TOTAL FREE ENERGY PREDICTED BY IDOCK:   -6.26 KCAL/MOL
REMARK 923 INTER-LIGAND FREE ENERGY PREDICTED BY IDOCK:   -5.67 KCAL/MOL
REMARK 924 INTRA-LIGAND FREE ENERGY PREDICTED BY IDOCK:   -0.59 KCAL/MOL
REMARK 927      BINDING AFFINITY PREDICTED BY RF-SCORE:    0.00 PKD
ROOT
HETATM    1  N   UNL     1     -12.362  13.679  68.610  1.00  0.00    -0.324 N  
HETATM    2  H1  UNL     1     -11.959  14.294  67.902  1.00  0.00     0.000 HD 
HETATM    3  C   UNL     1     -11.916  13.637  69.889  1.00  0.00    -0.348 C  
HETATM    4  H2  UNL     1     -13.134  13.068  68.343  1.00  0.00     0.000 HD 
HETATM    5  O   UNL     1     -12.400  12.899  70.738  1.00  0.00    -0.368 OA 
ENDROOT
BRANCH   3   6
HETATM    6  N   UNL     1     -10.878  14.495  70.153  1.00  0.00    -0.473 N  
HETATM    7  H   UNL     1     -10.931  15.109  70.966  1.00  0.00     0.000 HD 
BRANCH   6   8
HETATM    8  N   UNL     1      -9.776  14.544  69.349  1.00  0.00    -0.424 NA 
HETATM    9  H   UNL     1      -9.389  13.681  68.967  1.00  0.00     0.000 HD 
BRANCH   8  10
HETATM   10  C   UNL     1      -9.219  15.682  69.067  1.00  0.00    -0.243 C  
HETATM   11  C   UNL     1      -7.800  16.080  69.282  1.00  0.00    -0.222 C  
HETATM   12  C   UNL     1      -7.348  17.283  68.908  1.00  0.00    -0.243 C  
HETATM   13  C   UNL     1      -8.201  18.283  68.271  1.00  0.00    -0.312 A  
HETATM   14  C   UNL     1      -7.665  19.519  67.884  1.00  0.00    -0.324 A  
HETATM   15  C   UNL     1      -8.474  20.484  67.278  1.00  0.00    -0.365 A  
HETATM   16  C   UNL     1      -9.826  20.227  67.053  1.00  0.00    -0.607 A  
HETATM   17  C   UNL     1     -10.370  19.001  67.433  1.00  0.00    -0.504 A  
HETATM   18  C   UNL     1      -9.557  18.034  68.039  1.00  0.00    -0.295 A  
HETATM   19  C   UNL     1     -10.134  16.737  68.439  1.00  0.00    -0.285 C  
HETATM   20  O   UNL     1     -11.324  16.502  68.268  1.00  0.00    -0.331 OA 
ENDBRANCH   8  10
ENDBRANCH   6   8
ENDBRANCH   3   6
TORSDOF 3
ENDMDL
MODEL       52
REMARK 921   NORMALIZED FREE ENERGY PREDICTED BY IDOCK:   -4.92 KCAL/MOL
REMARK 922        TOTAL FREE ENERGY PREDICTED BY IDOCK:   -6.26 KCAL/MOL
REMARK 923 INTER-LIGAND FREE ENERGY PREDICTED BY IDOCK:   -5.95 KCAL/MOL
REMARK 924 INTRA-LIGAND FREE ENERGY PREDICTED BY IDOCK:   -0.32 KCAL/MOL
REMARK 927      BINDING AFFINITY PREDICTED BY RF-SCORE:    0.00 PKD
ROOT
HETATM    1  N   UNL     1     -11.791  15.548  63.993  1.00  0.00    -0.954 N  
HETATM    2  H1  UNL     1     -11.497  16.336  64.571  1.00  0.00     0.000 HD 
HETATM    3  C   UNL     1     -12.151  14.349  64.511  1.00  0.00    -0.481 C  
HETATM    4  H2  UNL     1     -11.815  15.669  62.980  1.00  0.00     0.000 HD 
HETATM    5  O   UNL     1     -12.504  13.403  63.817  1.00  0.00    -0.682 OA 
ENDROOT
BRANCH   3   6
HETATM    6  N   UNL     1     -12.089  14.285  65.881  1.00  0.00    -0.409 N  
HETATM    7  H   UNL     1     -12.947  14.372  66.425  1.00  0.00     0.000 HD 
BRANCH   6   8
HETATM    8  N   UNL     1     -10.902  14.107  66.529  1.00  0.00    -0.295 NA 
HETATM    9  H   UNL     1     -10.642  13.180  66.868  1.00  0.00     0.000 HD 
BRANCH   8  10
HETATM   10  C   UNL     1     -10.100  15.111  66.719  1.00  0.00    -0.258 C  
HETATM   11  C   UNL     1      -8.811  15.391  66.028  1.00  0.00    -0.097 C  
HETATM   12  C   UNL     1      -8.099  16.491  66.298  1.00  0.00    -0.341 C  
HETATM   13  C   UNL     1      -8.526  17.487  67.278  1.00  0.00    -0.224 A  
HETATM   14  C   UNL     1      -7.747  18.630  67.504  1.00  0.00    -0.240 A  
HETATM   15  C   UNL     1      -8.145  19.585  68.442  1.00  0.00    -0.377 A  
HETATM   16  C   UNL     1      -9.323  19.410  69.166  1.00  0.00    -0.271 A  
HETATM   17  C   UNL     1     -10.108  18.278  68.950  1.00  0.00    -0.358 A  
HETATM   18  C   UNL     1      -9.707  17.322  68.007  1.00  0.00    -0.277 A  
HETATM   19  C   UNL     1     -10.539  16.125  67.779  1.00  0.00    -0.309 C  
HETATM   20  O   UNL     1     -11.567  15.945  68.421  1.00  0.00    -0.371 OA 
ENDBRANCH   8  10
ENDBRANCH   6   8
ENDBRANCH   3   6
TORSDOF 3
ENDMDL
MODEL       53
REMARK 921   NORMALIZED FREE ENERGY PREDICTED BY IDOCK:   -4.91 KCAL/MOL
REMARK 922        TOTAL FREE ENERGY PREDICTED BY IDOCK:   -6.25 KCAL/MOL
REMARK 923 INTER-LIGAND FREE ENERGY PREDICTED BY IDOCK:   -6.22 KCAL/MOL
REMARK 924 INTRA-LIGAND FREE ENERGY PREDICTED BY IDOCK:   -0.03 KCAL/MOL
REMARK 927      BINDING AFFINITY PREDICTED BY RF-SCORE:    0.00 PKD
ROOT
HETATM    1  N   UNL     1     -11.001  11.668  62.982  1.00  0.00    -0.731 N  
HETATM    2  H1  UNL     1     -10.345  11.006  63.397  1.00  0.00     0.000 HD 
HETATM    3  C   UNL     1     -11.583  12.667  63.689  1.00  0.00    -0.503 C  
HETATM    4  H2  UNL     1     -11.228  11.575  61.992  1.00  0.00     0.000 HD 
HETATM    5  O   UNL     1     -12.371  13.463  63.190  1.00  0.00    -0.668 OA 
ENDROOT
BRANCH   3   6
HETATM    6  N   UNL     1     -11.215  12.714  65.010  1.00  0.00    -0.289 N  
HETATM    7  H   UNL     1     -10.438  13.312  65.292  1.00  0.00     0.000 HD 
BRANCH   6   8
HETATM    8  N   UNL     1     -11.867  11.975  65.954  1.00  0.00    -0.510 NA 
HETATM    9  H   UNL     1     -12.348  11.117  65.684  1.00  0.00     0.000 HD 
BRANCH   8  10
HETATM   10  C   UNL     1     -11.879  12.358  67.195  1.00  0.00    -0.291 C  
HETATM   11  C   UNL     1     -11.861  11.502  68.413  1.00  0.00    -0.353 C  
HETATM   12  C   UNL     1     -11.839  12.036  69.640  1.00  0.00    -0.401 C  
HETATM   13  C   UNL     1     -11.832  13.478  69.874  1.00  0.00    -0.386 A  
HETATM   14  C   UNL     1     -11.789  13.977  71.183  1.00  0.00    -0.134 A  
HETATM   15  C   UNL     1     -11.787  15.354  71.417  1.00  0.00    -0.443 A  
HETATM   16  C   UNL     1     -11.829  16.248  70.348  1.00  0.00    -0.018 A  
HETATM   17  C   UNL     1     -11.871  15.764  69.041  1.00  0.00    -0.367 A  
HETATM   18  C   UNL     1     -11.872  14.382  68.809  1.00  0.00    -0.360 A  
HETATM   19  C   UNL     1     -11.914  13.871  67.425  1.00  0.00    -0.401 C  
HETATM   20  O   UNL     1     -11.973  14.642  66.475  1.00  0.00    -0.362 OA 
ENDBRANCH   8  10
ENDBRANCH   6   8
ENDBRANCH   3   6
TORSDOF 3
ENDMDL
MODEL       54
REMARK 921   NORMALIZED FREE ENERGY PREDICTED BY IDOCK:   -4.91 KCAL/MOL
REMARK 922        TOTAL FREE ENERGY PREDICTED BY IDOCK:   -6.25 KCAL/MOL
REMARK 923 INTER-LIGAND FREE ENERGY PREDICTED BY IDOCK:   -5.56 KCAL/MOL
REMARK 924 INTRA-LIGAND FREE ENERGY PREDICTED BY IDOCK:   -0.69 KCAL/MOL
REMARK 927      BINDING AFFINITY PREDICTED BY RF-SCORE:    0.00 PKD
ROOT
HETATM    1  N   UNL     1     -11.525  10.020  70.986  1.00  0.00    -0.374 N  
HETATM    2  H1  UNL     1     -11.602  10.857  70.407  1.00  0.00     0.000 HD 
HETATM    3  C   UNL     1     -11.309   8.786  70.471  1.00  0.00    -0.227 C  
HETATM    4  H2  UNL     1     -11.613  10.117  71.998  1.00  0.00     0.000 HD 
HETATM    5  O   UNL     1     -11.216   7.781  71.166  1.00  0.00    -0.255 OA 
ENDROOT
BRANCH   3   6
HETATM    6  N   UNL     1     -11.201   8.756  69.103  1.00  0.00    -0.413 N  
HETATM    7  H   UNL     1     -11.913   8.274  68.555  1.00  0.00     0.000 HD 
BRANCH   6   8
HETATM    8  N   UNL     1     -10.159   9.360  68.461  1.00  0.00    -0.180 NA 
HETATM    9  H   UNL     1      -9.217   9.292  68.848  1.00  0.00     0.000 HD 
BRANCH   8  10
HETATM   10  C   UNL     1     -10.359  10.021  67.361  1.00  0.00    -0.238 C  
HETATM   11  C   UNL     1      -9.902   9.666  65.989  1.00  0.00    -0.345 C  
HETATM   12  C   UNL     1     -10.213  10.426  64.932  1.00  0.00    -0.330 C  
HETATM   13  C   UNL     1     -11.012  11.644  65.043  1.00  0.00    -0.334 A  
HETATM   14  C   UNL     1     -11.322  12.387  63.896  1.00  0.00    -0.502 A  
HETATM   15  C   UNL     1     -12.081  13.556  63.993  1.00  0.00    -0.494 A  
HETATM   16  C   UNL     1     -12.538  13.996  65.234  1.00  0.00    -0.495 A  
HETATM   17  C   UNL     1     -12.237  13.264  66.382  1.00  0.00    -0.419 A  
HETATM   18  C   UNL     1     -11.477  12.092  66.283  1.00  0.00    -0.408 A  
HETATM   19  C   UNL     1     -11.161  11.318  67.498  1.00  0.00    -0.291 C  
HETATM   20  O   UNL     1     -11.537  11.700  68.599  1.00  0.00    -0.259 OA 
ENDBRANCH   8  10
ENDBRANCH   6   8
ENDBRANCH   3   6
TORSDOF 3
ENDMDL
MODEL       55
REMARK 921   NORMALIZED FREE ENERGY PREDICTED BY IDOCK:   -4.89 KCAL/MOL
REMARK 922        TOTAL FREE ENERGY PREDICTED BY IDOCK:   -6.23 KCAL/MOL
REMARK 923 INTER-LIGAND FREE ENERGY PREDICTED BY IDOCK:   -6.00 KCAL/MOL
REMARK 924 INTRA-LIGAND FREE ENERGY PREDICTED BY IDOCK:   -0.23 KCAL/MOL
REMARK 927      BINDING AFFINITY PREDICTED BY RF-SCORE:    0.00 PKD
ROOT
HETATM    1  N   UNL     1     -10.820  16.586  67.512  1.00  0.00    -0.284 N  
HETATM    2  H1  UNL     1     -11.111  16.219  66.605  1.00  0.00     0.000 HD 
HETATM    3  C   UNL     1     -11.261  16.076  68.688  1.00  0.00    -0.366 C  
HETATM    4  H2  UNL     1     -10.169  17.371  67.535  1.00  0.00     0.000 HD 
HETATM    5  O   UNL     1     -10.913  16.516  69.776  1.00  0.00    -0.344 OA 
ENDROOT
BRANCH   3   6
HETATM    6  N   UNL     1     -12.131  15.022  68.555  1.00  0.00    -0.584 N  
HETATM    7  H   UNL     1     -12.585  14.641  69.385  1.00  0.00     0.000 HD 
BRANCH   6   8
HETATM    8  N   UNL     1     -12.399  14.474  67.334  1.00  0.00    -0.575 NA 
HETATM    9  H   UNL     1     -13.073  14.923  66.714  1.00  0.00     0.000 HD 
BRANCH   8  10
HETATM   10  C   UNL     1     -11.803  13.384  66.959  1.00  0.00    -0.394 C  
HETATM   11  C   UNL     1     -11.586  12.143  67.753  1.00  0.00    -0.410 C  
HETATM   12  C   UNL     1     -10.983  11.072  67.224  1.00  0.00    -0.356 C  
HETATM   13  C   UNL     1     -10.496  11.040  65.847  1.00  0.00    -0.300 A  
HETATM   14  C   UNL     1      -9.890   9.882  65.344  1.00  0.00    -0.384 A  
HETATM   15  C   UNL     1      -9.417   9.843  64.029  1.00  0.00    -0.231 A  
HETATM   16  C   UNL     1      -9.544  10.959  63.204  1.00  0.00    -0.384 A  
HETATM   17  C   UNL     1     -10.146  12.118  63.694  1.00  0.00    -0.410 A  
HETATM   18  C   UNL     1     -10.621  12.153  65.012  1.00  0.00    -0.330 A  
HETATM   19  C   UNL     1     -11.260  13.379  65.527  1.00  0.00    -0.288 C  
HETATM   20  O   UNL     1     -11.361  14.376  64.823  1.00  0.00    -0.361 OA 
ENDBRANCH   8  10
ENDBRANCH   6   8
ENDBRANCH   3   6
TORSDOF 3
ENDMDL
MODEL       56
REMARK 921   NORMALIZED FREE ENERGY PREDICTED BY IDOCK:   -4.89 KCAL/MOL
REMARK 922        TOTAL FREE ENERGY PREDICTED BY IDOCK:   -6.22 KCAL/MOL
REMARK 923 INTER-LIGAND FREE ENERGY PREDICTED BY IDOCK:   -5.62 KCAL/MOL
REMARK 924 INTRA-LIGAND FREE ENERGY PREDICTED BY IDOCK:   -0.60 KCAL/MOL
REMARK 927      BINDING AFFINITY PREDICTED BY RF-SCORE:    0.00 PKD
ROOT
HETATM    1  N   UNL     1     -13.230   7.600  71.519  1.00  0.00    -0.415 N  
HETATM    2  H1  UNL     1     -13.623   8.305  70.895  1.00  0.00     0.000 HD 
HETATM    3  C   UNL     1     -12.171   6.826  71.180  1.00  0.00    -0.360 C  
HETATM    4  H2  UNL     1     -13.651   7.473  72.439  1.00  0.00     0.000 HD 
HETATM    5  O   UNL     1     -11.698   5.980  71.929  1.00  0.00    -0.295 OA 
ENDROOT
BRANCH   3   6
HETATM    6  N   UNL     1     -11.670   7.072  69.926  1.00  0.00    -0.587 N  
HETATM    7  H   UNL     1     -12.096   6.615  69.120  1.00  0.00     0.000 HD 
BRANCH   6   8
HETATM    8  N   UNL     1     -10.614   7.915  69.736  1.00  0.00    -0.240 NA 
HETATM    9  H   UNL     1      -9.691   7.659  70.087  1.00  0.00     0.000 HD 
BRANCH   8  10
HETATM   10  C   UNL     1     -10.778   9.041  69.111  1.00  0.00    -0.157 C  
HETATM   11  C   UNL     1     -10.560   9.321  67.665  1.00  0.00    -0.324 C  
HETATM   12  C   UNL     1     -10.805  10.529  67.143  1.00  0.00    -0.319 C  
HETATM   13  C   UNL     1     -11.295  11.649  67.943  1.00  0.00    -0.369 A  
HETATM   14  C   UNL     1     -11.551  12.886  67.335  1.00  0.00    -0.414 A  
HETATM   15  C   UNL     1     -12.015  13.965  68.092  1.00  0.00    -0.385 A  
HETATM   16  C   UNL     1     -12.229  13.821  69.462  1.00  0.00    -0.344 A  
HETATM   17  C   UNL     1     -11.978  12.595  70.078  1.00  0.00    -0.377 A  
HETATM   18  C   UNL     1     -11.513  11.515  69.316  1.00  0.00    -0.370 A  
HETATM   19  C   UNL     1     -11.251  10.218  69.969  1.00  0.00    -0.311 C  
HETATM   20  O   UNL     1     -11.413  10.080  71.175  1.00  0.00    -0.357 OA 
ENDBRANCH   8  10
ENDBRANCH   6   8
ENDBRANCH   3   6
TORSDOF 3
ENDMDL
MODEL       57
REMARK 921   NORMALIZED FREE ENERGY PREDICTED BY IDOCK:   -4.88 KCAL/MOL
REMARK 922        TOTAL FREE ENERGY PREDICTED BY IDOCK:   -6.22 KCAL/MOL
REMARK 923 INTER-LIGAND FREE ENERGY PREDICTED BY IDOCK:   -5.53 KCAL/MOL
REMARK 924 INTRA-LIGAND FREE ENERGY PREDICTED BY IDOCK:   -0.69 KCAL/MOL
REMARK 927      BINDING AFFINITY PREDICTED BY RF-SCORE:    0.00 PKD
ROOT
HETATM    1  N   UNL     1     -10.042  13.310  67.411  1.00  0.00    -0.231 N  
HETATM    2  H1  UNL     1      -9.787  12.367  67.707  1.00  0.00     0.000 HD 
HETATM    3  C   UNL     1     -11.199  13.910  67.783  1.00  0.00    -0.293 C  
HETATM    4  H2  UNL     1      -9.399  13.823  66.808  1.00  0.00     0.000 HD 
HETATM    5  O   UNL     1     -11.506  15.041  67.427  1.00  0.00    -0.341 OA 
ENDROOT
BRANCH   3   6
HETATM    6  N   UNL     1     -11.997  13.142  68.594  1.00  0.00    -0.323 N  
HETATM    7  H   UNL     1     -12.881  12.786  68.233  1.00  0.00     0.000 HD 
BRANCH   6   8
HETATM    8  N   UNL     1     -11.630  12.848  69.875  1.00  0.00    -0.511 NA 
HETATM    9  H   UNL     1     -11.117  13.536  70.427  1.00  0.00     0.000 HD 
BRANCH   8  10
HETATM   10  C   UNL     1     -11.930  11.697  70.396  1.00  0.00    -0.358 C  
HETATM   11  C   UNL     1     -12.979  11.401  71.410  1.00  0.00    -0.468 C  
HETATM   12  C   UNL     1     -13.206  10.152  71.835  1.00  0.00    -0.557 C  
HETATM   13  C   UNL     1     -12.452   9.002  71.343  1.00  0.00    -0.378 A  
HETATM   14  C   UNL     1     -12.750   7.715  71.812  1.00  0.00    -0.356 A  
HETATM   15  C   UNL     1     -12.031   6.609  71.352  1.00  0.00    -0.405 A  
HETATM   16  C   UNL     1     -11.008   6.775  70.420  1.00  0.00    -0.330 A  
HETATM   17  C   UNL     1     -10.702   8.050  69.946  1.00  0.00    -0.242 A  
HETATM   18  C   UNL     1     -11.426   9.157  70.408  1.00  0.00    -0.228 A  
HETATM   19  C   UNL     1     -11.103  10.506  69.903  1.00  0.00    -0.307 C  
HETATM   20  O   UNL     1     -10.194  10.673  69.101  1.00  0.00    -0.204 OA 
ENDBRANCH   8  10
ENDBRANCH   6   8
ENDBRANCH   3   6
TORSDOF 3
ENDMDL
MODEL       58
REMARK 921   NORMALIZED FREE ENERGY PREDICTED BY IDOCK:   -4.87 KCAL/MOL
REMARK 922        TOTAL FREE ENERGY PREDICTED BY IDOCK:   -6.21 KCAL/MOL
REMARK 923 INTER-LIGAND FREE ENERGY PREDICTED BY IDOCK:   -5.79 KCAL/MOL
REMARK 924 INTRA-LIGAND FREE ENERGY PREDICTED BY IDOCK:   -0.41 KCAL/MOL
REMARK 927      BINDING AFFINITY PREDICTED BY RF-SCORE:    0.00 PKD
ROOT
HETATM    1  N   UNL     1     -11.102  16.557  70.688  1.00  0.00    -0.372 N  
HETATM    2  H1  UNL     1     -10.880  16.232  69.746  1.00  0.00     0.000 HD 
HETATM    3  C   UNL     1     -11.635  15.751  71.638  1.00  0.00    -0.457 C  
HETATM    4  H2  UNL     1     -10.914  17.531  70.925  1.00  0.00     0.000 HD 
HETATM    5  O   UNL     1     -11.901  16.141  72.768  1.00  0.00    -0.486 OA 
ENDROOT
BRANCH   3   6
HETATM    6  N   UNL     1     -11.849  14.459  71.226  1.00  0.00    -0.469 N  
HETATM    7  H   UNL     1     -11.406  13.693  71.732  1.00  0.00     0.000 HD 
BRANCH   6   8
HETATM    8  N   UNL     1     -12.644  14.180  70.153  1.00  0.00    -0.392 NA 
HETATM    9  H   UNL     1     -13.632  14.435  70.173  1.00  0.00     0.000 HD 
BRANCH   8  10
HETATM   10  C   UNL     1     -12.151  13.590  69.106  1.00  0.00    -0.288 C  
HETATM   11  C   UNL     1     -11.887  14.183  67.766  1.00  0.00    -0.414 C  
HETATM   12  C   UNL     1     -11.337  13.464  66.781  1.00  0.00    -0.353 C  
HETATM   13  C   UNL     1     -10.961  12.062  66.943  1.00  0.00    -0.328 A  
HETATM   14  C   UNL     1     -10.370  11.366  65.879  1.00  0.00    -0.299 A  
HETATM   15  C   UNL     1     -10.011  10.024  66.023  1.00  0.00    -0.334 A  
HETATM   16  C   UNL     1     -10.238   9.361  67.228  1.00  0.00    -0.308 A  
HETATM   17  C   UNL     1     -10.824  10.043  68.294  1.00  0.00    -0.286 A  
HETATM   18  C   UNL     1     -11.182  11.390  68.147  1.00  0.00    -0.343 A  
HETATM   19  C   UNL     1     -11.800  12.110  69.277  1.00  0.00    -0.313 C  
HETATM   20  O   UNL     1     -12.026  11.538  70.336  1.00  0.00    -0.349 OA 
ENDBRANCH   8  10
ENDBRANCH   6   8
ENDBRANCH   3   6
TORSDOF 3
ENDMDL
MODEL       59
REMARK 921   NORMALIZED FREE ENERGY PREDICTED BY IDOCK:   -4.84 KCAL/MOL
REMARK 922        TOTAL FREE ENERGY PREDICTED BY IDOCK:   -6.17 KCAL/MOL
REMARK 923 INTER-LIGAND FREE ENERGY PREDICTED BY IDOCK:   -5.70 KCAL/MOL
REMARK 924 INTRA-LIGAND FREE ENERGY PREDICTED BY IDOCK:   -0.48 KCAL/MOL
REMARK 927      BINDING AFFINITY PREDICTED BY RF-SCORE:    0.00 PKD
ROOT
HETATM    1  N   UNL     1     -10.795  19.353  67.530  1.00  0.00    -0.463 N  
HETATM    2  H1  UNL     1     -10.654  19.129  68.516  1.00  0.00     0.000 HD 
HETATM    3  C   UNL     1     -10.525  18.479  66.531  1.00  0.00    -0.398 C  
HETATM    4  H2  UNL     1     -11.155  20.276  67.286  1.00  0.00     0.000 HD 
HETATM    5  O   UNL     1     -10.694  18.748  65.347  1.00  0.00    -0.556 OA 
ENDROOT
BRANCH   3   6
HETATM    6  N   UNL     1     -10.048  17.264  66.957  1.00  0.00    -0.294 N  
HETATM    7  H   UNL     1      -9.042  17.102  66.978  1.00  0.00     0.000 HD 
BRANCH   6   8
HETATM    8  N   UNL     1     -10.895  16.270  67.354  1.00  0.00    -0.286 NA 
HETATM    9  H   UNL     1     -11.751  16.504  67.857  1.00  0.00     0.000 HD 
BRANCH   8  10
HETATM   10  C   UNL     1     -10.616  15.028  67.095  1.00  0.00    -0.295 C  
HETATM   11  C   UNL     1     -10.139  13.985  68.044  1.00  0.00    -0.239 C  
HETATM   12  C   UNL     1      -9.925  12.725  67.646  1.00  0.00    -0.217 C  
HETATM   13  C   UNL     1     -10.138  12.286  66.269  1.00  0.00    -0.253 A  
HETATM   14  C   UNL     1      -9.914  10.948  65.917  1.00  0.00    -0.294 A  
HETATM   15  C   UNL     1     -10.111  10.519  64.602  1.00  0.00    -0.408 A  
HETATM   16  C   UNL     1     -10.532  11.419  63.625  1.00  0.00    -0.472 A  
HETATM   17  C   UNL     1     -10.759  12.753  63.963  1.00  0.00    -0.457 A  
HETATM   18  C   UNL     1     -10.562  13.180  65.283  1.00  0.00    -0.325 A  
HETATM   19  C   UNL     1     -10.804  14.592  65.640  1.00  0.00    -0.326 C  
HETATM   20  O   UNL     1     -11.154  15.401  64.790  1.00  0.00    -0.416 OA 
ENDBRANCH   8  10
ENDBRANCH   6   8
ENDBRANCH   3   6
TORSDOF 3
ENDMDL
MODEL       60
REMARK 921   NORMALIZED FREE ENERGY PREDICTED BY IDOCK:   -4.84 KCAL/MOL
REMARK 922        TOTAL FREE ENERGY PREDICTED BY IDOCK:   -6.17 KCAL/MOL
REMARK 923 INTER-LIGAND FREE ENERGY PREDICTED BY IDOCK:   -5.71 KCAL/MOL
REMARK 924 INTRA-LIGAND FREE ENERGY PREDICTED BY IDOCK:   -0.46 KCAL/MOL
REMARK 927      BINDING AFFINITY PREDICTED BY RF-SCORE:    0.00 PKD
ROOT
HETATM    1  N   UNL     1      -8.891  16.679  65.976  1.00  0.00    -0.270 N  
HETATM    2  H1  UNL     1      -8.613  17.308  66.731  1.00  0.00     0.000 HD 
HETATM    3  C   UNL     1      -9.643  15.571  66.182  1.00  0.00    -0.330 C  
HETATM    4  H2  UNL     1      -8.591  16.895  65.025  1.00  0.00     0.000 HD 
HETATM    5  O   UNL     1      -9.978  14.817  65.276  1.00  0.00    -0.361 OA 
ENDROOT
BRANCH   3   6
HETATM    6  N   UNL     1     -10.001  15.367  67.491  1.00  0.00    -0.225 N  
HETATM    7  H   UNL     1      -9.277  15.169  68.182  1.00  0.00     0.000 HD 
BRANCH   6   8
HETATM    8  N   UNL     1     -11.306  15.423  67.887  1.00  0.00    -0.334 NA 
HETATM    9  H   UNL     1     -11.963  16.020  67.384  1.00  0.00     0.000 HD 
BRANCH   8  10
HETATM   10  C   UNL     1     -11.715  14.721  68.900  1.00  0.00    -0.309 C  
HETATM   11  C   UNL     1     -12.292  15.219  70.179  1.00  0.00    -0.392 C  
HETATM   12  C   UNL     1     -12.710  14.375  71.130  1.00  0.00    -0.422 C  
HETATM   13  C   UNL     1     -12.632  12.924  70.988  1.00  0.00    -0.376 A  
HETATM   14  C   UNL     1     -13.104  12.092  72.012  1.00  0.00    -0.456 A  
HETATM   15  C   UNL     1     -13.030  10.702  71.888  1.00  0.00    -0.542 A  
HETATM   16  C   UNL     1     -12.483  10.128  70.741  1.00  0.00    -0.417 A  
HETATM   17  C   UNL     1     -12.010  10.946  69.715  1.00  0.00    -0.423 A  
HETATM   18  C   UNL     1     -12.087  12.339  69.842  1.00  0.00    -0.319 A  
HETATM   19  C   UNL     1     -11.589  13.202  68.754  1.00  0.00    -0.308 C  
HETATM   20  O   UNL     1     -11.086  12.716  67.749  1.00  0.00    -0.226 OA 
ENDBRANCH   8  10
ENDBRANCH   6   8
ENDBRANCH   3   6
TORSDOF 3
ENDMDL
MODEL       61
REMARK 921   NORMALIZED FREE ENERGY PREDICTED BY IDOCK:   -4.84 KCAL/MOL
REMARK 922        TOTAL FREE ENERGY PREDICTED BY IDOCK:   -6.17 KCAL/MOL
REMARK 923 INTER-LIGAND FREE ENERGY PREDICTED BY IDOCK:   -5.87 KCAL/MOL
REMARK 924 INTRA-LIGAND FREE ENERGY PREDICTED BY IDOCK:   -0.30 KCAL/MOL
REMARK 927      BINDING AFFINITY PREDICTED BY RF-SCORE:    0.00 PKD
ROOT
HETATM    1  N   UNL     1     -10.211  11.310  69.434  1.00  0.00    -0.435 N  
HETATM    2  H1  UNL     1      -9.385  11.905  69.502  1.00  0.00     0.000 HD 
HETATM    3  C   UNL     1     -11.383  11.736  68.904  1.00  0.00    -0.267 C  
HETATM    4  H2  UNL     1     -10.152  10.351  69.779  1.00  0.00     0.000 HD 
HETATM    5  O   UNL     1     -12.375  11.022  68.822  1.00  0.00    -0.533 OA 
ENDROOT
BRANCH   3   6
HETATM    6  N   UNL     1     -11.363  13.036  68.465  1.00  0.00    -0.267 N  
HETATM    7  H   UNL     1     -12.231  13.572  68.450  1.00  0.00     0.000 HD 
BRANCH   6   8
HETATM    8  N   UNL     1     -10.206  13.627  68.047  1.00  0.00    -0.242 NA 
HETATM    9  H   UNL     1      -9.314  13.155  68.197  1.00  0.00     0.000 HD 
BRANCH   8  10
HETATM   10  C   UNL     1     -10.234  14.785  67.461  1.00  0.00    -0.233 C  
HETATM   11  C   UNL     1     -10.377  15.066  66.006  1.00  0.00    -0.326 C  
HETATM   12  C   UNL     1     -10.428  16.319  65.539  1.00  0.00    -0.383 C  
HETATM   13  C   UNL     1     -10.346  17.489  66.410  1.00  0.00    -0.334 A  
HETATM   14  C   UNL     1     -10.424  18.778  65.864  1.00  0.00    -0.424 A  
HETATM   15  C   UNL     1     -10.342  19.903  66.688  1.00  0.00    -0.608 A  
HETATM   16  C   UNL     1     -10.181  19.755  68.064  1.00  0.00    -0.581 A  
HETATM   17  C   UNL     1     -10.102  18.479  68.620  1.00  0.00    -0.406 A  
HETATM   18  C   UNL     1     -10.186  17.352  67.791  1.00  0.00    -0.345 A  
HETATM   19  C   UNL     1     -10.105  16.002  68.381  1.00  0.00    -0.229 C  
HETATM   20  O   UNL     1      -9.942  15.854  69.586  1.00  0.00    -0.265 OA 
ENDBRANCH   8  10
ENDBRANCH   6   8
ENDBRANCH   3   6
TORSDOF 3
ENDMDL
MODEL       62
REMARK 921   NORMALIZED FREE ENERGY PREDICTED BY IDOCK:   -4.84 KCAL/MOL
REMARK 922        TOTAL FREE ENERGY PREDICTED BY IDOCK:   -6.17 KCAL/MOL
REMARK 923 INTER-LIGAND FREE ENERGY PREDICTED BY IDOCK:   -5.74 KCAL/MOL
REMARK 924 INTRA-LIGAND FREE ENERGY PREDICTED BY IDOCK:   -0.43 KCAL/MOL
REMARK 927      BINDING AFFINITY PREDICTED BY RF-SCORE:    0.00 PKD
ROOT
HETATM    1  N   UNL     1     -12.218  11.494  62.959  1.00  0.00    -0.941 N  
HETATM    2  H1  UNL     1     -11.795  10.646  63.339  1.00  0.00     0.000 HD 
HETATM    3  C   UNL     1     -12.133  12.698  63.575  1.00  0.00    -0.561 C  
HETATM    4  H2  UNL     1     -12.728  11.432  62.078  1.00  0.00     0.000 HD 
HETATM    5  O   UNL     1     -12.641  13.715  63.119  1.00  0.00    -0.792 OA 
ENDROOT
BRANCH   3   6
HETATM    6  N   UNL     1     -11.426  12.682  64.751  1.00  0.00    -0.310 N  
HETATM    7  H   UNL     1     -10.732  11.951  64.908  1.00  0.00     0.000 HD 
BRANCH   6   8
HETATM    8  N   UNL     1     -11.635  13.624  65.716  1.00  0.00    -0.324 NA 
HETATM    9  H   UNL     1     -12.446  13.550  66.331  1.00  0.00     0.000 HD 
BRANCH   8  10
HETATM   10  C   UNL     1     -10.806  14.614  65.857  1.00  0.00    -0.312 C  
HETATM   11  C   UNL     1     -11.016  16.038  65.479  1.00  0.00    -0.215 C  
HETATM   12  C   UNL     1     -10.083  16.968  65.717  1.00  0.00    -0.219 C  
HETATM   13  C   UNL     1      -8.807  16.660  66.356  1.00  0.00    -0.337 A  
HETATM   14  C   UNL     1      -7.877  17.681  66.596  1.00  0.00    -0.283 A  
HETATM   15  C   UNL     1      -6.651  17.395  67.203  1.00  0.00    -0.193 A  
HETATM   16  C   UNL     1      -6.340  16.088  67.574  1.00  0.00    -0.200 A  
HETATM   17  C   UNL     1      -7.256  15.064  67.341  1.00  0.00    -0.224 A  
HETATM   18  C   UNL     1      -8.485  15.353  66.734  1.00  0.00    -0.307 A  
HETATM   19  C   UNL     1      -9.455  14.268  66.490  1.00  0.00    -0.287 C  
HETATM   20  O   UNL     1      -9.189  13.112  66.791  1.00  0.00    -0.233 OA 
ENDBRANCH   8  10
ENDBRANCH   6   8
ENDBRANCH   3   6
TORSDOF 3
ENDMDL
MODEL       63
REMARK 921   NORMALIZED FREE ENERGY PREDICTED BY IDOCK:   -4.82 KCAL/MOL
REMARK 922        TOTAL FREE ENERGY PREDICTED BY IDOCK:   -6.15 KCAL/MOL
REMARK 923 INTER-LIGAND FREE ENERGY PREDICTED BY IDOCK:   -5.71 KCAL/MOL
REMARK 924 INTRA-LIGAND FREE ENERGY PREDICTED BY IDOCK:   -0.44 KCAL/MOL
REMARK 927      BINDING AFFINITY PREDICTED BY RF-SCORE:    0.00 PKD
ROOT
HETATM    1  N   UNL     1     -11.105   5.754  66.223  1.00  0.00    -0.755 N  
HETATM    2  H1  UNL     1     -12.079   5.964  66.000  1.00  0.00     0.000 HD 
HETATM    3  C   UNL     1     -10.345   6.547  67.017  1.00  0.00    -0.253 C  
HETATM    4  H2  UNL     1     -10.686   4.910  65.832  1.00  0.00     0.000 HD 
HETATM    5  O   UNL     1      -9.176   6.296  67.285  1.00  0.00    -0.118 OA 
ENDROOT
BRANCH   3   6
HETATM    6  N   UNL     1     -10.997   7.656  67.497  1.00  0.00    -0.534 N  
HETATM    7  H   UNL     1     -12.014   7.646  67.566  1.00  0.00     0.000 HD 
BRANCH   6   8
HETATM    8  N   UNL     1     -10.310   8.770  67.883  1.00  0.00    -0.219 NA 
HETATM    9  H   UNL     1      -9.424   8.672  68.380  1.00  0.00     0.000 HD 
BRANCH   8  10
HETATM   10  C   UNL     1     -10.778   9.953  67.624  1.00  0.00    -0.281 C  
HETATM   11  C   UNL     1     -11.471  10.884  68.557  1.00  0.00    -0.380 C  
HETATM   12  C   UNL     1     -11.872  12.098  68.161  1.00  0.00    -0.362 C  
HETATM   13  C   UNL     1     -11.665  12.593  66.803  1.00  0.00    -0.460 A  
HETATM   14  C   UNL     1     -12.090  13.882  66.454  1.00  0.00    -0.489 A  
HETATM   15  C   UNL     1     -11.901  14.364  65.156  1.00  0.00    -0.386 A  
HETATM   16  C   UNL     1     -11.287  13.565  64.193  1.00  0.00    -0.370 A  
HETATM   17  C   UNL     1     -10.859  12.281  64.529  1.00  0.00    -0.355 A  
HETATM   18  C   UNL     1     -11.048  11.801  65.831  1.00  0.00    -0.355 A  
HETATM   19  C   UNL     1     -10.592  10.443  66.185  1.00  0.00    -0.090 C  
HETATM   20  O   UNL     1     -10.070   9.719  65.347  1.00  0.00    -0.305 OA 
ENDBRANCH   8  10
ENDBRANCH   6   8
ENDBRANCH   3   6
TORSDOF 3
ENDMDL
MODEL       64
REMARK 921   NORMALIZED FREE ENERGY PREDICTED BY IDOCK:   -4.79 KCAL/MOL
REMARK 922        TOTAL FREE ENERGY PREDICTED BY IDOCK:   -6.11 KCAL/MOL
REMARK 923 INTER-LIGAND FREE ENERGY PREDICTED BY IDOCK:   -5.68 KCAL/MOL
REMARK 924 INTRA-LIGAND FREE ENERGY PREDICTED BY IDOCK:   -0.43 KCAL/MOL
REMARK 927      BINDING AFFINITY PREDICTED BY RF-SCORE:    0.00 PKD
ROOT
HETATM    1  N   UNL     1      -8.301  17.244  68.189  1.00  0.00    -0.225 N  
HETATM    2  H1  UNL     1      -8.392  16.232  68.280  1.00  0.00     0.000 HD 
HETATM    3  C   UNL     1      -9.268  18.108  68.583  1.00  0.00    -0.282 C  
HETATM    4  H2  UNL     1      -7.445  17.623  67.783  1.00  0.00     0.000 HD 
HETATM    5  O   UNL     1      -9.160  19.323  68.474  1.00  0.00    -0.351 OA 
ENDROOT
BRANCH   3   6
HETATM    6  N   UNL     1     -10.379  17.505  69.119  1.00  0.00    -0.337 N  
HETATM    7  H   UNL     1     -10.546  17.568  70.122  1.00  0.00     0.000 HD 
BRANCH   6   8
HETATM    8  N   UNL     1     -11.264  16.824  68.334  1.00  0.00    -0.271 NA 
HETATM    9  H   UNL     1     -11.820  17.328  67.642  1.00  0.00     0.000 HD 
BRANCH   8  10
HETATM   10  C   UNL     1     -11.401  15.540  68.463  1.00  0.00    -0.351 C  
HETATM   11  C   UNL     1     -11.038  14.481  67.480  1.00  0.00    -0.316 C  
HETATM   12  C   UNL     1     -11.203  13.183  67.761  1.00  0.00    -0.308 C  
HETATM   13  C   UNL     1     -11.744  12.713  69.033  1.00  0.00    -0.367 A  
HETATM   14  C   UNL     1     -11.875  11.339  69.276  1.00  0.00    -0.423 A  
HETATM   15  C   UNL     1     -12.396  10.879  70.488  1.00  0.00    -0.463 A  
HETATM   16  C   UNL     1     -12.794  11.785  71.470  1.00  0.00    -0.450 A  
HETATM   17  C   UNL     1     -12.668  13.155  71.240  1.00  0.00    -0.396 A  
HETATM   18  C   UNL     1     -12.144  13.613  70.024  1.00  0.00    -0.417 A  
HETATM   19  C   UNL     1     -12.010  15.063  69.784  1.00  0.00    -0.328 C  
HETATM   20  O   UNL     1     -12.374  15.873  70.627  1.00  0.00    -0.395 OA 
ENDBRANCH   8  10
ENDBRANCH   6   8
ENDBRANCH   3   6
TORSDOF 3
ENDMDL
MODEL       65
REMARK 921   NORMALIZED FREE ENERGY PREDICTED BY IDOCK:   -4.73 KCAL/MOL
REMARK 922        TOTAL FREE ENERGY PREDICTED BY IDOCK:   -6.04 KCAL/MOL
REMARK 923 INTER-LIGAND FREE ENERGY PREDICTED BY IDOCK:   -5.80 KCAL/MOL
REMARK 924 INTRA-LIGAND FREE ENERGY PREDICTED BY IDOCK:   -0.25 KCAL/MOL
REMARK 927      BINDING AFFINITY PREDICTED BY RF-SCORE:    0.00 PKD
ROOT
HETATM    1  N   UNL     1     -10.858  16.360  67.485  1.00  0.00    -0.290 N  
HETATM    2  H1  UNL     1     -11.204  16.197  66.539  1.00  0.00     0.000 HD 
HETATM    3  C   UNL     1     -11.276  15.643  68.556  1.00  0.00    -0.342 C  
HETATM    4  H2  UNL     1     -10.166  17.096  67.631  1.00  0.00     0.000 HD 
HETATM    5  O   UNL     1     -10.860  15.838  69.691  1.00  0.00    -0.248 OA 
ENDROOT
BRANCH   3   6
HETATM    6  N   UNL     1     -12.203  14.675  68.259  1.00  0.00    -0.604 N  
HETATM    7  H   UNL     1     -12.668  14.179  69.019  1.00  0.00     0.000 HD 
BRANCH   6   8
HETATM    8  N   UNL     1     -12.515  14.364  66.968  1.00  0.00    -0.514 NA 
HETATM    9  H   UNL     1     -13.319  14.803  66.520  1.00  0.00     0.000 HD 
BRANCH   8  10
HETATM   10  C   UNL     1     -11.794  13.510  66.306  1.00  0.00    -0.392 C  
HETATM   11  C   UNL     1     -11.157  13.696  64.973  1.00  0.00    -0.338 C  
HETATM   12  C   UNL     1     -10.404  12.738  64.420  1.00  0.00    -0.388 C  
HETATM   13  C   UNL     1     -10.155  11.455  65.072  1.00  0.00    -0.323 A  
HETATM   14  C   UNL     1      -9.341  10.498  64.451  1.00  0.00    -0.307 A  
HETATM   15  C   UNL     1      -9.100   9.266  65.065  1.00  0.00    -0.245 A  
HETATM   16  C   UNL     1      -9.670   8.976  66.304  1.00  0.00    -0.345 A  
HETATM   17  C   UNL     1     -10.481   9.920  66.932  1.00  0.00    -0.284 A  
HETATM   18  C   UNL     1     -10.719  11.155  66.315  1.00  0.00    -0.298 A  
HETATM   19  C   UNL     1     -11.576  12.154  66.983  1.00  0.00    -0.337 C  
HETATM   20  O   UNL     1     -12.101  11.908  68.061  1.00  0.00    -0.541 OA 
ENDBRANCH   8  10
ENDBRANCH   6   8
ENDBRANCH   3   6
TORSDOF 3
ENDMDL
MODEL       66
REMARK 921   NORMALIZED FREE ENERGY PREDICTED BY IDOCK:   -4.73 KCAL/MOL
REMARK 922        TOTAL FREE ENERGY PREDICTED BY IDOCK:   -6.04 KCAL/MOL
REMARK 923 INTER-LIGAND FREE ENERGY PREDICTED BY IDOCK:   -6.13 KCAL/MOL
REMARK 924 INTRA-LIGAND FREE ENERGY PREDICTED BY IDOCK:    0.09 KCAL/MOL
REMARK 927      BINDING AFFINITY PREDICTED BY RF-SCORE:    0.00 PKD
ROOT
HETATM    1  N   UNL     1     -12.220  11.370  62.973  1.00  0.00    -0.875 N  
HETATM    2  H1  UNL     1     -11.405  11.170  62.393  1.00  0.00     0.000 HD 
HETATM    3  C   UNL     1     -12.280  12.427  63.819  1.00  0.00    -0.533 C  
HETATM    4  H2  UNL     1     -13.026  10.747  62.914  1.00  0.00     0.000 HD 
HETATM    5  O   UNL     1     -13.259  12.668  64.515  1.00  0.00    -0.783 OA 
ENDROOT
BRANCH   3   6
HETATM    6  N   UNL     1     -11.151  13.208  63.827  1.00  0.00    -0.570 N  
HETATM    7  H   UNL     1     -11.115  14.041  63.239  1.00  0.00     0.000 HD 
BRANCH   6   8
HETATM    8  N   UNL     1     -10.076  12.892  64.605  1.00  0.00    -0.544 NA 
HETATM    9  H   UNL     1      -9.391  13.611  64.841  1.00  0.00     0.000 HD 
BRANCH   8  10
HETATM   10  C   UNL     1      -9.919  11.681  65.047  1.00  0.00    -0.259 C  
HETATM   11  C   UNL     1      -9.253  10.539  64.361  1.00  0.00    -0.281 C  
HETATM   12  C   UNL     1      -9.129   9.346  64.953  1.00  0.00    -0.258 C  
HETATM   13  C   UNL     1      -9.631   9.076  66.298  1.00  0.00    -0.327 A  
HETATM   14  C   UNL     1      -9.453   7.810  66.873  1.00  0.00    -0.238 A  
HETATM   15  C   UNL     1      -9.934   7.541  68.157  1.00  0.00    -0.198 A  
HETATM   16  C   UNL     1     -10.597   8.531  68.880  1.00  0.00    -0.166 A  
HETATM   17  C   UNL     1     -10.780   9.794  68.319  1.00  0.00    -0.277 A  
HETATM   18  C   UNL     1     -10.296  10.062  67.032  1.00  0.00    -0.305 A  
HETATM   19  C   UNL     1     -10.487  11.400  66.441  1.00  0.00    -0.254 C  
HETATM   20  O   UNL     1     -11.086  12.275  67.054  1.00  0.00    -0.258 OA 
ENDBRANCH   8  10
ENDBRANCH   6   8
ENDBRANCH   3   6
TORSDOF 3
ENDMDL
MODEL       67
REMARK 921   NORMALIZED FREE ENERGY PREDICTED BY IDOCK:   -4.73 KCAL/MOL
REMARK 922        TOTAL FREE ENERGY PREDICTED BY IDOCK:   -6.04 KCAL/MOL
REMARK 923 INTER-LIGAND FREE ENERGY PREDICTED BY IDOCK:   -5.80 KCAL/MOL
REMARK 924 INTRA-LIGAND FREE ENERGY PREDICTED BY IDOCK:   -0.24 KCAL/MOL
REMARK 927      BINDING AFFINITY PREDICTED BY RF-SCORE:    0.00 PKD
ROOT
HETATM    1  N   UNL     1      -9.941  20.562  66.705  1.00  0.00    -0.576 N  
HETATM    2  H1  UNL     1      -9.458  20.406  67.590  1.00  0.00     0.000 HD 
HETATM    3  C   UNL     1     -10.516  19.562  65.994  1.00  0.00    -0.516 C  
HETATM    4  H2  UNL     1      -9.993  21.513  66.338  1.00  0.00     0.000 HD 
HETATM    5  O   UNL     1     -11.095  19.749  64.931  1.00  0.00    -0.154 OA 
ENDROOT
BRANCH   3   6
HETATM    6  N   UNL     1     -10.396  18.321  66.568  1.00  0.00    -0.385 N  
HETATM    7  H   UNL     1     -10.726  18.177  67.522  1.00  0.00     0.000 HD 
BRANCH   6   8
HETATM    8  N   UNL     1      -9.843  17.276  65.887  1.00  0.00    -0.534 NA 
HETATM    9  H   UNL     1      -9.054  17.438  65.261  1.00  0.00     0.000 HD 
BRANCH   8  10
HETATM   10  C   UNL     1     -10.317  16.075  66.029  1.00  0.00    -0.351 C  
HETATM   11  C   UNL     1     -10.691  15.110  64.959  1.00  0.00    -0.451 C  
HETATM   12  C   UNL     1     -11.136  13.882  65.251  1.00  0.00    -0.318 C  
HETATM   13  C   UNL     1     -11.288  13.403  66.623  1.00  0.00    -0.350 A  
HETATM   14  C   UNL     1     -11.741  12.099  66.865  1.00  0.00    -0.374 A  
HETATM   15  C   UNL     1     -11.894  11.634  68.174  1.00  0.00    -0.315 A  
HETATM   16  C   UNL     1     -11.598  12.464  69.253  1.00  0.00    -0.379 A  
HETATM   17  C   UNL     1     -11.146  13.763  69.025  1.00  0.00    -0.296 A  
HETATM   18  C   UNL     1     -10.992  14.227  67.712  1.00  0.00    -0.275 A  
HETATM   19  C   UNL     1     -10.511  15.601  67.472  1.00  0.00    -0.285 C  
HETATM   20  O   UNL     1     -10.267  16.351  68.409  1.00  0.00    -0.239 OA 
ENDBRANCH   8  10
ENDBRANCH   6   8
ENDBRANCH   3   6
TORSDOF 3
ENDMDL
MODEL       68
REMARK 921   NORMALIZED FREE ENERGY PREDICTED BY IDOCK:   -4.73 KCAL/MOL
REMARK 922        TOTAL FREE ENERGY PREDICTED BY IDOCK:   -6.04 KCAL/MOL
REMARK 923 INTER-LIGAND FREE ENERGY PREDICTED BY IDOCK:   -5.87 KCAL/MOL
REMARK 924 INTRA-LIGAND FREE ENERGY PREDICTED BY IDOCK:   -0.16 KCAL/MOL
REMARK 927      BINDING AFFINITY PREDICTED BY RF-SCORE:    0.00 PKD
ROOT
HETATM    1  N   UNL     1     -13.783  15.425  70.654  1.00  0.00    -0.841 N  
HETATM    2  H1  UNL     1     -13.237  15.404  69.792  1.00  0.00     0.000 HD 
HETATM    3  C   UNL     1     -13.716  14.448  71.591  1.00  0.00    -0.404 C  
HETATM    4  H2  UNL     1     -14.408  16.215  70.818  1.00  0.00     0.000 HD 
HETATM    5  O   UNL     1     -14.371  14.472  72.626  1.00  0.00    -0.450 OA 
ENDROOT
BRANCH   3   6
HETATM    6  N   UNL     1     -12.848  13.430  71.284  1.00  0.00    -0.345 N  
HETATM    7  H   UNL     1     -11.959  13.649  70.835  1.00  0.00     0.000 HD 
BRANCH   6   8
HETATM    8  N   UNL     1     -13.152  12.130  71.566  1.00  0.00    -0.344 NA 
HETATM    9  H   UNL     1     -13.892  11.916  72.234  1.00  0.00     0.000 HD 
BRANCH   8  10
HETATM   10  C   UNL     1     -12.504  11.164  70.989  1.00  0.00    -0.403 C  
HETATM   11  C   UNL     1     -11.671  11.234  69.756  1.00  0.00    -0.422 C  
HETATM   12  C   UNL     1     -11.024  10.159  69.290  1.00  0.00    -0.279 C  
HETATM   13  C   UNL     1     -11.086   8.855  69.944  1.00  0.00    -0.146 A  
HETATM   14  C   UNL     1     -10.371   7.771  69.418  1.00  0.00    -0.219 A  
HETATM   15  C   UNL     1     -10.427   6.518  70.034  1.00  0.00    -0.257 A  
HETATM   16  C   UNL     1     -11.199   6.333  71.180  1.00  0.00    -0.365 A  
HETATM   17  C   UNL     1     -11.915   7.404  71.713  1.00  0.00    -0.338 A  
HETATM   18  C   UNL     1     -11.855   8.660  71.094  1.00  0.00    -0.331 A  
HETATM   19  C   UNL     1     -12.612   9.793  71.662  1.00  0.00    -0.416 C  
HETATM   20  O   UNL     1     -13.311   9.643  72.655  1.00  0.00    -0.311 OA 
ENDBRANCH   8  10
ENDBRANCH   6   8
ENDBRANCH   3   6
TORSDOF 3
ENDMDL
MODEL       69
REMARK 921   NORMALIZED FREE ENERGY PREDICTED BY IDOCK:   -4.69 KCAL/MOL
REMARK 922        TOTAL FREE ENERGY PREDICTED BY IDOCK:   -6.00 KCAL/MOL
REMARK 923 INTER-LIGAND FREE ENERGY PREDICTED BY IDOCK:   -5.55 KCAL/MOL
REMARK 924 INTRA-LIGAND FREE ENERGY PREDICTED BY IDOCK:   -0.45 KCAL/MOL
REMARK 927      BINDING AFFINITY PREDICTED BY RF-SCORE:    0.00 PKD
ROOT
HETATM    1  N   UNL     1      -9.180  11.722  67.893  1.00  0.00    -0.174 N  
HETATM    2  H1  UNL     1     -10.033  11.425  67.419  1.00  0.00     0.000 HD 
HETATM    3  C   UNL     1      -8.640  12.954  67.731  1.00  0.00    -0.185 C  
HETATM    4  H2  UNL     1      -8.713  11.064  68.517  1.00  0.00     0.000 HD 
HETATM    5  O   UNL     1      -7.615  13.312  68.300  1.00  0.00    -0.119 OA 
ENDROOT
BRANCH   3   6
HETATM    6  N   UNL     1      -9.339  13.769  66.876  1.00  0.00    -0.253 N  
HETATM    7  H   UNL     1      -8.879  14.130  66.041  1.00  0.00     0.000 HD 
BRANCH   6   8
HETATM    8  N   UNL     1     -10.639  14.106  67.121  1.00  0.00    -0.277 NA 
HETATM    9  H   UNL     1     -11.348  13.947  66.405  1.00  0.00     0.000 HD 
BRANCH   8  10
HETATM   10  C   UNL     1     -10.978  14.627  68.261  1.00  0.00    -0.252 C  
HETATM   11  C   UNL     1     -10.690  16.002  68.756  1.00  0.00    -0.282 C  
HETATM   12  C   UNL     1     -11.135  16.422  69.946  1.00  0.00    -0.313 C  
HETATM   13  C   UNL     1     -11.923  15.576  70.838  1.00  0.00    -0.420 A  
HETATM   14  C   UNL     1     -12.378  16.079  72.064  1.00  0.00    -0.540 A  
HETATM   15  C   UNL     1     -13.128  15.275  72.926  1.00  0.00    -0.592 A  
HETATM   16  C   UNL     1     -13.433  13.962  72.575  1.00  0.00    -0.676 A  
HETATM   17  C   UNL     1     -12.987  13.449  71.357  1.00  0.00    -0.412 A  
HETATM   18  C   UNL     1     -12.235  14.258  70.493  1.00  0.00    -0.427 A  
HETATM   19  C   UNL     1     -11.767  13.715  69.204  1.00  0.00    -0.329 C  
HETATM   20  O   UNL     1     -12.007  12.556  68.888  1.00  0.00    -0.299 OA 
ENDBRANCH   8  10
ENDBRANCH   6   8
ENDBRANCH   3   6
TORSDOF 3
ENDMDL
MODEL       70
REMARK 921   NORMALIZED FREE ENERGY PREDICTED BY IDOCK:   -4.69 KCAL/MOL
REMARK 922        TOTAL FREE ENERGY PREDICTED BY IDOCK:   -6.00 KCAL/MOL
REMARK 923 INTER-LIGAND FREE ENERGY PREDICTED BY IDOCK:   -5.78 KCAL/MOL
REMARK 924 INTRA-LIGAND FREE ENERGY PREDICTED BY IDOCK:   -0.22 KCAL/MOL
REMARK 927      BINDING AFFINITY PREDICTED BY RF-SCORE:    0.00 PKD
ROOT
HETATM    1  N   UNL     1     -10.700  19.604  67.323  1.00  0.00    -0.478 N  
HETATM    2  H1  UNL     1     -10.287  19.227  68.176  1.00  0.00     0.000 HD 
HETATM    3  C   UNL     1     -10.520  19.035  66.106  1.00  0.00    -0.467 C  
HETATM    4  H2  UNL     1     -11.273  20.445  67.388  1.00  0.00     0.000 HD 
HETATM    5  O   UNL     1     -11.016  19.488  65.081  1.00  0.00    -0.410 OA 
ENDROOT
BRANCH   3   6
HETATM    6  N   UNL     1      -9.738  17.908  66.119  1.00  0.00    -0.261 N  
HETATM    7  H   UNL     1      -8.769  17.975  66.431  1.00  0.00     0.000 HD 
BRANCH   6   8
HETATM    8  N   UNL     1     -10.230  16.698  65.723  1.00  0.00    -0.500 NA 
HETATM    9  H   UNL     1     -10.346  16.499  64.729  1.00  0.00     0.000 HD 
BRANCH   8  10
HETATM   10  C   UNL     1     -10.552  15.800  66.603  1.00  0.00    -0.307 C  
HETATM   11  C   UNL     1     -10.958  16.017  68.019  1.00  0.00    -0.341 C  
HETATM   12  C   UNL     1     -11.302  14.994  68.811  1.00  0.00    -0.306 C  
HETATM   13  C   UNL     1     -11.302  13.607  68.353  1.00  0.00    -0.329 A  
HETATM   14  C   UNL     1     -11.691  12.580  69.224  1.00  0.00    -0.379 A  
HETATM   15  C   UNL     1     -11.691  11.250  68.796  1.00  0.00    -0.405 A  
HETATM   16  C   UNL     1     -11.302  10.930  67.496  1.00  0.00    -0.309 A  
HETATM   17  C   UNL     1     -10.914  11.943  66.620  1.00  0.00    -0.336 A  
HETATM   18  C   UNL     1     -10.917  13.277  67.051  1.00  0.00    -0.291 A  
HETATM   19  C   UNL     1     -10.508  14.348  66.122  1.00  0.00    -0.291 C  
HETATM   20  O   UNL     1     -10.143  14.083  64.983  1.00  0.00    -0.369 OA 
ENDBRANCH   8  10
ENDBRANCH   6   8
ENDBRANCH   3   6
TORSDOF 3
ENDMDL
MODEL       71
REMARK 921   NORMALIZED FREE ENERGY PREDICTED BY IDOCK:   -4.65 KCAL/MOL
REMARK 922        TOTAL FREE ENERGY PREDICTED BY IDOCK:   -5.95 KCAL/MOL
REMARK 923 INTER-LIGAND FREE ENERGY PREDICTED BY IDOCK:   -5.55 KCAL/MOL
REMARK 924 INTRA-LIGAND FREE ENERGY PREDICTED BY IDOCK:   -0.40 KCAL/MOL
REMARK 927      BINDING AFFINITY PREDICTED BY RF-SCORE:    0.00 PKD
ROOT
HETATM    1  N   UNL     1     -12.013  15.294  63.942  1.00  0.00    -0.953 N  
HETATM    2  H1  UNL     1     -11.350  16.059  63.815  1.00  0.00     0.000 HD 
HETATM    3  C   UNL     1     -11.923  14.405  64.960  1.00  0.00    -0.412 C  
HETATM    4  H2  UNL     1     -12.778  15.194  63.274  1.00  0.00     0.000 HD 
HETATM    5  O   UNL     1     -12.718  13.486  65.114  1.00  0.00    -0.611 OA 
ENDROOT
BRANCH   3   6
HETATM    6  N   UNL     1     -10.865  14.622  65.808  1.00  0.00    -0.311 N  
HETATM    7  H   UNL     1     -10.058  14.000  65.770  1.00  0.00     0.000 HD 
BRANCH   6   8
HETATM    8  N   UNL     1     -10.871  15.655  66.699  1.00  0.00    -0.299 NA 
HETATM    9  H   UNL     1     -11.501  15.628  67.502  1.00  0.00     0.000 HD 
BRANCH   8  10
HETATM   10  C   UNL     1     -10.081  16.672  66.532  1.00  0.00    -0.305 C  
HETATM   11  C   UNL     1     -10.460  18.102  66.364  1.00  0.00    -0.364 C  
HETATM   12  C   UNL     1      -9.533  19.059  66.237  1.00  0.00    -0.341 C  
HETATM   13  C   UNL     1      -8.101  18.777  66.250  1.00  0.00    -0.270 A  
HETATM   14  C   UNL     1      -7.177  19.824  66.131  1.00  0.00    -0.291 A  
HETATM   15  C   UNL     1      -5.804  19.564  66.138  1.00  0.00    -0.175 A  
HETATM   16  C   UNL     1      -5.339  18.256  66.263  1.00  0.00    -0.191 A  
HETATM   17  C   UNL     1      -6.247  17.205  66.382  1.00  0.00    -0.202 A  
HETATM   18  C   UNL     1      -7.624  17.470  66.376  1.00  0.00    -0.329 A  
HETATM   19  C   UNL     1      -8.583  16.356  66.506  1.00  0.00    -0.294 C  
HETATM   20  O   UNL     1      -8.192  15.199  66.595  1.00  0.00    -0.202 OA 
ENDBRANCH   8  10
ENDBRANCH   6   8
ENDBRANCH   3   6
TORSDOF 3
ENDMDL
MODEL       72
REMARK 921   NORMALIZED FREE ENERGY PREDICTED BY IDOCK:   -4.64 KCAL/MOL
REMARK 922        TOTAL FREE ENERGY PREDICTED BY IDOCK:   -5.93 KCAL/MOL
REMARK 923 INTER-LIGAND FREE ENERGY PREDICTED BY IDOCK:   -5.43 KCAL/MOL
REMARK 924 INTRA-LIGAND FREE ENERGY PREDICTED BY IDOCK:   -0.50 KCAL/MOL
REMARK 927      BINDING AFFINITY PREDICTED BY RF-SCORE:    0.00 PKD
ROOT
HETATM    1  N   UNL     1      -7.682  14.767  69.527  1.00  0.00    -0.356 N  
HETATM    2  H1  UNL     1      -7.917  13.848  69.902  1.00  0.00     0.000 HD 
HETATM    3  C   UNL     1      -8.608  15.733  69.313  1.00  0.00    -0.259 C  
HETATM    4  H2  UNL     1      -6.707  14.968  69.303  1.00  0.00     0.000 HD 
HETATM    5  O   UNL     1      -8.325  16.837  68.862  1.00  0.00    -0.247 OA 
ENDROOT
BRANCH   3   6
HETATM    6  N   UNL     1      -9.889  15.371  69.647  1.00  0.00    -0.336 N  
HETATM    7  H   UNL     1     -10.508  16.060  70.073  1.00  0.00     0.000 HD 
BRANCH   6   8
HETATM    8  N   UNL     1     -10.350  14.107  69.421  1.00  0.00    -0.433 NA 
HETATM    9  H   UNL     1     -10.337  13.420  70.176  1.00  0.00     0.000 HD 
BRANCH   8  10
HETATM   10  C   UNL     1     -10.805  13.773  68.252  1.00  0.00    -0.250 C  
HETATM   11  C   UNL     1     -12.019  14.292  67.564  1.00  0.00    -0.411 C  
HETATM   12  C   UNL     1     -12.352  13.884  66.334  1.00  0.00    -0.468 C  
HETATM   13  C   UNL     1     -11.562  12.910  65.585  1.00  0.00    -0.401 A  
HETATM   14  C   UNL     1     -11.952  12.535  64.291  1.00  0.00    -0.484 A  
HETATM   15  C   UNL     1     -11.206  11.601  63.569  1.00  0.00    -0.462 A  
HETATM   16  C   UNL     1     -10.064  11.030  64.128  1.00  0.00    -0.403 A  
HETATM   17  C   UNL     1      -9.666  11.395  65.414  1.00  0.00    -0.265 A  
HETATM   18  C   UNL     1     -10.415  12.333  66.136  1.00  0.00    -0.270 A  
HETATM   19  C   UNL     1      -9.991  12.720  67.495  1.00  0.00    -0.210 C  
HETATM   20  O   UNL     1      -9.002  12.212  68.010  1.00  0.00    -0.175 OA 
ENDBRANCH   8  10
ENDBRANCH   6   8
ENDBRANCH   3   6
TORSDOF 3
ENDMDL
MODEL       73
REMARK 921   NORMALIZED FREE ENERGY PREDICTED BY IDOCK:   -4.61 KCAL/MOL
REMARK 922        TOTAL FREE ENERGY PREDICTED BY IDOCK:   -5.89 KCAL/MOL
REMARK 923 INTER-LIGAND FREE ENERGY PREDICTED BY IDOCK:   -5.51 KCAL/MOL
REMARK 924 INTRA-LIGAND FREE ENERGY PREDICTED BY IDOCK:   -0.38 KCAL/MOL
REMARK 927      BINDING AFFINITY PREDICTED BY RF-SCORE:    0.00 PKD
ROOT
HETATM    1  N   UNL     1      -6.927  20.092  67.169  1.00  0.00    -0.228 N  
HETATM    2  H1  UNL     1      -7.198  20.352  68.118  1.00  0.00     0.000 HD 
HETATM    3  C   UNL     1      -7.688  19.297  66.378  1.00  0.00    -0.282 C  
HETATM    4  H2  UNL     1      -6.045  20.447  66.798  1.00  0.00     0.000 HD 
HETATM    5  O   UNL     1      -7.364  18.985  65.239  1.00  0.00    -0.425 OA 
ENDROOT
BRANCH   3   6
HETATM    6  N   UNL     1      -8.856  18.872  66.962  1.00  0.00    -0.287 N  
HETATM    7  H   UNL     1      -8.940  18.885  67.978  1.00  0.00     0.000 HD 
BRANCH   6   8
HETATM    8  N   UNL     1      -9.906  18.433  66.209  1.00  0.00    -0.441 NA 
HETATM    9  H   UNL     1     -10.374  19.074  65.568  1.00  0.00     0.000 HD 
BRANCH   8  10
HETATM   10  C   UNL     1     -10.313  17.204  66.305  1.00  0.00    -0.313 C  
HETATM   11  C   UNL     1     -10.489  16.214  65.206  1.00  0.00    -0.356 C  
HETATM   12  C   UNL     1     -10.885  14.960  65.453  1.00  0.00    -0.379 C  
HETATM   13  C   UNL     1     -11.171  14.474  66.801  1.00  0.00    -0.336 A  
HETATM   14  C   UNL     1     -11.563  13.143  66.999  1.00  0.00    -0.408 A  
HETATM   15  C   UNL     1     -11.843  12.670  68.283  1.00  0.00    -0.354 A  
HETATM   16  C   UNL     1     -11.736  13.519  69.383  1.00  0.00    -0.381 A  
HETATM   17  C   UNL     1     -11.347  14.845  69.199  1.00  0.00    -0.309 A  
HETATM   18  C   UNL     1     -11.065  15.317  67.910  1.00  0.00    -0.321 A  
HETATM   19  C   UNL     1     -10.650  16.720  67.718  1.00  0.00    -0.341 C  
HETATM   20  O   UNL     1     -10.571  17.486  68.670  1.00  0.00    -0.350 OA 
ENDBRANCH   8  10
ENDBRANCH   6   8
ENDBRANCH   3   6
TORSDOF 3
ENDMDL
MODEL       74
REMARK 921   NORMALIZED FREE ENERGY PREDICTED BY IDOCK:   -4.60 KCAL/MOL
REMARK 922        TOTAL FREE ENERGY PREDICTED BY IDOCK:   -5.89 KCAL/MOL
REMARK 923 INTER-LIGAND FREE ENERGY PREDICTED BY IDOCK:   -5.34 KCAL/MOL
REMARK 924 INTRA-LIGAND FREE ENERGY PREDICTED BY IDOCK:   -0.55 KCAL/MOL
REMARK 927      BINDING AFFINITY PREDICTED BY RF-SCORE:    0.00 PKD
ROOT
HETATM    1  N   UNL     1      -8.639  11.872  66.318  1.00  0.00    -0.374 N  
HETATM    2  H1  UNL     1      -8.614  12.499  65.514  1.00  0.00     0.000 HD 
HETATM    3  C   UNL     1      -9.785  11.316  66.783  1.00  0.00    -0.193 C  
HETATM    4  H2  UNL     1      -7.764  11.653  66.794  1.00  0.00     0.000 HD 
HETATM    5  O   UNL     1      -9.815  10.563  67.749  1.00  0.00    -0.161 OA 
ENDROOT
BRANCH   3   6
HETATM    6  N   UNL     1     -10.909  11.666  66.077  1.00  0.00    -0.285 N  
HETATM    7  H   UNL     1     -10.996  11.380  65.102  1.00  0.00     0.000 HD 
BRANCH   6   8
HETATM    8  N   UNL     1     -11.911  12.390  66.654  1.00  0.00    -0.596 NA 
HETATM    9  H   UNL     1     -12.872  12.050  66.610  1.00  0.00     0.000 HD 
BRANCH   8  10
HETATM   10  C   UNL     1     -11.649  13.509  67.258  1.00  0.00    -0.362 C  
HETATM   11  C   UNL     1     -11.773  13.811  68.711  1.00  0.00    -0.391 C  
HETATM   12  C   UNL     1     -11.431  15.006  69.207  1.00  0.00    -0.326 C  
HETATM   13  C   UNL     1     -10.920  16.090  68.372  1.00  0.00    -0.331 A  
HETATM   14  C   UNL     1     -10.560  17.314  68.952  1.00  0.00    -0.276 A  
HETATM   15  C   UNL     1     -10.074  18.358  68.161  1.00  0.00    -0.408 A  
HETATM   16  C   UNL     1      -9.943  18.193  66.783  1.00  0.00    -0.353 A  
HETATM   17  C   UNL     1     -10.297  16.980  66.194  1.00  0.00    -0.326 A  
HETATM   18  C   UNL     1     -10.783  15.934  66.990  1.00  0.00    -0.292 A  
HETATM   19  C   UNL     1     -11.155  14.650  66.365  1.00  0.00    -0.334 C  
HETATM   20  O   UNL     1     -11.066  14.495  65.153  1.00  0.00    -0.330 OA 
ENDBRANCH   8  10
ENDBRANCH   6   8
ENDBRANCH   3   6
TORSDOF 3
ENDMDL
MODEL       75
REMARK 921   NORMALIZED FREE ENERGY PREDICTED BY IDOCK:   -4.60 KCAL/MOL
REMARK 922        TOTAL FREE ENERGY PREDICTED BY IDOCK:   -5.89 KCAL/MOL
REMARK 923 INTER-LIGAND FREE ENERGY PREDICTED BY IDOCK:   -5.66 KCAL/MOL
REMARK 924 INTRA-LIGAND FREE ENERGY PREDICTED BY IDOCK:   -0.23 KCAL/MOL
REMARK 927      BINDING AFFINITY PREDICTED BY RF-SCORE:    0.00 PKD
ROOT
HETATM    1  N   UNL     1      -7.034  20.584  67.068  1.00  0.00    -0.273 N  
HETATM    2  H1  UNL     1      -7.544  20.933  67.880  1.00  0.00     0.000 HD 
HETATM    3  C   UNL     1      -7.647  20.000  66.010  1.00  0.00    -0.308 C  
HETATM    4  H2  UNL     1      -6.019  20.679  67.051  1.00  0.00     0.000 HD 
HETATM    5  O   UNL     1      -7.035  19.580  65.035  1.00  0.00    -0.402 OA 
ENDROOT
BRANCH   3   6
HETATM    6  N   UNL     1      -9.013  19.919  66.122  1.00  0.00    -0.464 N  
HETATM    7  H   UNL     1      -9.521  20.670  66.588  1.00  0.00     0.000 HD 
BRANCH   6   8
HETATM    8  N   UNL     1      -9.703  18.853  65.624  1.00  0.00    -0.271 NA 
HETATM    9  H   UNL     1      -9.976  18.841  64.640  1.00  0.00     0.000 HD 
BRANCH   8  10
HETATM   10  C   UNL     1     -10.016  17.855  66.393  1.00  0.00    -0.358 C  
HETATM   11  C   UNL     1      -9.812  17.739  67.863  1.00  0.00    -0.306 C  
HETATM   12  C   UNL     1     -10.218  16.659  68.541  1.00  0.00    -0.282 C  
HETATM   13  C   UNL     1     -10.882  15.527  67.898  1.00  0.00    -0.307 A  
HETATM   14  C   UNL     1     -11.302  14.432  68.665  1.00  0.00    -0.298 A  
HETATM   15  C   UNL     1     -11.934  13.343  68.059  1.00  0.00    -0.357 A  
HETATM   16  C   UNL     1     -12.151  13.335  66.682  1.00  0.00    -0.421 A  
HETATM   17  C   UNL     1     -11.738  14.419  65.909  1.00  0.00    -0.371 A  
HETATM   18  C   UNL     1     -11.106  15.511  66.519  1.00  0.00    -0.182 A  
HETATM   19  C   UNL     1     -10.672  16.658  65.700  1.00  0.00    -0.214 C  
HETATM   20  O   UNL     1     -10.836  16.658  64.486  1.00  0.00    -0.847 OA 
ENDBRANCH   8  10
ENDBRANCH   6   8
ENDBRANCH   3   6
TORSDOF 3
ENDMDL
MODEL       76
REMARK 921   NORMALIZED FREE ENERGY PREDICTED BY IDOCK:   -4.59 KCAL/MOL
REMARK 922        TOTAL FREE ENERGY PREDICTED BY IDOCK:   -5.88 KCAL/MOL
REMARK 923 INTER-LIGAND FREE ENERGY PREDICTED BY IDOCK:   -5.57 KCAL/MOL
REMARK 924 INTRA-LIGAND FREE ENERGY PREDICTED BY IDOCK:   -0.31 KCAL/MOL
REMARK 927      BINDING AFFINITY PREDICTED BY RF-SCORE:    0.00 PKD
ROOT
HETATM    1  N   UNL     1      -9.739  12.009  63.376  1.00  0.00    -0.568 N  
HETATM    2  H1  UNL     1      -8.929  11.395  63.466  1.00  0.00     0.000 HD 
HETATM    3  C   UNL     1     -10.234  12.731  64.410  1.00  0.00    -0.319 C  
HETATM    4  H2  UNL     1     -10.196  12.083  62.466  1.00  0.00     0.000 HD 
HETATM    5  O   UNL     1     -11.206  13.469  64.301  1.00  0.00    -0.377 OA 
ENDROOT
BRANCH   3   6
HETATM    6  N   UNL     1      -9.551  12.568  65.590  1.00  0.00    -0.433 N  
HETATM    7  H   UNL     1      -8.955  11.750  65.713  1.00  0.00     0.000 HD 
BRANCH   6   8
HETATM    8  N   UNL     1      -9.655  13.479  66.600  1.00  0.00    -0.272 NA 
HETATM    9  H   UNL     1      -9.142  14.359  66.545  1.00  0.00     0.000 HD 
BRANCH   8  10
HETATM   10  C   UNL     1     -10.403  13.232  67.633  1.00  0.00    -0.230 C  
HETATM   11  C   UNL     1     -11.426  14.120  68.250  1.00  0.00    -0.335 C  
HETATM   12  C   UNL     1     -12.156  13.720  69.298  1.00  0.00    -0.374 C  
HETATM   13  C   UNL     1     -12.006  12.401  69.907  1.00  0.00    -0.369 A  
HETATM   14  C   UNL     1     -12.814  12.032  70.992  1.00  0.00    -0.279 A  
HETATM   15  C   UNL     1     -12.674  10.775  71.584  1.00  0.00    -0.520 A  
HETATM   16  C   UNL     1     -11.728   9.873  71.102  1.00  0.00    -0.478 A  
HETATM   17  C   UNL     1     -10.918  10.228  70.023  1.00  0.00    -0.371 A  
HETATM   18  C   UNL     1     -11.061  11.489  69.430  1.00  0.00    -0.287 A  
HETATM   19  C   UNL     1     -10.206  11.862  68.287  1.00  0.00    -0.204 C  
HETATM   20  O   UNL     1      -9.354  11.090  67.864  1.00  0.00    -0.152 OA 
ENDBRANCH   8  10
ENDBRANCH   6   8
ENDBRANCH   3   6
TORSDOF 3
ENDMDL
MODEL       77
REMARK 921   NORMALIZED FREE ENERGY PREDICTED BY IDOCK:   -4.56 KCAL/MOL
REMARK 922        TOTAL FREE ENERGY PREDICTED BY IDOCK:   -5.84 KCAL/MOL
REMARK 923 INTER-LIGAND FREE ENERGY PREDICTED BY IDOCK:   -5.48 KCAL/MOL
REMARK 924 INTRA-LIGAND FREE ENERGY PREDICTED BY IDOCK:   -0.37 KCAL/MOL
REMARK 927      BINDING AFFINITY PREDICTED BY RF-SCORE:    0.00 PKD
ROOT
HETATM    1  N   UNL     1     -13.150  15.453  70.585  1.00  0.00    -0.657 N  
HETATM    2  H1  UNL     1     -13.606  14.969  69.812  1.00  0.00     0.000 HD 
HETATM    3  C   UNL     1     -12.198  14.875  71.357  1.00  0.00    -0.333 C  
HETATM    4  H2  UNL     1     -13.422  16.416  70.786  1.00  0.00     0.000 HD 
HETATM    5  O   UNL     1     -11.650  15.457  72.286  1.00  0.00    -0.430 OA 
ENDROOT
BRANCH   3   6
HETATM    6  N   UNL     1     -11.898  13.582  71.009  1.00  0.00    -0.405 N  
HETATM    7  H   UNL     1     -10.926  13.319  70.852  1.00  0.00     0.000 HD 
BRANCH   6   8
HETATM    8  N   UNL     1     -12.876  12.640  70.869  1.00  0.00    -0.164 NA 
HETATM    9  H   UNL     1     -13.832  12.929  70.659  1.00  0.00     0.000 HD 
BRANCH   8  10
HETATM   10  C   UNL     1     -12.597  11.379  71.002  1.00  0.00    -0.386 C  
HETATM   11  C   UNL     1     -13.142  10.426  72.008  1.00  0.00    -0.521 C  
HETATM   12  C   UNL     1     -12.792   9.134  72.006  1.00  0.00    -0.483 C  
HETATM   13  C   UNL     1     -11.861   8.570  71.033  1.00  0.00    -0.290 A  
HETATM   14  C   UNL     1     -11.548   7.204  71.070  1.00  0.00    -0.345 A  
HETATM   15  C   UNL     1     -10.655   6.656  70.146  1.00  0.00    -0.264 A  
HETATM   16  C   UNL     1     -10.065   7.464  69.176  1.00  0.00    -0.189 A  
HETATM   17  C   UNL     1     -10.369   8.824  69.128  1.00  0.00    -0.227 A  
HETATM   18  C   UNL     1     -11.266   9.371  70.055  1.00  0.00    -0.217 A  
HETATM   19  C   UNL     1     -11.588  10.810  70.001  1.00  0.00    -0.334 C  
HETATM   20  O   UNL     1     -11.062  11.538  69.169  1.00  0.00    -0.233 OA 
ENDBRANCH   8  10
ENDBRANCH   6   8
ENDBRANCH   3   6
TORSDOF 3
ENDMDL
MODEL       78
REMARK 921   NORMALIZED FREE ENERGY PREDICTED BY IDOCK:   -4.56 KCAL/MOL
REMARK 922        TOTAL FREE ENERGY PREDICTED BY IDOCK:   -5.84 KCAL/MOL
REMARK 923 INTER-LIGAND FREE ENERGY PREDICTED BY IDOCK:   -5.46 KCAL/MOL
REMARK 924 INTRA-LIGAND FREE ENERGY PREDICTED BY IDOCK:   -0.38 KCAL/MOL
REMARK 927      BINDING AFFINITY PREDICTED BY RF-SCORE:    0.00 PKD
ROOT
HETATM    1  N   UNL     1      -9.363  18.362  66.477  1.00  0.00    -0.308 N  
HETATM    2  H1  UNL     1      -9.452  18.246  65.467  1.00  0.00     0.000 HD 
HETATM    3  C   UNL     1      -9.404  17.321  67.343  1.00  0.00    -0.236 C  
HETATM    4  H2  UNL     1      -9.237  19.303  66.851  1.00  0.00     0.000 HD 
HETATM    5  O   UNL     1      -9.297  17.459  68.555  1.00  0.00    -0.268 OA 
ENDROOT
BRANCH   3   6
HETATM    6  N   UNL     1      -9.573  16.096  66.746  1.00  0.00    -0.231 N  
HETATM    7  H   UNL     1      -8.760  15.604  66.378  1.00  0.00     0.000 HD 
BRANCH   6   8
HETATM    8  N   UNL     1     -10.807  15.526  66.635  1.00  0.00    -0.307 NA 
HETATM    9  H   UNL     1     -11.517  15.963  66.047  1.00  0.00     0.000 HD 
BRANCH   8  10
HETATM   10  C   UNL     1     -11.084  14.430  67.275  1.00  0.00    -0.311 C  
HETATM   11  C   UNL     1     -10.887  13.029  66.811  1.00  0.00    -0.285 C  
HETATM   12  C   UNL     1     -11.185  11.986  67.594  1.00  0.00    -0.343 C  
HETATM   13  C   UNL     1     -11.719  12.141  68.945  1.00  0.00    -0.381 A  
HETATM   14  C   UNL     1     -11.993  11.009  69.726  1.00  0.00    -0.428 A  
HETATM   15  C   UNL     1     -12.509  11.147  71.017  1.00  0.00    -0.506 A  
HETATM   16  C   UNL     1     -12.757  12.414  71.543  1.00  0.00    -0.333 A  
HETATM   17  C   UNL     1     -12.488  13.547  70.776  1.00  0.00    -0.428 A  
HETATM   18  C   UNL     1     -11.969  13.406  69.482  1.00  0.00    -0.377 A  
HETATM   19  C   UNL     1     -11.683  14.607  68.673  1.00  0.00    -0.329 C  
HETATM   20  O   UNL     1     -11.915  15.727  69.111  1.00  0.00    -0.387 OA 
ENDBRANCH   8  10
ENDBRANCH   6   8
ENDBRANCH   3   6
TORSDOF 3
ENDMDL
MODEL       79
REMARK 921   NORMALIZED FREE ENERGY PREDICTED BY IDOCK:   -4.52 KCAL/MOL
REMARK 922        TOTAL FREE ENERGY PREDICTED BY IDOCK:   -5.80 KCAL/MOL
REMARK 923 INTER-LIGAND FREE ENERGY PREDICTED BY IDOCK:   -5.46 KCAL/MOL
REMARK 924 INTRA-LIGAND FREE ENERGY PREDICTED BY IDOCK:   -0.34 KCAL/MOL
REMARK 927      BINDING AFFINITY PREDICTED BY RF-SCORE:    0.00 PKD
ROOT
HETATM    1  N   UNL     1     -12.729  11.501  62.805  1.00  0.00    -0.746 N  
HETATM    2  H1  UNL     1     -12.416  10.531  62.833  1.00  0.00     0.000 HD 
HETATM    3  C   UNL     1     -12.160  12.480  63.549  1.00  0.00    -0.562 C  
HETATM    4  H2  UNL     1     -13.505  11.746  62.189  1.00  0.00     0.000 HD 
HETATM    5  O   UNL     1     -12.536  13.646  63.515  1.00  0.00    -0.754 OA 
ENDROOT
BRANCH   3   6
HETATM    6  N   UNL     1     -11.124  12.056  64.343  1.00  0.00    -0.324 N  
HETATM    7  H   UNL     1     -10.277  11.693  63.907  1.00  0.00     0.000 HD 
BRANCH   6   8
HETATM    8  N   UNL     1     -11.205  12.110  65.704  1.00  0.00    -0.324 NA 
HETATM    9  H   UNL     1     -11.824  11.468  66.201  1.00  0.00     0.000 HD 
BRANCH   8  10
HETATM   10  C   UNL     1     -10.500  12.973  66.370  1.00  0.00    -0.276 C  
HETATM   11  C   UNL     1      -9.037  12.938  66.643  1.00  0.00    -0.181 C  
HETATM   12  C   UNL     1      -8.429  13.921  67.318  1.00  0.00    -0.212 C  
HETATM   13  C   UNL     1      -9.145  15.085  67.831  1.00  0.00    -0.180 A  
HETATM   14  C   UNL     1      -8.450  16.093  68.514  1.00  0.00    -0.197 A  
HETATM   15  C   UNL     1      -9.127  17.208  69.013  1.00  0.00    -0.123 A  
HETATM   16  C   UNL     1     -10.504  17.330  68.838  1.00  0.00    -0.327 A  
HETATM   17  C   UNL     1     -11.207  16.335  68.160  1.00  0.00    -0.298 A  
HETATM   18  C   UNL     1     -10.525  15.218  67.659  1.00  0.00    -0.263 A  
HETATM   19  C   UNL     1     -11.271  14.167  66.939  1.00  0.00    -0.317 C  
HETATM   20  O   UNL     1     -12.484  14.248  66.794  1.00  0.00    -0.376 OA 
ENDBRANCH   8  10
ENDBRANCH   6   8
ENDBRANCH   3   6
TORSDOF 3
ENDMDL
MODEL       80
REMARK 921   NORMALIZED FREE ENERGY PREDICTED BY IDOCK:   -4.50 KCAL/MOL
REMARK 922        TOTAL FREE ENERGY PREDICTED BY IDOCK:   -5.77 KCAL/MOL
REMARK 923 INTER-LIGAND FREE ENERGY PREDICTED BY IDOCK:   -5.38 KCAL/MOL
REMARK 924 INTRA-LIGAND FREE ENERGY PREDICTED BY IDOCK:   -0.39 KCAL/MOL
REMARK 927      BINDING AFFINITY PREDICTED BY RF-SCORE:    0.00 PKD
ROOT
HETATM    1  N   UNL     1     -10.459   7.692  71.108  1.00  0.00    -0.208 N  
HETATM    2  H1  UNL     1     -10.138   8.653  71.235  1.00  0.00     0.000 HD 
HETATM    3  C   UNL     1     -11.058   7.260  69.972  1.00  0.00    -0.240 C  
HETATM    4  H2  UNL     1     -10.322   7.027  71.870  1.00  0.00     0.000 HD 
HETATM    5  O   UNL     1     -11.443   6.107  69.820  1.00  0.00    -0.433 OA 
ENDROOT
BRANCH   3   6
HETATM    6  N   UNL     1     -11.195   8.224  69.005  1.00  0.00    -0.306 N  
HETATM    7  H   UNL     1     -11.813   8.053  68.212  1.00  0.00     0.000 HD 
BRANCH   6   8
HETATM    8  N   UNL     1     -10.520   9.408  69.083  1.00  0.00    -0.213 NA 
HETATM    9  H   UNL     1      -9.693   9.482  69.676  1.00  0.00     0.000 HD 
BRANCH   8  10
HETATM   10  C   UNL     1     -10.925  10.440  68.407  1.00  0.00    -0.264 C  
HETATM   11  C   UNL     1     -11.562  11.680  68.932  1.00  0.00    -0.377 C  
HETATM   12  C   UNL     1     -11.898  12.689  68.119  1.00  0.00    -0.366 C  
HETATM   13  C   UNL     1     -11.671  12.650  66.677  1.00  0.00    -0.464 A  
HETATM   14  C   UNL     1     -12.027  13.746  65.880  1.00  0.00    -0.433 A  
HETATM   15  C   UNL     1     -11.818  13.717  64.499  1.00  0.00    -0.445 A  
HETATM   16  C   UNL     1     -11.252  12.594  63.898  1.00  0.00    -0.497 A  
HETATM   17  C   UNL     1     -10.893  11.497  64.680  1.00  0.00    -0.372 A  
HETATM   18  C   UNL     1     -11.102  11.529  66.065  1.00  0.00    -0.289 A  
HETATM   19  C   UNL     1     -10.719  10.369  66.892  1.00  0.00    -0.207 C  
HETATM   20  O   UNL     1     -10.240   9.365  66.378  1.00  0.00    -0.268 OA 
ENDBRANCH   8  10
ENDBRANCH   6   8
ENDBRANCH   3   6
TORSDOF 3
ENDMDL
MODEL       81
REMARK 921   NORMALIZED FREE ENERGY PREDICTED BY IDOCK:   -4.49 KCAL/MOL
REMARK 922        TOTAL FREE ENERGY PREDICTED BY IDOCK:   -5.76 KCAL/MOL
REMARK 923 INTER-LIGAND FREE ENERGY PREDICTED BY IDOCK:   -5.43 KCAL/MOL
REMARK 924 INTRA-LIGAND FREE ENERGY PREDICTED BY IDOCK:   -0.33 KCAL/MOL
REMARK 927      BINDING AFFINITY PREDICTED BY RF-SCORE:    0.00 PKD
ROOT
HETATM    1  N   UNL     1     -12.085   9.526  69.993  1.00  0.00    -0.433 N  
HETATM    2  H1  UNL     1     -11.502   9.565  69.157  1.00  0.00     0.000 HD 
HETATM    3  C   UNL     1     -12.265  10.588  70.816  1.00  0.00    -0.369 C  
HETATM    4  H2  UNL     1     -12.554   8.649  70.220  1.00  0.00     0.000 HD 
HETATM    5  O   UNL     1     -12.965  10.541  71.820  1.00  0.00    -0.429 OA 
ENDROOT
BRANCH   3   6
HETATM    6  N   UNL     1     -11.597  11.722  70.426  1.00  0.00    -0.506 N  
HETATM    7  H   UNL     1     -11.814  12.610  70.879  1.00  0.00     0.000 HD 
BRANCH   6   8
HETATM    8  N   UNL     1     -10.649  11.686  69.446  1.00  0.00    -0.437 NA 
HETATM    9  H   UNL     1      -9.791  11.152  69.589  1.00  0.00     0.000 HD 
BRANCH   8  10
HETATM   10  C   UNL     1     -10.832  12.326  68.331  1.00  0.00    -0.230 C  
HETATM   11  C   UNL     1     -11.473  11.823  67.085  1.00  0.00    -0.366 C  
HETATM   12  C   UNL     1     -11.630  12.610  66.014  1.00  0.00    -0.443 C  
HETATM   13  C   UNL     1     -11.189  14.002  65.986  1.00  0.00    -0.310 A  
HETATM   14  C   UNL     1     -11.399  14.782  64.841  1.00  0.00    -0.411 A  
HETATM   15  C   UNL     1     -10.977  16.113  64.803  1.00  0.00    -0.330 A  
HETATM   16  C   UNL     1     -10.341  16.680  65.906  1.00  0.00    -0.355 A  
HETATM   17  C   UNL     1     -10.127  15.914  67.052  1.00  0.00    -0.268 A  
HETATM   18  C   UNL     1     -10.553  14.580  67.088  1.00  0.00    -0.274 A  
HETATM   19  C   UNL     1     -10.328  13.772  68.302  1.00  0.00    -0.247 C  
HETATM   20  O   UNL     1      -9.751  14.247  69.272  1.00  0.00    -0.027 OA 
ENDBRANCH   8  10
ENDBRANCH   6   8
ENDBRANCH   3   6
TORSDOF 3
ENDMDL
MODEL       82
REMARK 921   NORMALIZED FREE ENERGY PREDICTED BY IDOCK:   -4.49 KCAL/MOL
REMARK 922        TOTAL FREE ENERGY PREDICTED BY IDOCK:   -5.75 KCAL/MOL
REMARK 923 INTER-LIGAND FREE ENERGY PREDICTED BY IDOCK:   -5.27 KCAL/MOL
REMARK 924 INTRA-LIGAND FREE ENERGY PREDICTED BY IDOCK:   -0.49 KCAL/MOL
REMARK 927      BINDING AFFINITY PREDICTED BY RF-SCORE:    0.00 PKD
ROOT
HETATM    1  N   UNL     1      -8.275  17.105  66.782  1.00  0.00    -0.221 N  
HETATM    2  H1  UNL     1      -8.909  17.323  66.013  1.00  0.00     0.000 HD 
HETATM    3  C   UNL     1      -8.588  17.331  68.081  1.00  0.00    -0.242 C  
HETATM    4  H2  UNL     1      -7.364  16.698  66.564  1.00  0.00     0.000 HD 
HETATM    5  O   UNL     1      -7.828  17.070  69.004  1.00  0.00    -0.234 OA 
ENDROOT
BRANCH   3   6
HETATM    6  N   UNL     1      -9.833  17.876  68.274  1.00  0.00    -0.328 N  
HETATM    7  H   UNL     1      -9.912  18.826  68.636  1.00  0.00     0.000 HD 
BRANCH   6   8
HETATM    8  N   UNL     1     -10.967  17.172  67.990  1.00  0.00    -0.313 NA 
HETATM    9  H   UNL     1     -11.607  17.509  67.270  1.00  0.00     0.000 HD 
BRANCH   8  10
HETATM   10  C   UNL     1     -11.237  16.076  68.632  1.00  0.00    -0.366 C  
HETATM   11  C   UNL     1     -11.674  15.933  70.048  1.00  0.00    -0.340 C  
HETATM   12  C   UNL     1     -11.956  14.735  70.574  1.00  0.00    -0.373 C  
HETATM   13  C   UNL     1     -11.855  13.494  69.809  1.00  0.00    -0.395 A  
HETATM   14  C   UNL     1     -12.182  12.271  70.410  1.00  0.00    -0.371 A  
HETATM   15  C   UNL     1     -12.085  11.079  69.689  1.00  0.00    -0.411 A  
HETATM   16  C   UNL     1     -11.660  11.094  68.361  1.00  0.00    -0.376 A  
HETATM   17  C   UNL     1     -11.332  12.304  67.752  1.00  0.00    -0.362 A  
HETATM   18  C   UNL     1     -11.432  13.499  68.478  1.00  0.00    -0.345 A  
HETATM   19  C   UNL     1     -11.087  14.780  67.831  1.00  0.00    -0.293 C  
HETATM   20  O   UNL     1     -10.692  14.809  66.672  1.00  0.00    -0.297 OA 
ENDBRANCH   8  10
ENDBRANCH   6   8
ENDBRANCH   3   6
TORSDOF 3
ENDMDL
MODEL       83
REMARK 921   NORMALIZED FREE ENERGY PREDICTED BY IDOCK:   -4.46 KCAL/MOL
REMARK 922        TOTAL FREE ENERGY PREDICTED BY IDOCK:   -5.72 KCAL/MOL
REMARK 923 INTER-LIGAND FREE ENERGY PREDICTED BY IDOCK:   -5.30 KCAL/MOL
REMARK 924 INTRA-LIGAND FREE ENERGY PREDICTED BY IDOCK:   -0.42 KCAL/MOL
REMARK 927      BINDING AFFINITY PREDICTED BY RF-SCORE:    0.00 PKD
ROOT
HETATM    1  N   UNL     1     -12.246  15.557  63.839  1.00  0.00    -0.952 N  
HETATM    2  H1  UNL     1     -11.823  16.360  64.304  1.00  0.00     0.000 HD 
HETATM    3  C   UNL     1     -12.071  14.283  64.266  1.00  0.00    -0.441 C  
HETATM    4  H2  UNL     1     -12.828  15.719  63.017  1.00  0.00     0.000 HD 
HETATM    5  O   UNL     1     -12.579  13.318  63.708  1.00  0.00    -0.687 OA 
ENDROOT
BRANCH   3   6
HETATM    6  N   UNL     1     -11.276  14.165  65.379  1.00  0.00    -0.315 N  
HETATM    7  H   UNL     1     -11.618  14.510  66.276  1.00  0.00     0.000 HD 
BRANCH   6   8
HETATM    8  N   UNL     1     -10.038  13.596  65.309  1.00  0.00    -0.490 NA 
HETATM    9  H   UNL     1      -9.388  13.883  64.577  1.00  0.00     0.000 HD 
BRANCH   8  10
HETATM   10  C   UNL     1      -9.681  12.691  66.170  1.00  0.00    -0.251 C  
HETATM   11  C   UNL     1      -8.952  12.890  67.452  1.00  0.00    -0.199 C  
HETATM   12  C   UNL     1      -8.680  11.864  68.267  1.00  0.00    -0.170 C  
HETATM   13  C   UNL     1      -9.070  10.490  67.962  1.00  0.00    -0.138 A  
HETATM   14  C   UNL     1      -8.773   9.459  68.864  1.00  0.00    -0.132 A  
HETATM   15  C   UNL     1      -9.138   8.141  68.579  1.00  0.00    -0.136 A  
HETATM   16  C   UNL     1      -9.802   7.837  67.392  1.00  0.00    -0.230 A  
HETATM   17  C   UNL     1     -10.103   8.853  66.487  1.00  0.00    -0.356 A  
HETATM   18  C   UNL     1      -9.737  10.175  66.775  1.00  0.00    -0.235 A  
HETATM   19  C   UNL     1     -10.060  11.250  65.817  1.00  0.00    -0.247 C  
HETATM   20  O   UNL     1     -10.623  10.998  64.760  1.00  0.00    -0.319 OA 
ENDBRANCH   8  10
ENDBRANCH   6   8
ENDBRANCH   3   6
TORSDOF 3
ENDMDL
MODEL       84
REMARK 921   NORMALIZED FREE ENERGY PREDICTED BY IDOCK:   -4.44 KCAL/MOL
REMARK 922        TOTAL FREE ENERGY PREDICTED BY IDOCK:   -5.70 KCAL/MOL
REMARK 923 INTER-LIGAND FREE ENERGY PREDICTED BY IDOCK:   -5.32 KCAL/MOL
REMARK 924 INTRA-LIGAND FREE ENERGY PREDICTED BY IDOCK:   -0.38 KCAL/MOL
REMARK 927      BINDING AFFINITY PREDICTED BY RF-SCORE:    0.00 PKD
ROOT
HETATM    1  N   UNL     1     -12.409  14.192  63.692  1.00  0.00    -1.092 N  
HETATM    2  H1  UNL     1     -11.807  14.916  64.086  1.00  0.00     0.000 HD 
HETATM    3  C   UNL     1     -12.359  12.897  64.088  1.00  0.00    -0.376 C  
HETATM    4  H2  UNL     1     -13.078  14.454  62.968  1.00  0.00     0.000 HD 
HETATM    5  O   UNL     1     -13.081  12.028  63.615  1.00  0.00    -0.756 OA 
ENDROOT
BRANCH   3   6
HETATM    6  N   UNL     1     -11.431  12.642  65.068  1.00  0.00    -0.317 N  
HETATM    7  H   UNL     1     -10.531  12.237  64.810  1.00  0.00     0.000 HD 
BRANCH   6   8
HETATM    8  N   UNL     1     -11.689  12.920  66.378  1.00  0.00    -0.375 NA 
HETATM    9  H   UNL     1     -12.237  13.745  66.624  1.00  0.00     0.000 HD 
BRANCH   8  10
HETATM   10  C   UNL     1     -11.242  12.140  67.315  1.00  0.00    -0.306 C  
HETATM   11  C   UNL     1     -12.032  11.303  68.259  1.00  0.00    -0.215 C  
HETATM   12  C   UNL     1     -11.435  10.512  69.158  1.00  0.00    -0.314 C  
HETATM   13  C   UNL     1      -9.983  10.413  69.281  1.00  0.00    -0.246 A  
HETATM   14  C   UNL     1      -9.416   9.551  70.230  1.00  0.00    -0.307 A  
HETATM   15  C   UNL     1      -8.028   9.453  70.359  1.00  0.00    -0.190 A  
HETATM   16  C   UNL     1      -7.192  10.213  69.543  1.00  0.00    -0.115 A  
HETATM   17  C   UNL     1      -7.744  11.073  68.594  1.00  0.00    -0.132 A  
HETATM   18  C   UNL     1      -9.136  11.169  68.467  1.00  0.00    -0.175 A  
HETATM   19  C   UNL     1      -9.719  12.078  67.461  1.00  0.00    -0.187 C  
HETATM   20  O   UNL     1      -9.000  12.769  66.750  1.00  0.00    -0.218 OA 
ENDBRANCH   8  10
ENDBRANCH   6   8
ENDBRANCH   3   6
TORSDOF 3
ENDMDL
MODEL       85
REMARK 921   NORMALIZED FREE ENERGY PREDICTED BY IDOCK:   -4.44 KCAL/MOL
REMARK 922        TOTAL FREE ENERGY PREDICTED BY IDOCK:   -5.70 KCAL/MOL
REMARK 923 INTER-LIGAND FREE ENERGY PREDICTED BY IDOCK:   -5.52 KCAL/MOL
REMARK 924 INTRA-LIGAND FREE ENERGY PREDICTED BY IDOCK:   -0.18 KCAL/MOL
REMARK 927      BINDING AFFINITY PREDICTED BY RF-SCORE:    0.00 PKD
ROOT
HETATM    1  N   UNL     1     -10.484  20.300  68.960  1.00  0.00    -0.377 N  
HETATM    2  H1  UNL     1     -10.969  19.715  69.641  1.00  0.00     0.000 HD 
HETATM    3  C   UNL     1     -10.370  19.965  67.652  1.00  0.00    -0.416 C  
HETATM    4  H2  UNL     1     -10.066  21.175  69.277  1.00  0.00     0.000 HD 
HETATM    5  O   UNL     1      -9.787  20.667  66.834  1.00  0.00    -0.423 OA 
ENDROOT
BRANCH   3   6
HETATM    6  N   UNL     1     -10.965  18.774  67.320  1.00  0.00    -0.331 N  
HETATM    7  H   UNL     1     -11.680  18.758  66.593  1.00  0.00     0.000 HD 
BRANCH   6   8
HETATM    8  N   UNL     1     -10.620  17.611  67.944  1.00  0.00    -0.395 NA 
HETATM    9  H   UNL     1     -10.386  17.618  68.937  1.00  0.00     0.000 HD 
BRANCH   8  10
HETATM   10  C   UNL     1     -10.589  16.494  67.282  1.00  0.00    -0.285 C  
HETATM   11  C   UNL     1     -10.023  16.255  65.926  1.00  0.00    -0.366 C  
HETATM   12  C   UNL     1     -10.025  15.036  65.374  1.00  0.00    -0.365 C  
HETATM   13  C   UNL     1     -10.575  13.864  66.051  1.00  0.00    -0.293 A  
HETATM   14  C   UNL     1     -10.531  12.609  65.429  1.00  0.00    -0.306 A  
HETATM   15  C   UNL     1     -11.059  11.483  66.067  1.00  0.00    -0.289 A  
HETATM   16  C   UNL     1     -11.638  11.598  67.329  1.00  0.00    -0.316 A  
HETATM   17  C   UNL     1     -11.687  12.841  67.958  1.00  0.00    -0.405 A  
HETATM   18  C   UNL     1     -11.156  13.969  67.318  1.00  0.00    -0.314 A  
HETATM   19  C   UNL     1     -11.207  15.283  67.986  1.00  0.00    -0.326 C  
HETATM   20  O   UNL     1     -11.731  15.406  69.086  1.00  0.00    -0.311 OA 
ENDBRANCH   8  10
ENDBRANCH   6   8
ENDBRANCH   3   6
TORSDOF 3
ENDMDL
MODEL       86
REMARK 921   NORMALIZED FREE ENERGY PREDICTED BY IDOCK:   -4.44 KCAL/MOL
REMARK 922        TOTAL FREE ENERGY PREDICTED BY IDOCK:   -5.70 KCAL/MOL
REMARK 923 INTER-LIGAND FREE ENERGY PREDICTED BY IDOCK:   -5.42 KCAL/MOL
REMARK 924 INTRA-LIGAND FREE ENERGY PREDICTED BY IDOCK:   -0.28 KCAL/MOL
REMARK 927      BINDING AFFINITY PREDICTED BY RF-SCORE:    0.00 PKD
ROOT
HETATM    1  N   UNL     1      -7.554  15.234  69.226  1.00  0.00    -0.197 N  
HETATM    2  H1  UNL     1      -8.354  15.062  69.835  1.00  0.00     0.000 HD 
HETATM    3  C   UNL     1      -7.435  14.683  67.994  1.00  0.00    -0.131 C  
HETATM    4  H2  UNL     1      -6.810  15.847  69.560  1.00  0.00     0.000 HD 
HETATM    5  O   UNL     1      -6.474  14.889  67.263  1.00  0.00    -0.304 OA 
ENDROOT
BRANCH   3   6
HETATM    6  N   UNL     1      -8.485  13.875  67.634  1.00  0.00    -0.178 N  
HETATM    7  H   UNL     1      -8.301  12.915  67.343  1.00  0.00     0.000 HD 
BRANCH   6   8
HETATM    8  N   UNL     1      -9.771  14.332  67.656  1.00  0.00    -0.217 NA 
HETATM    9  H   UNL     1     -10.080  15.010  66.959  1.00  0.00     0.000 HD 
BRANCH   8  10
HETATM   10  C   UNL     1     -10.602  13.910  68.560  1.00  0.00    -0.252 C  
HETATM   11  C   UNL     1     -11.066  12.514  68.790  1.00  0.00    -0.314 C  
HETATM   12  C   UNL     1     -11.904  12.213  69.789  1.00  0.00    -0.397 C  
HETATM   13  C   UNL     1     -12.420  13.217  70.716  1.00  0.00    -0.403 A  
HETATM   14  C   UNL     1     -13.279  12.837  71.755  1.00  0.00    -0.471 A  
HETATM   15  C   UNL     1     -13.782  13.791  72.644  1.00  0.00    -0.566 A  
HETATM   16  C   UNL     1     -13.433  15.133  72.504  1.00  0.00    -0.566 A  
HETATM   17  C   UNL     1     -12.578  15.524  71.474  1.00  0.00    -0.484 A  
HETATM   18  C   UNL     1     -12.075  14.565  70.585  1.00  0.00    -0.392 A  
HETATM   19  C   UNL     1     -11.168  14.979  69.497  1.00  0.00    -0.276 C  
HETATM   20  O   UNL     1     -10.868  16.157  69.347  1.00  0.00    -0.272 OA 
ENDBRANCH   8  10
ENDBRANCH   6   8
ENDBRANCH   3   6
TORSDOF 3
ENDMDL
MODEL       87
REMARK 921   NORMALIZED FREE ENERGY PREDICTED BY IDOCK:   -4.40 KCAL/MOL
REMARK 922        TOTAL FREE ENERGY PREDICTED BY IDOCK:   -5.65 KCAL/MOL
REMARK 923 INTER-LIGAND FREE ENERGY PREDICTED BY IDOCK:   -5.29 KCAL/MOL
REMARK 924 INTRA-LIGAND FREE ENERGY PREDICTED BY IDOCK:   -0.36 KCAL/MOL
REMARK 927      BINDING AFFINITY PREDICTED BY RF-SCORE:    0.00 PKD
ROOT
HETATM    1  N   UNL     1      -9.064  15.401  66.376  1.00  0.00    -0.294 N  
HETATM    2  H1  UNL     1      -8.506  14.589  66.642  1.00  0.00     0.000 HD 
HETATM    3  C   UNL     1      -9.914  15.395  65.321  1.00  0.00    -0.270 C  
HETATM    4  H2  UNL     1      -8.978  16.255  66.927  1.00  0.00     0.000 HD 
HETATM    5  O   UNL     1     -10.584  16.369  65.000  1.00  0.00    -0.651 OA 
ENDROOT
BRANCH   3   6
HETATM    6  N   UNL     1      -9.963  14.202  64.642  1.00  0.00    -0.576 N  
HETATM    7  H   UNL     1      -9.218  13.969  63.987  1.00  0.00     0.000 HD 
BRANCH   6   8
HETATM    8  N   UNL     1     -10.990  13.323  64.828  1.00  0.00    -0.331 NA 
HETATM    9  H   UNL     1     -11.790  13.336  64.194  1.00  0.00     0.000 HD 
BRANCH   8  10
HETATM   10  C   UNL     1     -10.956  12.471  65.807  1.00  0.00    -0.292 C  
HETATM   11  C   UNL     1     -11.422  12.672  67.207  1.00  0.00    -0.402 C  
HETATM   12  C   UNL     1     -11.360  11.687  68.110  1.00  0.00    -0.358 C  
HETATM   13  C   UNL     1     -10.837  10.360  67.797  1.00  0.00    -0.351 A  
HETATM   14  C   UNL     1     -10.816   9.363  68.782  1.00  0.00    -0.147 A  
HETATM   15  C   UNL     1     -10.313   8.091  68.493  1.00  0.00    -0.229 A  
HETATM   16  C   UNL     1      -9.826   7.802  67.220  1.00  0.00    -0.249 A  
HETATM   17  C   UNL     1      -9.842   8.785  66.232  1.00  0.00    -0.342 A  
HETATM   18  C   UNL     1     -10.348  10.059  66.523  1.00  0.00    -0.268 A  
HETATM   19  C   UNL     1     -10.366  11.097  65.475  1.00  0.00    -0.268 C  
HETATM   20  O   UNL     1      -9.923  10.867  64.358  1.00  0.00    -0.267 OA 
ENDBRANCH   8  10
ENDBRANCH   6   8
ENDBRANCH   3   6
TORSDOF 3
ENDMDL
MODEL       88
REMARK 921   NORMALIZED FREE ENERGY PREDICTED BY IDOCK:   -4.36 KCAL/MOL
REMARK 922        TOTAL FREE ENERGY PREDICTED BY IDOCK:   -5.60 KCAL/MOL
REMARK 923 INTER-LIGAND FREE ENERGY PREDICTED BY IDOCK:   -5.39 KCAL/MOL
REMARK 924 INTRA-LIGAND FREE ENERGY PREDICTED BY IDOCK:   -0.21 KCAL/MOL
REMARK 927      BINDING AFFINITY PREDICTED BY RF-SCORE:    0.00 PKD
ROOT
HETATM    1  N   UNL     1     -10.173   8.651  71.865  1.00  0.00    -0.306 N  
HETATM    2  H1  UNL     1      -9.433   8.564  71.168  1.00  0.00     0.000 HD 
HETATM    3  C   UNL     1     -11.431   9.048  71.556  1.00  0.00    -0.337 C  
HETATM    4  H2  UNL     1      -9.958   8.428  72.837  1.00  0.00     0.000 HD 
HETATM    5  O   UNL     1     -12.321   9.152  72.391  1.00  0.00    -0.329 OA 
ENDROOT
BRANCH   3   6
HETATM    6  N   UNL     1     -11.625   9.322  70.224  1.00  0.00    -0.440 N  
HETATM    7  H   UNL     1     -12.253   8.732  69.679  1.00  0.00     0.000 HD 
BRANCH   6   8
HETATM    8  N   UNL     1     -10.995  10.369  69.617  1.00  0.00    -0.258 NA 
HETATM    9  H   UNL     1     -10.782  11.211  70.151  1.00  0.00     0.000 HD 
BRANCH   8  10
HETATM   10  C   UNL     1     -10.666  10.298  68.363  1.00  0.00    -0.226 C  
HETATM   11  C   UNL     1      -9.800   9.282  67.703  1.00  0.00    -0.221 C  
HETATM   12  C   UNL     1      -9.573   9.309  66.385  1.00  0.00    -0.301 C  
HETATM   13  C   UNL     1     -10.146  10.325  65.506  1.00  0.00    -0.351 A  
HETATM   14  C   UNL     1      -9.886  10.290  64.129  1.00  0.00    -0.319 A  
HETATM   15  C   UNL     1     -10.427  11.260  63.281  1.00  0.00    -0.370 A  
HETATM   16  C   UNL     1     -11.230  12.275  63.797  1.00  0.00    -0.510 A  
HETATM   17  C   UNL     1     -11.497  12.320  65.165  1.00  0.00    -0.390 A  
HETATM   18  C   UNL     1     -10.955  11.346  66.013  1.00  0.00    -0.286 A  
HETATM   19  C   UNL     1     -11.240  11.394  67.460  1.00  0.00    -0.292 C  
HETATM   20  O   UNL     1     -11.926  12.291  67.933  1.00  0.00    -0.452 OA 
ENDBRANCH   8  10
ENDBRANCH   6   8
ENDBRANCH   3   6
TORSDOF 3
ENDMDL
MODEL       89
REMARK 921   NORMALIZED FREE ENERGY PREDICTED BY IDOCK:   -4.35 KCAL/MOL
REMARK 922        TOTAL FREE ENERGY PREDICTED BY IDOCK:   -5.60 KCAL/MOL
REMARK 923 INTER-LIGAND FREE ENERGY PREDICTED BY IDOCK:   -5.11 KCAL/MOL
REMARK 924 INTRA-LIGAND FREE ENERGY PREDICTED BY IDOCK:   -0.48 KCAL/MOL
REMARK 927      BINDING AFFINITY PREDICTED BY RF-SCORE:    0.00 PKD
ROOT
HETATM    1  N   UNL     1     -13.255  14.373  70.551  1.00  0.00    -0.448 N  
HETATM    2  H1  UNL     1     -13.594  13.979  69.673  1.00  0.00     0.000 HD 
HETATM    3  C   UNL     1     -12.650  15.583  70.629  1.00  0.00    -0.443 C  
HETATM    4  H2  UNL     1     -13.376  13.833  71.408  1.00  0.00     0.000 HD 
HETATM    5  O   UNL     1     -12.242  16.057  71.683  1.00  0.00    -0.449 OA 
ENDROOT
BRANCH   3   6
HETATM    6  N   UNL     1     -12.534  16.235  69.427  1.00  0.00    -0.330 N  
HETATM    7  H   UNL     1     -13.175  16.998  69.209  1.00  0.00     0.000 HD 
BRANCH   6   8
HETATM    8  N   UNL     1     -11.579  15.883  68.519  1.00  0.00    -0.376 NA 
HETATM    9  H   UNL     1     -11.846  15.384  67.669  1.00  0.00     0.000 HD 
BRANCH   8  10
HETATM   10  C   UNL     1     -10.332  16.179  68.729  1.00  0.00    -0.248 C  
HETATM   11  C   UNL     1      -9.258  15.285  69.243  1.00  0.00    -0.233 C  
HETATM   12  C   UNL     1      -7.998  15.715  69.377  1.00  0.00    -0.226 C  
HETATM   13  C   UNL     1      -7.587  17.074  69.036  1.00  0.00    -0.194 A  
HETATM   14  C   UNL     1      -6.247  17.460  69.180  1.00  0.00    -0.228 A  
HETATM   15  C   UNL     1      -5.845  18.760  68.860  1.00  0.00    -0.222 A  
HETATM   16  C   UNL     1      -6.775  19.687  68.394  1.00  0.00    -0.323 A  
HETATM   17  C   UNL     1      -8.111  19.316  68.246  1.00  0.00    -0.367 A  
HETATM   18  C   UNL     1      -8.511  18.011  68.566  1.00  0.00    -0.314 A  
HETATM   19  C   UNL     1      -9.924  17.619  68.406  1.00  0.00    -0.356 C  
HETATM   20  O   UNL     1     -10.759  18.427  68.018  1.00  0.00    -0.357 OA 
ENDBRANCH   8  10
ENDBRANCH   6   8
ENDBRANCH   3   6
TORSDOF 3
ENDMDL
MODEL       90
REMARK 921   NORMALIZED FREE ENERGY PREDICTED BY IDOCK:   -4.29 KCAL/MOL
REMARK 922        TOTAL FREE ENERGY PREDICTED BY IDOCK:   -5.53 KCAL/MOL
REMARK 923 INTER-LIGAND FREE ENERGY PREDICTED BY IDOCK:   -4.82 KCAL/MOL
REMARK 924 INTRA-LIGAND FREE ENERGY PREDICTED BY IDOCK:   -0.71 KCAL/MOL
REMARK 927      BINDING AFFINITY PREDICTED BY RF-SCORE:    0.00 PKD
ROOT
HETATM    1  N   UNL     1     -10.967  11.027  64.169  1.00  0.00    -0.394 N  
HETATM    2  H1  UNL     1     -11.040  10.214  64.781  1.00  0.00     0.000 HD 
HETATM    3  C   UNL     1     -10.864  12.294  64.638  1.00  0.00    -0.308 C  
HETATM    4  H2  UNL     1     -10.972  10.880  63.159  1.00  0.00     0.000 HD 
HETATM    5  O   UNL     1     -10.777  13.271  63.903  1.00  0.00    -0.318 OA 
ENDROOT
BRANCH   3   6
HETATM    6  N   UNL     1     -10.863  12.390  66.007  1.00  0.00    -0.265 N  
HETATM    7  H   UNL     1     -10.089  12.862  66.474  1.00  0.00     0.000 HD 
BRANCH   6   8
HETATM    8  N   UNL     1     -11.877  11.868  66.756  1.00  0.00    -0.607 NA 
HETATM    9  H   UNL     1     -12.840  11.938  66.425  1.00  0.00     0.000 HD 
BRANCH   8  10
HETATM   10  C   UNL     1     -11.624  11.282  67.886  1.00  0.00    -0.256 C  
HETATM   11  C   UNL     1     -11.854  11.811  69.259  1.00  0.00    -0.389 C  
HETATM   12  C   UNL     1     -11.579  11.079  70.345  1.00  0.00    -0.389 C  
HETATM   13  C   UNL     1     -11.037   9.724  70.266  1.00  0.00    -0.349 A  
HETATM   14  C   UNL     1     -10.787   8.999  71.439  1.00  0.00    -0.400 A  
HETATM   15  C   UNL     1     -10.265   7.705  71.375  1.00  0.00    -0.208 A  
HETATM   16  C   UNL     1      -9.987   7.121  70.141  1.00  0.00    -0.190 A  
HETATM   17  C   UNL     1     -10.232   7.832  68.966  1.00  0.00    -0.213 A  
HETATM   18  C   UNL     1     -10.756   9.129  69.034  1.00  0.00    -0.176 A  
HETATM   19  C   UNL     1     -11.017   9.879  67.790  1.00  0.00    -0.217 C  
HETATM   20  O   UNL     1     -10.759   9.390  66.698  1.00  0.00    -0.143 OA 
ENDBRANCH   8  10
ENDBRANCH   6   8
ENDBRANCH   3   6
TORSDOF 3
ENDMDL
MODEL       91
REMARK 921   NORMALIZED FREE ENERGY PREDICTED BY IDOCK:   -4.28 KCAL/MOL
REMARK 922        TOTAL FREE ENERGY PREDICTED BY IDOCK:   -5.51 KCAL/MOL
REMARK 923 INTER-LIGAND FREE ENERGY PREDICTED BY IDOCK:   -5.28 KCAL/MOL
REMARK 924 INTRA-LIGAND FREE ENERGY PREDICTED BY IDOCK:   -0.24 KCAL/MOL
REMARK 927      BINDING AFFINITY PREDICTED BY RF-SCORE:    0.00 PKD
ROOT
HETATM    1  N   UNL     1      -9.212  16.127  67.688  1.00  0.00    -0.204 N  
HETATM    2  H1  UNL     1     -10.027  15.832  68.226  1.00  0.00     0.000 HD 
HETATM    3  C   UNL     1      -9.302  16.637  66.435  1.00  0.00    -0.281 C  
HETATM    4  H2  UNL     1      -8.288  16.036  68.111  1.00  0.00     0.000 HD 
HETATM    5  O   UNL     1      -8.324  16.992  65.789  1.00  0.00    -0.500 OA 
ENDROOT
BRANCH   3   6
HETATM    6  N   UNL     1     -10.585  16.724  65.953  1.00  0.00    -0.296 N  
HETATM    7  H   UNL     1     -11.164  17.521  66.216  1.00  0.00     0.000 HD 
BRANCH   6   8
HETATM    8  N   UNL     1     -11.098  15.766  65.128  1.00  0.00    -0.351 NA 
HETATM    9  H   UNL     1     -11.595  16.040  64.280  1.00  0.00     0.000 HD 
BRANCH   8  10
HETATM   10  C   UNL     1     -10.960  14.508  65.418  1.00  0.00    -0.342 C  
HETATM   11  C   UNL     1     -10.330  13.445  64.586  1.00  0.00    -0.400 C  
HETATM   12  C   UNL     1     -10.221  12.187  65.027  1.00  0.00    -0.312 C  
HETATM   13  C   UNL     1     -10.707  11.765  66.339  1.00  0.00    -0.306 A  
HETATM   14  C   UNL     1     -10.546  10.436  66.753  1.00  0.00    -0.270 A  
HETATM   15  C   UNL     1     -11.012  10.022  68.004  1.00  0.00    -0.296 A  
HETATM   16  C   UNL     1     -11.642  10.929  68.854  1.00  0.00    -0.378 A  
HETATM   17  C   UNL     1     -11.807  12.255  68.453  1.00  0.00    -0.358 A  
HETATM   18  C   UNL     1     -11.338  12.667  67.199  1.00  0.00    -0.373 A  
HETATM   19  C   UNL     1     -11.511  14.071  66.778  1.00  0.00    -0.363 C  
HETATM   20  O   UNL     1     -12.081  14.876  67.503  1.00  0.00    -0.246 OA 
ENDBRANCH   8  10
ENDBRANCH   6   8
ENDBRANCH   3   6
TORSDOF 3
ENDMDL
MODEL       92
REMARK 921   NORMALIZED FREE ENERGY PREDICTED BY IDOCK:   -4.27 KCAL/MOL
REMARK 922        TOTAL FREE ENERGY PREDICTED BY IDOCK:   -5.50 KCAL/MOL
REMARK 923 INTER-LIGAND FREE ENERGY PREDICTED BY IDOCK:   -5.07 KCAL/MOL
REMARK 924 INTRA-LIGAND FREE ENERGY PREDICTED BY IDOCK:   -0.44 KCAL/MOL
REMARK 927      BINDING AFFINITY PREDICTED BY RF-SCORE:    0.00 PKD
ROOT
HETATM    1  N   UNL     1     -14.314  15.555  70.922  1.00  0.00    -0.817 N  
HETATM    2  H1  UNL     1     -14.868  15.770  70.093  1.00  0.00     0.000 HD 
HETATM    3  C   UNL     1     -12.982  15.313  70.874  1.00  0.00    -0.462 C  
HETATM    4  H2  UNL     1     -14.783  15.522  71.828  1.00  0.00     0.000 HD 
HETATM    5  O   UNL     1     -12.316  15.055  71.870  1.00  0.00    -0.309 OA 
ENDROOT
BRANCH   3   6
HETATM    6  N   UNL     1     -12.440  15.383  69.615  1.00  0.00    -0.605 N  
HETATM    7  H   UNL     1     -11.937  16.224  69.333  1.00  0.00     0.000 HD 
BRANCH   6   8
HETATM    8  N   UNL     1     -12.563  14.350  68.732  1.00  0.00    -0.426 NA 
HETATM    9  H   UNL     1     -13.314  14.360  68.041  1.00  0.00     0.000 HD 
BRANCH   8  10
HETATM   10  C   UNL     1     -11.729  13.355  68.765  1.00  0.00    -0.340 C  
HETATM   11  C   UNL     1     -11.878  12.067  69.497  1.00  0.00    -0.390 C  
HETATM   12  C   UNL     1     -10.950  11.106  69.413  1.00  0.00    -0.298 C  
HETATM   13  C   UNL     1      -9.738  11.247  68.611  1.00  0.00    -0.200 A  
HETATM   14  C   UNL     1      -8.811  10.198  68.548  1.00  0.00    -0.127 A  
HETATM   15  C   UNL     1      -7.646  10.325  67.787  1.00  0.00    -0.089 A  
HETATM   16  C   UNL     1      -7.393  11.501  67.083  1.00  0.00    -0.139 A  
HETATM   17  C   UNL     1      -8.307  12.552  67.137  1.00  0.00    -0.179 A  
HETATM   18  C   UNL     1      -9.476  12.421  67.900  1.00  0.00    -0.198 A  
HETATM   19  C   UNL     1     -10.443  13.534  67.954  1.00  0.00    -0.250 C  
HETATM   20  O   UNL     1     -10.227  14.582  67.359  1.00  0.00    -0.239 OA 
ENDBRANCH   8  10
ENDBRANCH   6   8
ENDBRANCH   3   6
TORSDOF 3
ENDMDL
MODEL       93
REMARK 921   NORMALIZED FREE ENERGY PREDICTED BY IDOCK:   -4.27 KCAL/MOL
REMARK 922        TOTAL FREE ENERGY PREDICTED BY IDOCK:   -5.50 KCAL/MOL
REMARK 923 INTER-LIGAND FREE ENERGY PREDICTED BY IDOCK:   -5.02 KCAL/MOL
REMARK 924 INTRA-LIGAND FREE ENERGY PREDICTED BY IDOCK:   -0.48 KCAL/MOL
REMARK 927      BINDING AFFINITY PREDICTED BY RF-SCORE:    0.00 PKD
ROOT
HETATM    1  N   UNL     1      -8.302  15.158  69.668  1.00  0.00    -0.407 N  
HETATM    2  H1  UNL     1      -9.171  14.667  69.877  1.00  0.00     0.000 HD 
HETATM    3  C   UNL     1      -8.243  16.228  68.837  1.00  0.00    -0.231 C  
HETATM    4  H2  UNL     1      -7.439  14.831  70.103  1.00  0.00     0.000 HD 
HETATM    5  O   UNL     1      -7.199  16.818  68.586  1.00  0.00    -0.183 OA 
ENDROOT
BRANCH   3   6
HETATM    6  N   UNL     1      -9.453  16.595  68.303  1.00  0.00    -0.224 N  
HETATM    7  H   UNL     1      -9.597  17.561  68.011  1.00  0.00     0.000 HD 
BRANCH   6   8
HETATM    8  N   UNL     1     -10.466  15.693  68.156  1.00  0.00    -0.253 NA 
HETATM    9  H   UNL     1     -11.148  15.570  68.904  1.00  0.00     0.000 HD 
BRANCH   8  10
HETATM   10  C   UNL     1     -10.566  14.990  67.069  1.00  0.00    -0.293 C  
HETATM   11  C   UNL     1     -10.905  15.470  65.701  1.00  0.00    -0.354 C  
HETATM   12  C   UNL     1     -10.937  14.634  64.657  1.00  0.00    -0.340 C  
HETATM   13  C   UNL     1     -10.648  13.207  64.778  1.00  0.00    -0.390 A  
HETATM   14  C   UNL     1     -10.679  12.386  63.643  1.00  0.00    -0.497 A  
HETATM   15  C   UNL     1     -10.409  11.019  63.750  1.00  0.00    -0.427 A  
HETATM   16  C   UNL     1     -10.105  10.458  64.989  1.00  0.00    -0.379 A  
HETATM   17  C   UNL     1     -10.071  11.265  66.125  1.00  0.00    -0.279 A  
HETATM   18  C   UNL     1     -10.341  12.636  66.015  1.00  0.00    -0.287 A  
HETATM   19  C   UNL     1     -10.302  13.489  67.219  1.00  0.00    -0.241 C  
HETATM   20  O   UNL     1     -10.058  13.009  68.319  1.00  0.00    -0.230 OA 
ENDBRANCH   8  10
ENDBRANCH   6   8
ENDBRANCH   3   6
TORSDOF 3
ENDMDL
MODEL       94
REMARK 921   NORMALIZED FREE ENERGY PREDICTED BY IDOCK:   -4.27 KCAL/MOL
REMARK 922        TOTAL FREE ENERGY PREDICTED BY IDOCK:   -5.49 KCAL/MOL
REMARK 923 INTER-LIGAND FREE ENERGY PREDICTED BY IDOCK:   -5.05 KCAL/MOL
REMARK 924 INTRA-LIGAND FREE ENERGY PREDICTED BY IDOCK:   -0.44 KCAL/MOL
REMARK 927      BINDING AFFINITY PREDICTED BY RF-SCORE:    0.00 PKD
ROOT
HETATM    1  N   UNL     1     -11.509  12.534  69.634  1.00  0.00    -0.456 N  
HETATM    2  H1  UNL     1     -11.387  12.694  70.635  1.00  0.00     0.000 HD 
HETATM    3  C   UNL     1     -11.820  11.321  69.117  1.00  0.00    -0.355 C  
HETATM    4  H2  UNL     1     -11.393  13.321  68.996  1.00  0.00     0.000 HD 
HETATM    5  O   UNL     1     -11.967  11.128  67.916  1.00  0.00    -0.624 OA 
ENDROOT
BRANCH   3   6
HETATM    6  N   UNL     1     -11.958  10.326  70.053  1.00  0.00    -0.426 N  
HETATM    7  H   UNL     1     -12.840   9.818  70.115  1.00  0.00     0.000 HD 
BRANCH   6   8
HETATM    8  N   UNL     1     -10.939  10.004  70.901  1.00  0.00    -0.324 NA 
HETATM    9  H   UNL     1     -10.337  10.739  71.272  1.00  0.00     0.000 HD 
BRANCH   8  10
HETATM   10  C   UNL     1     -10.732   8.768  71.238  1.00  0.00    -0.269 C  
HETATM   11  C   UNL     1     -10.769   8.177  72.605  1.00  0.00    -0.421 C  
HETATM   12  C   UNL     1     -10.570   6.869  72.805  1.00  0.00    -0.270 C  
HETATM   13  C   UNL     1     -10.303   5.935  71.714  1.00  0.00    -0.263 A  
HETATM   14  C   UNL     1     -10.123   4.572  71.986  1.00  0.00    -0.264 A  
HETATM   15  C   UNL     1      -9.862   3.672  70.949  1.00  0.00    -0.159 A  
HETATM   16  C   UNL     1      -9.779   4.121  69.633  1.00  0.00    -0.269 A  
HETATM   17  C   UNL     1      -9.958   5.475  69.350  1.00  0.00    -0.276 A  
HETATM   18  C   UNL     1     -10.220   6.376  70.391  1.00  0.00    -0.233 A  
HETATM   19  C   UNL     1     -10.411   7.807  70.090  1.00  0.00    -0.231 C  
HETATM   20  O   UNL     1     -10.320   8.223  68.941  1.00  0.00    -0.214 OA 
ENDBRANCH   8  10
ENDBRANCH   6   8
ENDBRANCH   3   6
TORSDOF 3
ENDMDL
MODEL       95
REMARK 921   NORMALIZED FREE ENERGY PREDICTED BY IDOCK:   -4.26 KCAL/MOL
REMARK 922        TOTAL FREE ENERGY PREDICTED BY IDOCK:   -5.48 KCAL/MOL
REMARK 923 INTER-LIGAND FREE ENERGY PREDICTED BY IDOCK:   -5.32 KCAL/MOL
REMARK 924 INTRA-LIGAND FREE ENERGY PREDICTED BY IDOCK:   -0.16 KCAL/MOL
REMARK 927      BINDING AFFINITY PREDICTED BY RF-SCORE:    0.00 PKD
ROOT
HETATM    1  N   UNL     1     -12.299  14.012  63.229  1.00  0.00    -1.145 N  
HETATM    2  H1  UNL     1     -11.586  14.617  63.637  1.00  0.00     0.000 HD 
HETATM    3  C   UNL     1     -12.318  12.669  63.414  1.00  0.00    -0.456 C  
HETATM    4  H2  UNL     1     -13.030  14.435  62.657  1.00  0.00     0.000 HD 
HETATM    5  O   UNL     1     -13.174  11.942  62.924  1.00  0.00    -0.358 OA 
ENDROOT
BRANCH   3   6
HETATM    6  N   UNL     1     -11.297  12.193  64.199  1.00  0.00    -0.353 N  
HETATM    7  H   UNL     1     -10.394  11.986  63.773  1.00  0.00     0.000 HD 
BRANCH   6   8
HETATM    8  N   UNL     1     -11.468  11.990  65.537  1.00  0.00    -0.338 NA 
HETATM    9  H   UNL     1     -12.214  12.478  66.033  1.00  0.00     0.000 HD 
BRANCH   8  10
HETATM   10  C   UNL     1     -10.686  11.180  66.184  1.00  0.00    -0.225 C  
HETATM   11  C   UNL     1      -9.451  10.514  65.685  1.00  0.00    -0.259 C  
HETATM   12  C   UNL     1      -8.715   9.726  66.477  1.00  0.00    -0.139 C  
HETATM   13  C   UNL     1      -9.063   9.462  67.871  1.00  0.00    -0.136 A  
HETATM   14  C   UNL     1      -8.241   8.643  68.657  1.00  0.00    -0.121 A  
HETATM   15  C   UNL     1      -8.568   8.381  69.990  1.00  0.00    -0.131 A  
HETATM   16  C   UNL     1      -9.718   8.933  70.553  1.00  0.00    -0.244 A  
HETATM   17  C   UNL     1     -10.543   9.750  69.781  1.00  0.00    -0.285 A  
HETATM   18  C   UNL     1     -10.212  10.012  68.445  1.00  0.00    -0.196 A  
HETATM   19  C   UNL     1     -11.085  10.879  67.631  1.00  0.00    -0.313 C  
HETATM   20  O   UNL     1     -12.111  11.355  68.102  1.00  0.00    -0.623 OA 
ENDBRANCH   8  10
ENDBRANCH   6   8
ENDBRANCH   3   6
TORSDOF 3
ENDMDL
MODEL       96
REMARK 921   NORMALIZED FREE ENERGY PREDICTED BY IDOCK:   -4.25 KCAL/MOL
REMARK 922        TOTAL FREE ENERGY PREDICTED BY IDOCK:   -5.48 KCAL/MOL
REMARK 923 INTER-LIGAND FREE ENERGY PREDICTED BY IDOCK:   -4.91 KCAL/MOL
REMARK 924 INTRA-LIGAND FREE ENERGY PREDICTED BY IDOCK:   -0.57 KCAL/MOL
REMARK 927      BINDING AFFINITY PREDICTED BY RF-SCORE:    0.00 PKD
ROOT
HETATM    1  N   UNL     1     -12.085   9.771  71.296  1.00  0.00    -0.353 N  
HETATM    2  H1  UNL     1     -11.114   9.622  71.018  1.00  0.00     0.000 HD 
HETATM    3  C   UNL     1     -12.719   8.988  72.202  1.00  0.00    -0.401 C  
HETATM    4  H2  UNL     1     -12.600  10.544  70.874  1.00  0.00     0.000 HD 
HETATM    5  O   UNL     1     -13.884   9.167  72.536  1.00  0.00    -0.475 OA 
ENDROOT
BRANCH   3   6
HETATM    6  N   UNL     1     -11.945   7.979  72.716  1.00  0.00    -0.608 N  
HETATM    7  H   UNL     1     -11.089   8.212  73.220  1.00  0.00     0.000 HD 
BRANCH   6   8
HETATM    8  N   UNL     1     -12.297   6.669  72.567  1.00  0.00    -0.503 NA 
HETATM    9  H   UNL     1     -13.227   6.358  72.850  1.00  0.00     0.000 HD 
BRANCH   8  10
HETATM   10  C   UNL     1     -11.455   5.815  72.067  1.00  0.00    -0.197 C  
HETATM   11  C   UNL     1     -10.755   4.706  72.772  1.00  0.00    -0.273 C  
HETATM   12  C   UNL     1      -9.936   3.873  72.121  1.00  0.00    -0.243 C  
HETATM   13  C   UNL     1      -9.668   3.988  70.690  1.00  0.00    -0.266 A  
HETATM   14  C   UNL     1      -8.814   3.072  70.059  1.00  0.00    -0.151 A  
HETATM   15  C   UNL     1      -8.548   3.177  68.692  1.00  0.00    -0.123 A  
HETATM   16  C   UNL     1      -9.130   4.196  67.939  1.00  0.00    -0.168 A  
HETATM   17  C   UNL     1      -9.981   5.112  68.554  1.00  0.00    -0.221 A  
HETATM   18  C   UNL     1     -10.248   5.004  69.926  1.00  0.00    -0.340 A  
HETATM   19  C   UNL     1     -11.151   5.974  70.575  1.00  0.00    -0.314 C  
HETATM   20  O   UNL     1     -11.654   6.888  69.934  1.00  0.00    -0.272 OA 
ENDBRANCH   8  10
ENDBRANCH   6   8
ENDBRANCH   3   6
TORSDOF 3
ENDMDL
MODEL       97
REMARK 921   NORMALIZED FREE ENERGY PREDICTED BY IDOCK:   -4.24 KCAL/MOL
REMARK 922        TOTAL FREE ENERGY PREDICTED BY IDOCK:   -5.46 KCAL/MOL
REMARK 923 INTER-LIGAND FREE ENERGY PREDICTED BY IDOCK:   -5.28 KCAL/MOL
REMARK 924 INTRA-LIGAND FREE ENERGY PREDICTED BY IDOCK:   -0.17 KCAL/MOL
REMARK 927      BINDING AFFINITY PREDICTED BY RF-SCORE:    0.00 PKD
ROOT
HETATM    1  N   UNL     1      -9.015  14.516  69.257  1.00  0.00    -0.396 N  
HETATM    2  H1  UNL     1      -8.790  13.897  70.037  1.00  0.00     0.000 HD 
HETATM    3  C   UNL     1     -10.275  14.937  68.992  1.00  0.00    -0.243 C  
HETATM    4  H2  UNL     1      -8.258  14.832  68.650  1.00  0.00     0.000 HD 
HETATM    5  O   UNL     1     -10.546  15.680  68.057  1.00  0.00    -0.256 OA 
ENDROOT
BRANCH   3   6
HETATM    6  N   UNL     1     -11.224  14.462  69.864  1.00  0.00    -0.404 N  
HETATM    7  H   UNL     1     -11.293  14.868  70.797  1.00  0.00     0.000 HD 
BRANCH   6   8
HETATM    8  N   UNL     1     -12.076  13.458  69.506  1.00  0.00    -0.304 NA 
HETATM    9  H   UNL     1     -13.009  13.684  69.160  1.00  0.00     0.000 HD 
BRANCH   8  10
HETATM   10  C   UNL     1     -11.706  12.217  69.604  1.00  0.00    -0.316 C  
HETATM   11  C   UNL     1     -10.753  11.479  68.730  1.00  0.00    -0.247 C  
HETATM   12  C   UNL     1     -10.432  10.202  68.970  1.00  0.00    -0.239 C  
HETATM   13  C   UNL     1     -10.986   9.446  70.090  1.00  0.00    -0.282 A  
HETATM   14  C   UNL     1     -10.597   8.116  70.301  1.00  0.00    -0.228 A  
HETATM   15  C   UNL     1     -11.125   7.384  71.367  1.00  0.00    -0.263 A  
HETATM   16  C   UNL     1     -12.047   7.969  72.232  1.00  0.00    -0.392 A  
HETATM   17  C   UNL     1     -12.442   9.291  72.034  1.00  0.00    -0.451 A  
HETATM   18  C   UNL     1     -11.910  10.024  70.964  1.00  0.00    -0.476 A  
HETATM   19  C   UNL     1     -12.327  11.424  70.757  1.00  0.00    -0.386 C  
HETATM   20  O   UNL     1     -13.152  11.948  71.495  1.00  0.00    -0.402 OA 
ENDBRANCH   8  10
ENDBRANCH   6   8
ENDBRANCH   3   6
TORSDOF 3
ENDMDL
MODEL       98
REMARK 921   NORMALIZED FREE ENERGY PREDICTED BY IDOCK:   -4.23 KCAL/MOL
REMARK 922        TOTAL FREE ENERGY PREDICTED BY IDOCK:   -5.46 KCAL/MOL
REMARK 923 INTER-LIGAND FREE ENERGY PREDICTED BY IDOCK:   -5.26 KCAL/MOL
REMARK 924 INTRA-LIGAND FREE ENERGY PREDICTED BY IDOCK:   -0.19 KCAL/MOL
REMARK 927      BINDING AFFINITY PREDICTED BY RF-SCORE:    0.00 PKD
ROOT
HETATM    1  N   UNL     1      -9.318  12.423  65.720  1.00  0.00    -0.440 N  
HETATM    2  H1  UNL     1      -9.158  11.440  65.943  1.00  0.00     0.000 HD 
HETATM    3  C   UNL     1     -10.543  12.999  65.772  1.00  0.00    -0.277 C  
HETATM    4  H2  UNL     1      -8.521  12.998  65.446  1.00  0.00     0.000 HD 
HETATM    5  O   UNL     1     -10.736  14.179  65.504  1.00  0.00    -0.298 OA 
ENDROOT
BRANCH   3   6
HETATM    6  N   UNL     1     -11.551  12.148  66.153  1.00  0.00    -0.375 N  
HETATM    7  H   UNL     1     -12.106  11.679  65.437  1.00  0.00     0.000 HD 
BRANCH   6   8
HETATM    8  N   UNL     1     -11.825  11.918  67.470  1.00  0.00    -0.597 NA 
HETATM    9  H   UNL     1     -12.347  12.610  68.008  1.00  0.00     0.000 HD 
BRANCH   8  10
HETATM   10  C   UNL     1     -11.425  10.823  68.042  1.00  0.00    -0.256 C  
HETATM   11  C   UNL     1     -10.758   9.654  67.406  1.00  0.00    -0.308 C  
HETATM   12  C   UNL     1     -10.363   8.598  68.127  1.00  0.00    -0.267 C  
HETATM   13  C   UNL     1     -10.556   8.514  69.573  1.00  0.00    -0.215 A  
HETATM   14  C   UNL     1     -10.103   7.390  70.277  1.00  0.00    -0.197 A  
HETATM   15  C   UNL     1     -10.287   7.298  71.659  1.00  0.00    -0.214 A  
HETATM   16  C   UNL     1     -10.925   8.325  72.353  1.00  0.00    -0.438 A  
HETATM   17  C   UNL     1     -11.379   9.448  71.663  1.00  0.00    -0.452 A  
HETATM   18  C   UNL     1     -11.192   9.539  70.277  1.00  0.00    -0.307 A  
HETATM   19  C   UNL     1     -11.671  10.730  69.550  1.00  0.00    -0.312 C  
HETATM   20  O   UNL     1     -12.253  11.632  70.140  1.00  0.00    -0.310 OA 
ENDBRANCH   8  10
ENDBRANCH   6   8
ENDBRANCH   3   6
TORSDOF 3
ENDMDL
MODEL       99
REMARK 921   NORMALIZED FREE ENERGY PREDICTED BY IDOCK:   -4.23 KCAL/MOL
REMARK 922        TOTAL FREE ENERGY PREDICTED BY IDOCK:   -5.45 KCAL/MOL
REMARK 923 INTER-LIGAND FREE ENERGY PREDICTED BY IDOCK:   -4.79 KCAL/MOL
REMARK 924 INTRA-LIGAND FREE ENERGY PREDICTED BY IDOCK:   -0.66 KCAL/MOL
REMARK 927      BINDING AFFINITY PREDICTED BY RF-SCORE:    0.00 PKD
ROOT
HETATM    1  N   UNL     1      -9.884  16.920  66.070  1.00  0.00    -0.282 N  
HETATM    2  H1  UNL     1      -9.466  16.503  66.902  1.00  0.00     0.000 HD 
HETATM    3  C   UNL     1     -10.779  16.266  65.289  1.00  0.00    -0.332 C  
HETATM    4  H2  UNL     1      -9.617  17.871  65.814  1.00  0.00     0.000 HD 
HETATM    5  O   UNL     1     -11.280  16.767  64.290  1.00  0.00    -1.163 OA 
ENDROOT
BRANCH   3   6
HETATM    6  N   UNL     1     -11.077  14.996  65.715  1.00  0.00    -0.346 N  
HETATM    7  H   UNL     1     -11.065  14.228  65.044  1.00  0.00     0.000 HD 
BRANCH   6   8
HETATM    8  N   UNL     1     -11.389  14.740  67.019  1.00  0.00    -0.347 NA 
HETATM    9  H   UNL     1     -11.910  15.430  67.560  1.00  0.00     0.000 HD 
BRANCH   8  10
HETATM   10  C   UNL     1     -11.026  13.624  67.574  1.00  0.00    -0.268 C  
HETATM   11  C   UNL     1     -11.900  12.574  68.165  1.00  0.00    -0.371 C  
HETATM   12  C   UNL     1     -11.390  11.447  68.675  1.00  0.00    -0.327 C  
HETATM   13  C   UNL     1      -9.956  11.167  68.692  1.00  0.00    -0.210 A  
HETATM   14  C   UNL     1      -9.483   9.959  69.223  1.00  0.00    -0.218 A  
HETATM   15  C   UNL     1      -8.114   9.684  69.248  1.00  0.00    -0.107 A  
HETATM   16  C   UNL     1      -7.202  10.610  68.745  1.00  0.00    -0.087 A  
HETATM   17  C   UNL     1      -7.660  11.815  68.213  1.00  0.00    -0.122 A  
HETATM   18  C   UNL     1      -9.035  12.088  68.188  1.00  0.00    -0.190 A  
HETATM   19  C   UNL     1      -9.518  13.362  67.623  1.00  0.00    -0.216 C  
HETATM   20  O   UNL     1      -8.730  14.197  67.196  1.00  0.00    -0.209 OA 
ENDBRANCH   8  10
ENDBRANCH   6   8
ENDBRANCH   3   6
TORSDOF 3
ENDMDL
MODEL      100
REMARK 921   NORMALIZED FREE ENERGY PREDICTED BY IDOCK:   -4.20 KCAL/MOL
REMARK 922        TOTAL FREE ENERGY PREDICTED BY IDOCK:   -5.41 KCAL/MOL
REMARK 923 INTER-LIGAND FREE ENERGY PREDICTED BY IDOCK:   -5.04 KCAL/MOL
REMARK 924 INTRA-LIGAND FREE ENERGY PREDICTED BY IDOCK:   -0.37 KCAL/MOL
REMARK 927      BINDING AFFINITY PREDICTED BY RF-SCORE:    0.00 PKD
ROOT
HETATM    1  N   UNL     1     -12.596  10.126  69.894  1.00  0.00    -0.519 N  
HETATM    2  H1  UNL     1     -13.243  10.748  69.408  1.00  0.00     0.000 HD 
HETATM    3  C   UNL     1     -11.251  10.209  69.757  1.00  0.00    -0.272 C  
HETATM    4  H2  UNL     1     -12.980   9.409  70.511  1.00  0.00     0.000 HD 
HETATM    5  O   UNL     1     -10.475   9.462  70.341  1.00  0.00    -0.217 OA 
ENDROOT
BRANCH   3   6
HETATM    6  N   UNL     1     -10.831  11.204  68.909  1.00  0.00    -0.203 N  
HETATM    7  H   UNL     1      -9.834  11.313  68.723  1.00  0.00     0.000 HD 
BRANCH   6   8
HETATM    8  N   UNL     1     -11.720  12.049  68.312  1.00  0.00    -0.344 NA 
HETATM    9  H   UNL     1     -12.524  11.668  67.812  1.00  0.00     0.000 HD 
BRANCH   8  10
HETATM   10  C   UNL     1     -11.550  13.334  68.377  1.00  0.00    -0.337 C  
HETATM   11  C   UNL     1     -12.147  14.285  69.355  1.00  0.00    -0.361 C  
HETATM   12  C   UNL     1     -11.853  15.590  69.328  1.00  0.00    -0.372 C  
HETATM   13  C   UNL     1     -10.939  16.173  68.349  1.00  0.00    -0.341 A  
HETATM   14  C   UNL     1     -10.656  17.546  68.383  1.00  0.00    -0.339 A  
HETATM   15  C   UNL     1      -9.786  18.114  67.449  1.00  0.00    -0.316 A  
HETATM   16  C   UNL     1      -9.191  17.319  66.470  1.00  0.00    -0.282 A  
HETATM   17  C   UNL     1      -9.465  15.953  66.426  1.00  0.00    -0.324 A  
HETATM   18  C   UNL     1     -10.336  15.385  67.366  1.00  0.00    -0.262 A  
HETATM   19  C   UNL     1     -10.622  13.939  67.319  1.00  0.00    -0.276 C  
HETATM   20  O   UNL     1     -10.125  13.230  66.453  1.00  0.00    -0.276 OA 
ENDBRANCH   8  10
ENDBRANCH   6   8
ENDBRANCH   3   6
TORSDOF 3
ENDMDL
MODEL      101
REMARK 921   NORMALIZED FREE ENERGY PREDICTED BY IDOCK:   -4.19 KCAL/MOL
REMARK 922        TOTAL FREE ENERGY PREDICTED BY IDOCK:   -5.41 KCAL/MOL
REMARK 923 INTER-LIGAND FREE ENERGY PREDICTED BY IDOCK:   -5.30 KCAL/MOL
REMARK 924 INTRA-LIGAND FREE ENERGY PREDICTED BY IDOCK:   -0.11 KCAL/MOL
REMARK 927      BINDING AFFINITY PREDICTED BY RF-SCORE:    0.00 PKD
ROOT
HETATM    1  N   UNL     1     -10.241   4.984  71.970  1.00  0.00    -0.196 N  
HETATM    2  H1  UNL     1      -9.476   5.585  71.660  1.00  0.00     0.000 HD 
HETATM    3  C   UNL     1     -11.102   5.339  72.955  1.00  0.00    -0.317 C  
HETATM    4  H2  UNL     1     -10.363   4.077  71.519  1.00  0.00     0.000 HD 
HETATM    5  O   UNL     1     -12.020   4.618  73.328  1.00  0.00    -0.185 OA 
ENDROOT
BRANCH   3   6
HETATM    6  N   UNL     1     -10.859   6.576  73.498  1.00  0.00    -0.464 N  
HETATM    7  H   UNL     1     -10.173   6.667  74.247  1.00  0.00     0.000 HD 
BRANCH   6   8
HETATM    8  N   UNL     1     -11.519   7.686  73.057  1.00  0.00    -0.609 NA 
HETATM    9  H   UNL     1     -12.416   7.941  73.471  1.00  0.00     0.000 HD 
BRANCH   8  10
HETATM   10  C   UNL     1     -11.012   8.418  72.112  1.00  0.00    -0.341 C  
HETATM   11  C   UNL     1      -9.666   8.296  71.487  1.00  0.00    -0.251 C  
HETATM   12  C   UNL     1      -9.285   9.102  70.489  1.00  0.00    -0.286 C  
HETATM   13  C   UNL     1     -10.147  10.149  69.947  1.00  0.00    -0.268 A  
HETATM   14  C   UNL     1      -9.698  10.949  68.887  1.00  0.00    -0.198 A  
HETATM   15  C   UNL     1     -10.513  11.957  68.365  1.00  0.00    -0.231 A  
HETATM   16  C   UNL     1     -11.784  12.176  68.894  1.00  0.00    -0.381 A  
HETATM   17  C   UNL     1     -12.242  11.386  69.948  1.00  0.00    -0.346 A  
HETATM   18  C   UNL     1     -11.423  10.376  70.469  1.00  0.00    -0.431 A  
HETATM   19  C   UNL     1     -11.910   9.539  71.582  1.00  0.00    -0.397 C  
HETATM   20  O   UNL     1     -13.015   9.732  72.073  1.00  0.00    -0.400 OA 
ENDBRANCH   8  10
ENDBRANCH   6   8
ENDBRANCH   3   6
TORSDOF 3
ENDMDL
MODEL      102
REMARK 921   NORMALIZED FREE ENERGY PREDICTED BY IDOCK:   -4.18 KCAL/MOL
REMARK 922        TOTAL FREE ENERGY PREDICTED BY IDOCK:   -5.40 KCAL/MOL
REMARK 923 INTER-LIGAND FREE ENERGY PREDICTED BY IDOCK:   -4.71 KCAL/MOL
REMARK 924 INTRA-LIGAND FREE ENERGY PREDICTED BY IDOCK:   -0.69 KCAL/MOL
REMARK 927      BINDING AFFINITY PREDICTED BY RF-SCORE:    0.00 PKD
ROOT
HETATM    1  N   UNL     1      -9.284   8.930  66.762  1.00  0.00    -0.151 N  
HETATM    2  H1  UNL     1      -8.973   9.854  67.065  1.00  0.00     0.000 HD 
HETATM    3  C   UNL     1     -10.493   8.415  67.095  1.00  0.00    -0.310 C  
HETATM    4  H2  UNL     1      -8.659   8.370  66.182  1.00  0.00     0.000 HD 
HETATM    5  O   UNL     1     -10.867   7.307  66.731  1.00  0.00    -0.311 OA 
ENDROOT
BRANCH   3   6
HETATM    6  N   UNL     1     -11.264   9.242  67.873  1.00  0.00    -0.444 N  
HETATM    7  H   UNL     1     -12.266   9.305  67.695  1.00  0.00     0.000 HD 
BRANCH   6   8
HETATM    8  N   UNL     1     -10.716   9.981  68.881  1.00  0.00    -0.211 NA 
HETATM    9  H   UNL     1     -10.030   9.557  69.506  1.00  0.00     0.000 HD 
BRANCH   8  10
HETATM   10  C   UNL     1     -11.062  11.221  69.049  1.00  0.00    -0.244 C  
HETATM   11  C   UNL     1     -11.930  11.788  70.119  1.00  0.00    -0.421 C  
HETATM   12  C   UNL     1     -12.176  13.101  70.194  1.00  0.00    -0.360 C  
HETATM   13  C   UNL     1     -11.623  14.064  69.245  1.00  0.00    -0.356 A  
HETATM   14  C   UNL     1     -11.902  15.430  69.388  1.00  0.00    -0.372 A  
HETATM   15  C   UNL     1     -11.381  16.358  68.482  1.00  0.00    -0.289 A  
HETATM   16  C   UNL     1     -10.578  15.933  67.426  1.00  0.00    -0.315 A  
HETATM   17  C   UNL     1     -10.292  14.577  67.274  1.00  0.00    -0.260 A  
HETATM   18  C   UNL     1     -10.815  13.648  68.184  1.00  0.00    -0.262 A  
HETATM   19  C   UNL     1     -10.510  12.214  68.023  1.00  0.00    -0.212 C  
HETATM   20  O   UNL     1      -9.823  11.821  67.088  1.00  0.00    -0.191 OA 
ENDBRANCH   8  10
ENDBRANCH   6   8
ENDBRANCH   3   6
TORSDOF 3
ENDMDL
MODEL      103
REMARK 921   NORMALIZED FREE ENERGY PREDICTED BY IDOCK:   -4.18 KCAL/MOL
REMARK 922        TOTAL FREE ENERGY PREDICTED BY IDOCK:   -5.40 KCAL/MOL
REMARK 923 INTER-LIGAND FREE ENERGY PREDICTED BY IDOCK:   -5.12 KCAL/MOL
REMARK 924 INTRA-LIGAND FREE ENERGY PREDICTED BY IDOCK:   -0.28 KCAL/MOL
REMARK 927      BINDING AFFINITY PREDICTED BY RF-SCORE:    0.00 PKD
ROOT
HETATM    1  N   UNL     1     -14.394  14.267  72.164  1.00  0.00    -0.535 N  
HETATM    2  H1  UNL     1     -15.061  14.063  71.419  1.00  0.00     0.000 HD 
HETATM    3  C   UNL     1     -13.373  15.145  72.018  1.00  0.00    -0.398 C  
HETATM    4  H2  UNL     1     -14.500  13.788  73.059  1.00  0.00     0.000 HD 
HETATM    5  O   UNL     1     -12.572  15.390  72.911  1.00  0.00    -0.347 OA 
ENDROOT
BRANCH   3   6
HETATM    6  N   UNL     1     -13.314  15.741  70.782  1.00  0.00    -0.751 N  
HETATM    7  H   UNL     1     -13.596  16.716  70.683  1.00  0.00     0.000 HD 
BRANCH   6   8
HETATM    8  N   UNL     1     -12.885  15.054  69.684  1.00  0.00    -0.519 NA 
HETATM    9  H   UNL     1     -13.563  14.580  69.086  1.00  0.00     0.000 HD 
BRANCH   8  10
HETATM   10  C   UNL     1     -11.621  15.000  69.396  1.00  0.00    -0.315 C  
HETATM   11  C   UNL     1     -10.561  15.983  69.754  1.00  0.00    -0.323 C  
HETATM   12  C   UNL     1      -9.281  15.781  69.421  1.00  0.00    -0.263 C  
HETATM   13  C   UNL     1      -8.832  14.599  68.690  1.00  0.00    -0.183 A  
HETATM   14  C   UNL     1      -7.474  14.434  68.387  1.00  0.00    -0.119 A  
HETATM   15  C   UNL     1      -7.036  13.309  67.683  1.00  0.00    -0.164 A  
HETATM   16  C   UNL     1      -7.948  12.338  67.275  1.00  0.00    -0.177 A  
HETATM   17  C   UNL     1      -9.302  12.490  67.571  1.00  0.00    -0.187 A  
HETATM   18  C   UNL     1      -9.738  13.618  68.277  1.00  0.00    -0.231 A  
HETATM   19  C   UNL     1     -11.171  13.776  68.592  1.00  0.00    -0.278 C  
HETATM   20  O   UNL     1     -11.989  12.943  68.223  1.00  0.00    -0.332 OA 
ENDBRANCH   8  10
ENDBRANCH   6   8
ENDBRANCH   3   6
TORSDOF 3
ENDMDL
MODEL      104
REMARK 921   NORMALIZED FREE ENERGY PREDICTED BY IDOCK:   -4.17 KCAL/MOL
REMARK 922        TOTAL FREE ENERGY PREDICTED BY IDOCK:   -5.38 KCAL/MOL
REMARK 923 INTER-LIGAND FREE ENERGY PREDICTED BY IDOCK:   -4.80 KCAL/MOL
REMARK 924 INTRA-LIGAND FREE ENERGY PREDICTED BY IDOCK:   -0.58 KCAL/MOL
REMARK 927      BINDING AFFINITY PREDICTED BY RF-SCORE:    0.00 PKD
ROOT
HETATM    1  N   UNL     1     -10.145  11.600  69.036  1.00  0.00    -0.403 N  
HETATM    2  H1  UNL     1      -9.722  11.125  69.834  1.00  0.00     0.000 HD 
HETATM    3  C   UNL     1     -11.255  11.139  68.410  1.00  0.00    -0.262 C  
HETATM    4  H2  UNL     1      -9.713  12.459  68.694  1.00  0.00     0.000 HD 
HETATM    5  O   UNL     1     -11.763  11.709  67.451  1.00  0.00    -0.556 OA 
ENDROOT
BRANCH   3   6
HETATM    6  N   UNL     1     -11.764   9.981  68.943  1.00  0.00    -0.488 N  
HETATM    7  H   UNL     1     -11.878   9.164  68.344  1.00  0.00     0.000 HD 
BRANCH   6   8
HETATM    8  N   UNL     1     -12.120   9.903  70.257  1.00  0.00    -0.464 NA 
HETATM    9  H   UNL     1     -12.486  10.727  70.734  1.00  0.00     0.000 HD 
BRANCH   8  10
HETATM   10  C   UNL     1     -11.996   8.784  70.906  1.00  0.00    -0.201 C  
HETATM   11  C   UNL     1     -13.035   7.742  71.133  1.00  0.00    -0.172 C  
HETATM   12  C   UNL     1     -12.756   6.612  71.793  1.00  0.00    -0.280 C  
HETATM   13  C   UNL     1     -11.432   6.320  72.335  1.00  0.00    -0.335 A  
HETATM   14  C   UNL     1     -11.196   5.110  73.000  1.00  0.00    -0.390 A  
HETATM   15  C   UNL     1      -9.934   4.823  73.526  1.00  0.00    -0.183 A  
HETATM   16  C   UNL     1      -8.893   5.741  73.393  1.00  0.00    -0.123 A  
HETATM   17  C   UNL     1      -9.115   6.949  72.732  1.00  0.00    -0.151 A  
HETATM   18  C   UNL     1     -10.382   7.233  72.205  1.00  0.00    -0.239 A  
HETATM   19  C   UNL     1     -10.613   8.510  71.504  1.00  0.00    -0.263 C  
HETATM   20  O   UNL     1      -9.717   9.337  71.397  1.00  0.00    -0.284 OA 
ENDBRANCH   8  10
ENDBRANCH   6   8
ENDBRANCH   3   6
TORSDOF 3
ENDMDL
MODEL      105
REMARK 921   NORMALIZED FREE ENERGY PREDICTED BY IDOCK:   -4.17 KCAL/MOL
REMARK 922        TOTAL FREE ENERGY PREDICTED BY IDOCK:   -5.38 KCAL/MOL
REMARK 923 INTER-LIGAND FREE ENERGY PREDICTED BY IDOCK:   -4.69 KCAL/MOL
REMARK 924 INTRA-LIGAND FREE ENERGY PREDICTED BY IDOCK:   -0.69 KCAL/MOL
REMARK 927      BINDING AFFINITY PREDICTED BY RF-SCORE:    0.00 PKD
ROOT
HETATM    1  N   UNL     1      -9.812   4.265  67.361  1.00  0.00    -0.164 N  
HETATM    2  H1  UNL     1      -9.838   4.856  68.193  1.00  0.00     0.000 HD 
HETATM    3  C   UNL     1     -10.175   4.708  66.133  1.00  0.00    -0.277 C  
HETATM    4  H2  UNL     1      -9.499   3.299  67.458  1.00  0.00     0.000 HD 
HETATM    5  O   UNL     1     -10.144   3.999  65.134  1.00  0.00    -0.202 OA 
ENDROOT
BRANCH   3   6
HETATM    6  N   UNL     1     -10.578   6.020  66.102  1.00  0.00    -0.459 N  
HETATM    7  H   UNL     1     -11.551   6.238  65.890  1.00  0.00     0.000 HD 
BRANCH   6   8
HETATM    8  N   UNL     1      -9.703   7.037  66.349  1.00  0.00    -0.376 NA 
HETATM    9  H   UNL     1      -8.727   6.945  66.068  1.00  0.00     0.000 HD 
BRANCH   8  10
HETATM   10  C   UNL     1     -10.105   8.120  66.942  1.00  0.00    -0.297 C  
HETATM   11  C   UNL     1     -10.240   9.482  66.357  1.00  0.00    -0.302 C  
HETATM   12  C   UNL     1     -10.706  10.508  67.078  1.00  0.00    -0.310 C  
HETATM   13  C   UNL     1     -11.109  10.372  68.475  1.00  0.00    -0.318 A  
HETATM   14  C   UNL     1     -11.608  11.480  69.174  1.00  0.00    -0.382 A  
HETATM   15  C   UNL     1     -11.992  11.361  70.512  1.00  0.00    -0.451 A  
HETATM   16  C   UNL     1     -11.882  10.136  71.167  1.00  0.00    -0.472 A  
HETATM   17  C   UNL     1     -11.388   9.026  70.483  1.00  0.00    -0.282 A  
HETATM   18  C   UNL     1     -11.005   9.148  69.141  1.00  0.00    -0.057 A  
HETATM   19  C   UNL     1     -10.485   7.971  68.418  1.00  0.00    -0.163 C  
HETATM   20  O   UNL     1     -10.362   6.893  68.984  1.00  0.00    -0.177 OA 
ENDBRANCH   8  10
ENDBRANCH   6   8
ENDBRANCH   3   6
TORSDOF 3
ENDMDL
MODEL      106
REMARK 921   NORMALIZED FREE ENERGY PREDICTED BY IDOCK:   -4.16 KCAL/MOL
REMARK 922        TOTAL FREE ENERGY PREDICTED BY IDOCK:   -5.37 KCAL/MOL
REMARK 923 INTER-LIGAND FREE ENERGY PREDICTED BY IDOCK:   -5.17 KCAL/MOL
REMARK 924 INTRA-LIGAND FREE ENERGY PREDICTED BY IDOCK:   -0.20 KCAL/MOL
REMARK 927      BINDING AFFINITY PREDICTED BY RF-SCORE:    0.00 PKD
ROOT
HETATM    1  N   UNL     1     -10.730  12.394  63.042  1.00  0.00    -0.568 N  
HETATM    2  H1  UNL     1     -10.224  11.674  63.558  1.00  0.00     0.000 HD 
HETATM    3  C   UNL     1     -11.992  12.775  63.355  1.00  0.00    -0.535 C  
HETATM    4  H2  UNL     1     -10.265  12.848  62.254  1.00  0.00     0.000 HD 
HETATM    5  O   UNL     1     -12.600  13.639  62.736  1.00  0.00    -0.456 OA 
ENDROOT
BRANCH   3   6
HETATM    6  N   UNL     1     -12.531  12.111  64.429  1.00  0.00    -0.369 N  
HETATM    7  H   UNL     1     -12.963  11.198  64.287  1.00  0.00     0.000 HD 
BRANCH   6   8
HETATM    8  N   UNL     1     -12.501  12.648  65.683  1.00  0.00    -0.620 NA 
HETATM    9  H   UNL     1     -13.352  13.036  66.089  1.00  0.00     0.000 HD 
BRANCH   8  10
HETATM   10  C   UNL     1     -11.394  12.668  66.362  1.00  0.00    -0.331 C  
HETATM   11  C   UNL     1     -10.816  11.578  67.195  1.00  0.00    -0.314 C  
HETATM   12  C   UNL     1      -9.640  11.723  67.816  1.00  0.00    -0.184 C  
HETATM   13  C   UNL     1      -8.846  12.946  67.727  1.00  0.00    -0.188 A  
HETATM   14  C   UNL     1      -7.611  13.031  68.385  1.00  0.00    -0.133 A  
HETATM   15  C   UNL     1      -6.847  14.198  68.309  1.00  0.00    -0.107 A  
HETATM   16  C   UNL     1      -7.306  15.292  67.578  1.00  0.00    -0.223 A  
HETATM   17  C   UNL     1      -8.533  15.220  66.919  1.00  0.00    -0.286 A  
HETATM   18  C   UNL     1      -9.297  14.047  66.995  1.00  0.00    -0.256 A  
HETATM   19  C   UNL     1     -10.593  13.971  66.294  1.00  0.00    -0.281 C  
HETATM   20  O   UNL     1     -11.022  14.930  65.665  1.00  0.00    -0.320 OA 
ENDBRANCH   8  10
ENDBRANCH   6   8
ENDBRANCH   3   6
TORSDOF 3
ENDMDL
MODEL      107
REMARK 921   NORMALIZED FREE ENERGY PREDICTED BY IDOCK:   -4.15 KCAL/MOL
REMARK 922        TOTAL FREE ENERGY PREDICTED BY IDOCK:   -5.36 KCAL/MOL
REMARK 923 INTER-LIGAND FREE ENERGY PREDICTED BY IDOCK:   -5.15 KCAL/MOL
REMARK 924 INTRA-LIGAND FREE ENERGY PREDICTED BY IDOCK:   -0.21 KCAL/MOL
REMARK 927      BINDING AFFINITY PREDICTED BY RF-SCORE:    0.00 PKD
ROOT
HETATM    1  N   UNL     1     -12.313  14.148  69.180  1.00  0.00    -0.520 N  
HETATM    2  H1  UNL     1     -12.758  14.037  68.269  1.00  0.00     0.000 HD 
HETATM    3  C   UNL     1     -11.525  15.206  69.490  1.00  0.00    -0.296 C  
HETATM    4  H2  UNL     1     -12.469  13.432  69.890  1.00  0.00     0.000 HD 
HETATM    5  O   UNL     1     -10.991  15.341  70.584  1.00  0.00    -0.307 OA 
ENDROOT
BRANCH   3   6
HETATM    6  N   UNL     1     -11.378  16.117  68.473  1.00  0.00    -0.373 N  
HETATM    7  H   UNL     1     -11.788  15.918  67.561  1.00  0.00     0.000 HD 
BRANCH   6   8
HETATM    8  N   UNL     1     -10.693  17.282  68.659  1.00  0.00    -0.320 NA 
HETATM    9  H   UNL     1     -10.993  17.936  69.383  1.00  0.00     0.000 HD 
BRANCH   8  10
HETATM   10  C   UNL     1      -9.663  17.564  67.920  1.00  0.00    -0.278 C  
HETATM   11  C   UNL     1      -8.974  16.678  66.941  1.00  0.00    -0.244 C  
HETATM   12  C   UNL     1      -7.939  17.114  66.214  1.00  0.00    -0.339 C  
HETATM   13  C   UNL     1      -7.412  18.472  66.326  1.00  0.00    -0.289 A  
HETATM   14  C   UNL     1      -6.337  18.876  65.523  1.00  0.00    -0.307 A  
HETATM   15  C   UNL     1      -5.823  20.172  65.626  1.00  0.00    -0.208 A  
HETATM   16  C   UNL     1      -6.376  21.076  66.531  1.00  0.00    -0.338 A  
HETATM   17  C   UNL     1      -7.446  20.686  67.334  1.00  0.00    -0.384 A  
HETATM   18  C   UNL     1      -7.961  19.387  67.228  1.00  0.00    -0.292 A  
HETATM   19  C   UNL     1      -9.095  18.977  68.078  1.00  0.00    -0.307 C  
HETATM   20  O   UNL     1      -9.580  19.752  68.893  1.00  0.00    -0.349 OA 
ENDBRANCH   8  10
ENDBRANCH   6   8
ENDBRANCH   3   6
TORSDOF 3
ENDMDL
MODEL      108
REMARK 921   NORMALIZED FREE ENERGY PREDICTED BY IDOCK:   -4.14 KCAL/MOL
REMARK 922        TOTAL FREE ENERGY PREDICTED BY IDOCK:   -5.35 KCAL/MOL
REMARK 923 INTER-LIGAND FREE ENERGY PREDICTED BY IDOCK:   -4.99 KCAL/MOL
REMARK 924 INTRA-LIGAND FREE ENERGY PREDICTED BY IDOCK:   -0.36 KCAL/MOL
REMARK 927      BINDING AFFINITY PREDICTED BY RF-SCORE:    0.00 PKD
ROOT
HETATM    1  N   UNL     1      -9.242  18.058  68.337  1.00  0.00    -0.288 N  
HETATM    2  H1  UNL     1      -8.748  17.428  68.971  1.00  0.00     0.000 HD 
HETATM    3  C   UNL     1      -9.955  17.619  67.272  1.00  0.00    -0.322 C  
HETATM    4  H2  UNL     1      -9.196  19.062  68.513  1.00  0.00     0.000 HD 
HETATM    5  O   UNL     1     -10.548  18.374  66.511  1.00  0.00    -0.378 OA 
ENDROOT
BRANCH   3   6
HETATM    6  N   UNL     1      -9.959  16.255  67.119  1.00  0.00    -0.251 N  
HETATM    7  H   UNL     1      -9.092  15.776  66.877  1.00  0.00     0.000 HD 
BRANCH   6   8
HETATM    8  N   UNL     1     -11.101  15.526  67.284  1.00  0.00    -0.304 NA 
HETATM    9  H   UNL     1     -12.008  15.993  67.264  1.00  0.00     0.000 HD 
BRANCH   8  10
HETATM   10  C   UNL     1     -11.040  14.242  67.468  1.00  0.00    -0.298 C  
HETATM   11  C   UNL     1     -11.503  13.468  68.652  1.00  0.00    -0.343 C  
HETATM   12  C   UNL     1     -11.412  12.133  68.693  1.00  0.00    -0.347 C  
HETATM   13  C   UNL     1     -10.857  11.347  67.594  1.00  0.00    -0.286 A  
HETATM   14  C   UNL     1     -10.806   9.949  67.687  1.00  0.00    -0.318 A  
HETATM   15  C   UNL     1     -10.272   9.188  66.644  1.00  0.00    -0.328 A  
HETATM   16  C   UNL     1      -9.785   9.813  65.497  1.00  0.00    -0.382 A  
HETATM   17  C   UNL     1      -9.831  11.203  65.392  1.00  0.00    -0.289 A  
HETATM   18  C   UNL     1     -10.367  11.963  66.440  1.00  0.00    -0.252 A  
HETATM   19  C   UNL     1     -10.418  13.434  66.326  1.00  0.00    -0.289 C  
HETATM   20  O   UNL     1      -9.974  14.001  65.335  1.00  0.00    -0.316 OA 
ENDBRANCH   8  10
ENDBRANCH   6   8
ENDBRANCH   3   6
TORSDOF 3
ENDMDL
MODEL      109
REMARK 921   NORMALIZED FREE ENERGY PREDICTED BY IDOCK:   -4.13 KCAL/MOL
REMARK 922        TOTAL FREE ENERGY PREDICTED BY IDOCK:   -5.33 KCAL/MOL
REMARK 923 INTER-LIGAND FREE ENERGY PREDICTED BY IDOCK:   -5.01 KCAL/MOL
REMARK 924 INTRA-LIGAND FREE ENERGY PREDICTED BY IDOCK:   -0.33 KCAL/MOL
REMARK 927      BINDING AFFINITY PREDICTED BY RF-SCORE:    0.00 PKD
ROOT
HETATM    1  N   UNL     1      -6.511  12.870  70.136  1.00  0.00    -0.367 N  
HETATM    2  H1  UNL     1      -7.066  12.816  70.991  1.00  0.00     0.000 HD 
HETATM    3  C   UNL     1      -6.599  13.905  69.266  1.00  0.00    -0.113 C  
HETATM    4  H2  UNL     1      -5.861  12.112  69.927  1.00  0.00     0.000 HD 
HETATM    5  O   UNL     1      -5.933  13.971  68.240  1.00  0.00    -0.097 OA 
ENDROOT
BRANCH   3   6
HETATM    6  N   UNL     1      -7.497  14.876  69.633  1.00  0.00    -0.315 N  
HETATM    7  H   UNL     1      -7.152  15.770  69.983  1.00  0.00     0.000 HD 
BRANCH   6   8
HETATM    8  N   UNL     1      -8.843  14.669  69.541  1.00  0.00    -0.405 NA 
HETATM    9  H   UNL     1      -9.375  14.411  70.372  1.00  0.00     0.000 HD 
BRANCH   8  10
HETATM   10  C   UNL     1      -9.450  14.798  68.400  1.00  0.00    -0.213 C  
HETATM   11  C   UNL     1      -9.411  15.963  67.474  1.00  0.00    -0.217 C  
HETATM   12  C   UNL     1     -10.061  15.946  66.304  1.00  0.00    -0.317 C  
HETATM   13  C   UNL     1     -10.848  14.801  65.855  1.00  0.00    -0.331 A  
HETATM   14  C   UNL     1     -11.491  14.836  64.610  1.00  0.00    -0.381 A  
HETATM   15  C   UNL     1     -12.250  13.747  64.174  1.00  0.00    -0.443 A  
HETATM   16  C   UNL     1     -12.377  12.613  64.975  1.00  0.00    -0.561 A  
HETATM   17  C   UNL     1     -11.742  12.566  66.215  1.00  0.00    -0.462 A  
HETATM   18  C   UNL     1     -10.980  13.659  66.650  1.00  0.00    -0.295 A  
HETATM   19  C   UNL     1     -10.306  13.607  67.961  1.00  0.00    -0.250 C  
HETATM   20  O   UNL     1     -10.424  12.628  68.687  1.00  0.00    -0.237 OA 
ENDBRANCH   8  10
ENDBRANCH   6   8
ENDBRANCH   3   6
TORSDOF 3
ENDMDL
MODEL      110
REMARK 921   NORMALIZED FREE ENERGY PREDICTED BY IDOCK:   -4.12 KCAL/MOL
REMARK 922        TOTAL FREE ENERGY PREDICTED BY IDOCK:   -5.33 KCAL/MOL
REMARK 923 INTER-LIGAND FREE ENERGY PREDICTED BY IDOCK:   -4.84 KCAL/MOL
REMARK 924 INTRA-LIGAND FREE ENERGY PREDICTED BY IDOCK:   -0.49 KCAL/MOL
REMARK 927      BINDING AFFINITY PREDICTED BY RF-SCORE:    0.00 PKD
ROOT
HETATM    1  N   UNL     1      -6.693  12.986  69.788  1.00  0.00    -0.345 N  
HETATM    2  H1  UNL     1      -6.812  12.507  70.681  1.00  0.00     0.000 HD 
HETATM    3  C   UNL     1      -7.048  12.432  68.603  1.00  0.00    -0.103 C  
HETATM    4  H2  UNL     1      -6.289  13.923  69.786  1.00  0.00     0.000 HD 
HETATM    5  O   UNL     1      -6.905  13.006  67.531  1.00  0.00    -0.146 OA 
ENDROOT
BRANCH   3   6
HETATM    6  N   UNL     1      -7.584  11.172  68.707  1.00  0.00    -0.122 N  
HETATM    7  H   UNL     1      -6.975  10.360  68.612  1.00  0.00     0.000 HD 
BRANCH   6   8
HETATM    8  N   UNL     1      -8.917  10.986  68.935  1.00  0.00    -0.296 NA 
HETATM    9  H   UNL     1      -9.221  10.429  69.735  1.00  0.00     0.000 HD 
BRANCH   8  10
HETATM   10  C   UNL     1      -9.799  11.512  68.141  1.00  0.00    -0.194 C  
HETATM   11  C   UNL     1     -10.795  12.572  68.459  1.00  0.00    -0.271 C  
HETATM   12  C   UNL     1     -11.626  13.051  67.526  1.00  0.00    -0.405 C  
HETATM   13  C   UNL     1     -11.621  12.575  66.145  1.00  0.00    -0.448 A  
HETATM   14  C   UNL     1     -12.504  13.129  65.208  1.00  0.00    -0.550 A  
HETATM   15  C   UNL     1     -12.509  12.678  63.886  1.00  0.00    -0.498 A  
HETATM   16  C   UNL     1     -11.636  11.668  63.485  1.00  0.00    -0.408 A  
HETATM   17  C   UNL     1     -10.752  11.109  64.408  1.00  0.00    -0.388 A  
HETATM   18  C   UNL     1     -10.748  11.565  65.733  1.00  0.00    -0.325 A  
HETATM   19  C   UNL     1      -9.811  10.974  66.707  1.00  0.00    -0.197 C  
HETATM   20  O   UNL     1      -9.051  10.072  66.378  1.00  0.00    -0.145 OA 
ENDBRANCH   8  10
ENDBRANCH   6   8
ENDBRANCH   3   6
TORSDOF 3
ENDMDL
MODEL      111
REMARK 921   NORMALIZED FREE ENERGY PREDICTED BY IDOCK:   -4.12 KCAL/MOL
REMARK 922        TOTAL FREE ENERGY PREDICTED BY IDOCK:   -5.32 KCAL/MOL
REMARK 923 INTER-LIGAND FREE ENERGY PREDICTED BY IDOCK:   -5.09 KCAL/MOL
REMARK 924 INTRA-LIGAND FREE ENERGY PREDICTED BY IDOCK:   -0.23 KCAL/MOL
REMARK 927      BINDING AFFINITY PREDICTED BY RF-SCORE:    0.00 PKD
ROOT
HETATM    1  N   UNL     1     -10.989   5.410  66.108  1.00  0.00    -0.767 N  
HETATM    2  H1  UNL     1     -11.928   5.467  65.713  1.00  0.00     0.000 HD 
HETATM    3  C   UNL     1     -10.469   6.371  66.910  1.00  0.00    -0.272 C  
HETATM    4  H2  UNL     1     -10.416   4.595  65.890  1.00  0.00     0.000 HD 
HETATM    5  O   UNL     1      -9.342   6.304  67.385  1.00  0.00    -0.116 OA 
ENDROOT
BRANCH   3   6
HETATM    6  N   UNL     1     -11.315   7.426  67.148  1.00  0.00    -0.301 N  
HETATM    7  H   UNL     1     -12.200   7.481  66.644  1.00  0.00     0.000 HD 
BRANCH   6   8
HETATM    8  N   UNL     1     -10.995   8.403  68.046  1.00  0.00    -0.464 NA 
HETATM    9  H   UNL     1     -10.937   8.179  69.040  1.00  0.00     0.000 HD 
BRANCH   8  10
HETATM   10  C   UNL     1     -10.764   9.615  67.642  1.00  0.00    -0.262 C  
HETATM   11  C   UNL     1     -10.030  10.045  66.420  1.00  0.00    -0.300 C  
HETATM   12  C   UNL     1      -9.898  11.338  66.104  1.00  0.00    -0.262 C  
HETATM   13  C   UNL     1     -10.453  12.412  66.924  1.00  0.00    -0.243 A  
HETATM   14  C   UNL     1     -10.297  13.748  66.531  1.00  0.00    -0.286 A  
HETATM   15  C   UNL     1     -10.821  14.782  67.312  1.00  0.00    -0.309 A  
HETATM   16  C   UNL     1     -11.504  14.494  68.492  1.00  0.00    -0.327 A  
HETATM   17  C   UNL     1     -11.666  13.169  68.893  1.00  0.00    -0.368 A  
HETATM   18  C   UNL     1     -11.141  12.134  68.108  1.00  0.00    -0.295 A  
HETATM   19  C   UNL     1     -11.315  10.731  68.534  1.00  0.00    -0.295 C  
HETATM   20  O   UNL     1     -11.894  10.461  69.579  1.00  0.00    -0.225 OA 
ENDBRANCH   8  10
ENDBRANCH   6   8
ENDBRANCH   3   6
TORSDOF 3
ENDMDL
MODEL      112
REMARK 921   NORMALIZED FREE ENERGY PREDICTED BY IDOCK:   -4.10 KCAL/MOL
REMARK 922        TOTAL FREE ENERGY PREDICTED BY IDOCK:   -5.30 KCAL/MOL
REMARK 923 INTER-LIGAND FREE ENERGY PREDICTED BY IDOCK:   -4.74 KCAL/MOL
REMARK 924 INTRA-LIGAND FREE ENERGY PREDICTED BY IDOCK:   -0.56 KCAL/MOL
REMARK 927      BINDING AFFINITY PREDICTED BY RF-SCORE:    0.00 PKD
ROOT
HETATM    1  N   UNL     1      -9.284  14.798  67.805  1.00  0.00    -0.191 N  
HETATM    2  H1  UNL     1      -9.115  13.902  68.264  1.00  0.00     0.000 HD 
HETATM    3  C   UNL     1      -9.520  14.910  66.476  1.00  0.00    -0.283 C  
HETATM    4  H2  UNL     1      -9.275  15.646  68.372  1.00  0.00     0.000 HD 
HETATM    5  O   UNL     1      -9.723  15.985  65.924  1.00  0.00    -0.310 OA 
ENDROOT
BRANCH   3   6
HETATM    6  N   UNL     1      -9.515  13.715  65.799  1.00  0.00    -0.506 N  
HETATM    7  H   UNL     1      -8.680  13.435  65.286  1.00  0.00     0.000 HD 
BRANCH   6   8
HETATM    8  N   UNL     1     -10.607  12.896  65.799  1.00  0.00    -0.271 NA 
HETATM    9  H   UNL     1     -11.458  13.186  65.316  1.00  0.00     0.000 HD 
BRANCH   8  10
HETATM   10  C   UNL     1     -10.568  11.751  66.410  1.00  0.00    -0.255 C  
HETATM   11  C   UNL     1     -10.120  10.441  65.862  1.00  0.00    -0.326 C  
HETATM   12  C   UNL     1     -10.098   9.339  66.621  1.00  0.00    -0.341 C  
HETATM   13  C   UNL     1     -10.508   9.337  68.023  1.00  0.00    -0.275 A  
HETATM   14  C   UNL     1     -10.445   8.154  68.771  1.00  0.00    -0.198 A  
HETATM   15  C   UNL     1     -10.839   8.141  70.112  1.00  0.00    -0.241 A  
HETATM   16  C   UNL     1     -11.302   9.308  70.718  1.00  0.00    -0.349 A  
HETATM   17  C   UNL     1     -11.369  10.491  69.984  1.00  0.00    -0.392 A  
HETATM   18  C   UNL     1     -10.971  10.501  68.641  1.00  0.00    -0.294 A  
HETATM   19  C   UNL     1     -11.041  11.755  67.866  1.00  0.00    -0.245 C  
HETATM   20  O   UNL     1     -11.465  12.784  68.377  1.00  0.00    -0.265 OA 
ENDBRANCH   8  10
ENDBRANCH   6   8
ENDBRANCH   3   6
TORSDOF 3
ENDMDL
MODEL      113
REMARK 921   NORMALIZED FREE ENERGY PREDICTED BY IDOCK:   -4.10 KCAL/MOL
REMARK 922        TOTAL FREE ENERGY PREDICTED BY IDOCK:   -5.30 KCAL/MOL
REMARK 923 INTER-LIGAND FREE ENERGY PREDICTED BY IDOCK:   -4.99 KCAL/MOL
REMARK 924 INTRA-LIGAND FREE ENERGY PREDICTED BY IDOCK:   -0.32 KCAL/MOL
REMARK 927      BINDING AFFINITY PREDICTED BY RF-SCORE:    0.00 PKD
ROOT
HETATM    1  N   UNL     1      -8.466   6.846  63.339  1.00  0.00    -0.329 N  
HETATM    2  H1  UNL     1      -9.146   6.550  64.040  1.00  0.00     0.000 HD 
HETATM    3  C   UNL     1      -7.821   8.037  63.397  1.00  0.00    -0.147 C  
HETATM    4  H2  UNL     1      -8.263   6.219  62.561  1.00  0.00     0.000 HD 
HETATM    5  O   UNL     1      -7.005   8.393  62.555  1.00  0.00    -0.090 OA 
ENDROOT
BRANCH   3   6
HETATM    6  N   UNL     1      -8.158   8.810  64.480  1.00  0.00    -0.148 N  
HETATM    7  H   UNL     1      -7.500   9.512  64.817  1.00  0.00     0.000 HD 
BRANCH   6   8
HETATM    8  N   UNL     1      -9.356   8.656  65.115  1.00  0.00    -0.408 NA 
HETATM    9  H   UNL     1      -9.779   7.730  65.183  1.00  0.00     0.000 HD 
BRANCH   8  10
HETATM   10  C   UNL     1      -9.961   9.682  65.633  1.00  0.00    -0.251 C  
HETATM   11  C   UNL     1     -10.512   9.816  67.009  1.00  0.00    -0.295 C  
HETATM   12  C   UNL     1     -11.082  10.953  67.425  1.00  0.00    -0.373 C  
HETATM   13  C   UNL     1     -11.207  12.132  66.571  1.00  0.00    -0.378 A  
HETATM   14  C   UNL     1     -11.797  13.301  67.070  1.00  0.00    -0.442 A  
HETATM   15  C   UNL     1     -11.925  14.432  66.259  1.00  0.00    -0.391 A  
HETATM   16  C   UNL     1     -11.467  14.408  64.943  1.00  0.00    -0.386 A  
HETATM   17  C   UNL     1     -10.877  13.251  64.436  1.00  0.00    -0.422 A  
HETATM   18  C   UNL     1     -10.749  12.118  65.251  1.00  0.00    -0.328 A  
HETATM   19  C   UNL     1     -10.122  10.896  64.713  1.00  0.00    -0.321 C  
HETATM   20  O   UNL     1      -9.733  10.850  63.553  1.00  0.00    -0.277 OA 
ENDBRANCH   8  10
ENDBRANCH   6   8
ENDBRANCH   3   6
TORSDOF 3
ENDMDL
MODEL      114
REMARK 921   NORMALIZED FREE ENERGY PREDICTED BY IDOCK:   -4.10 KCAL/MOL
REMARK 922        TOTAL FREE ENERGY PREDICTED BY IDOCK:   -5.30 KCAL/MOL
REMARK 923 INTER-LIGAND FREE ENERGY PREDICTED BY IDOCK:   -5.10 KCAL/MOL
REMARK 924 INTRA-LIGAND FREE ENERGY PREDICTED BY IDOCK:   -0.20 KCAL/MOL
REMARK 927      BINDING AFFINITY PREDICTED BY RF-SCORE:    0.00 PKD
ROOT
HETATM    1  N   UNL     1     -11.020   7.453  71.374  1.00  0.00    -0.234 N  
HETATM    2  H1  UNL     1     -10.018   7.490  71.184  1.00  0.00     0.000 HD 
HETATM    3  C   UNL     1     -11.793   8.561  71.471  1.00  0.00    -0.299 C  
HETATM    4  H2  UNL     1     -11.460   6.540  71.495  1.00  0.00     0.000 HD 
HETATM    5  O   UNL     1     -12.996   8.516  71.698  1.00  0.00    -0.328 OA 
ENDROOT
BRANCH   3   6
HETATM    6  N   UNL     1     -11.113   9.740  71.290  1.00  0.00    -0.350 N  
HETATM    7  H   UNL     1     -10.130   9.796  71.554  1.00  0.00     0.000 HD 
BRANCH   6   8
HETATM    8  N   UNL     1     -11.728  10.839  70.764  1.00  0.00    -0.328 NA 
HETATM    9  H   UNL     1     -12.346  11.403  71.348  1.00  0.00     0.000 HD 
BRANCH   8  10
HETATM   10  C   UNL     1     -11.530  11.171  69.524  1.00  0.00    -0.303 C  
HETATM   11  C   UNL     1     -11.253  10.269  68.372  1.00  0.00    -0.284 C  
HETATM   12  C   UNL     1     -11.106  10.748  67.131  1.00  0.00    -0.297 C  
HETATM   13  C   UNL     1     -11.202  12.171  66.817  1.00  0.00    -0.375 A  
HETATM   14  C   UNL     1     -11.058  12.609  65.494  1.00  0.00    -0.329 A  
HETATM   15  C   UNL     1     -11.144  13.969  65.185  1.00  0.00    -0.341 A  
HETATM   16  C   UNL     1     -11.374  14.905  66.191  1.00  0.00    -0.307 A  
HETATM   17  C   UNL     1     -11.521  14.481  67.511  1.00  0.00    -0.375 A  
HETATM   18  C   UNL     1     -11.435  13.117  67.819  1.00  0.00    -0.352 A  
HETATM   19  C   UNL     1     -11.593  12.670  69.216  1.00  0.00    -0.318 C  
HETATM   20  O   UNL     1     -11.775  13.480  70.116  1.00  0.00    -0.278 OA 
ENDBRANCH   8  10
ENDBRANCH   6   8
ENDBRANCH   3   6
TORSDOF 3
ENDMDL
MODEL      115
REMARK 921   NORMALIZED FREE ENERGY PREDICTED BY IDOCK:   -4.09 KCAL/MOL
REMARK 922        TOTAL FREE ENERGY PREDICTED BY IDOCK:   -5.29 KCAL/MOL
REMARK 923 INTER-LIGAND FREE ENERGY PREDICTED BY IDOCK:   -4.83 KCAL/MOL
REMARK 924 INTRA-LIGAND FREE ENERGY PREDICTED BY IDOCK:   -0.46 KCAL/MOL
REMARK 927      BINDING AFFINITY PREDICTED BY RF-SCORE:    0.00 PKD
ROOT
HETATM    1  N   UNL     1     -12.610  14.666  63.671  1.00  0.00    -0.980 N  
HETATM    2  H1  UNL     1     -11.959  15.384  63.351  1.00  0.00     0.000 HD 
HETATM    3  C   UNL     1     -12.256  13.681  64.531  1.00  0.00    -0.401 C  
HETATM    4  H2  UNL     1     -13.571  14.691  63.328  1.00  0.00     0.000 HD 
HETATM    5  O   UNL     1     -13.038  12.820  64.915  1.00  0.00    -0.833 OA 
ENDROOT
BRANCH   3   6
HETATM    6  N   UNL     1     -10.946  13.732  64.939  1.00  0.00    -0.354 N  
HETATM    7  H   UNL     1     -10.224  13.312  64.354  1.00  0.00     0.000 HD 
BRANCH   6   8
HETATM    8  N   UNL     1     -10.591  14.335  66.110  1.00  0.00    -0.288 NA 
HETATM    9  H   UNL     1     -11.096  15.162  66.429  1.00  0.00     0.000 HD 
BRANCH   8  10
HETATM   10  C   UNL     1      -9.613  13.861  66.822  1.00  0.00    -0.283 C  
HETATM   11  C   UNL     1      -8.303  14.505  67.113  1.00  0.00    -0.226 C  
HETATM   12  C   UNL     1      -7.394  13.915  67.899  1.00  0.00    -0.157 C  
HETATM   13  C   UNL     1      -7.616  12.612  68.520  1.00  0.00    -0.121 A  
HETATM   14  C   UNL     1      -6.634  12.053  69.350  1.00  0.00    -0.100 A  
HETATM   15  C   UNL     1      -6.836  10.805  69.945  1.00  0.00    -0.146 A  
HETATM   16  C   UNL     1      -8.017  10.102  69.719  1.00  0.00    -0.172 A  
HETATM   17  C   UNL     1      -9.002  10.647  68.896  1.00  0.00    -0.172 A  
HETATM   18  C   UNL     1      -8.798  11.900  68.301  1.00  0.00    -0.174 A  
HETATM   19  C   UNL     1      -9.843  12.476  67.433  1.00  0.00    -0.201 C  
HETATM   20  O   UNL     1     -10.878  11.863  67.207  1.00  0.00    -0.226 OA 
ENDBRANCH   8  10
ENDBRANCH   6   8
ENDBRANCH   3   6
TORSDOF 3
ENDMDL
MODEL      116
REMARK 921   NORMALIZED FREE ENERGY PREDICTED BY IDOCK:   -4.09 KCAL/MOL
REMARK 922        TOTAL FREE ENERGY PREDICTED BY IDOCK:   -5.29 KCAL/MOL
REMARK 923 INTER-LIGAND FREE ENERGY PREDICTED BY IDOCK:   -4.89 KCAL/MOL
REMARK 924 INTRA-LIGAND FREE ENERGY PREDICTED BY IDOCK:   -0.40 KCAL/MOL
REMARK 927      BINDING AFFINITY PREDICTED BY RF-SCORE:    0.00 PKD
ROOT
HETATM    1  N   UNL     1     -14.005   9.674  72.390  1.00  0.00    -0.536 N  
HETATM    2  H1  UNL     1     -13.493  10.285  73.026  1.00  0.00     0.000 HD 
HETATM    3  C   UNL     1     -13.643   8.389  72.153  1.00  0.00    -0.323 C  
HETATM    4  H2  UNL     1     -14.827  10.044  71.912  1.00  0.00     0.000 HD 
HETATM    5  O   UNL     1     -14.258   7.654  71.390  1.00  0.00    -0.419 OA 
ENDROOT
BRANCH   3   6
HETATM    6  N   UNL     1     -12.529   7.981  72.844  1.00  0.00    -0.543 N  
HETATM    7  H   UNL     1     -12.636   7.343  73.632  1.00  0.00     0.000 HD 
BRANCH   6   8
HETATM    8  N   UNL     1     -11.282   8.412  72.496  1.00  0.00    -0.368 NA 
HETATM    9  H   UNL     1     -10.607   8.651  73.223  1.00  0.00     0.000 HD 
BRANCH   8  10
HETATM   10  C   UNL     1     -10.949   8.519  71.245  1.00  0.00    -0.256 C  
HETATM   11  C   UNL     1     -10.615   9.761  70.495  1.00  0.00    -0.376 C  
HETATM   12  C   UNL     1     -10.250   9.721  69.208  1.00  0.00    -0.216 C  
HETATM   13  C   UNL     1     -10.156   8.474  68.452  1.00  0.00    -0.221 A  
HETATM   14  C   UNL     1      -9.750   8.495  67.111  1.00  0.00    -0.251 A  
HETATM   15  C   UNL     1      -9.661   7.308  66.379  1.00  0.00    -0.169 A  
HETATM   16  C   UNL     1      -9.977   6.090  66.976  1.00  0.00    -0.197 A  
HETATM   17  C   UNL     1     -10.382   6.056  68.310  1.00  0.00    -0.252 A  
HETATM   18  C   UNL     1     -10.469   7.247  69.042  1.00  0.00    -0.219 A  
HETATM   19  C   UNL     1     -10.895   7.209  70.454  1.00  0.00    -0.246 C  
HETATM   20  O   UNL     1     -11.197   6.150  70.989  1.00  0.00    -0.296 OA 
ENDBRANCH   8  10
ENDBRANCH   6   8
ENDBRANCH   3   6
TORSDOF 3
ENDMDL
MODEL      117
REMARK 921   NORMALIZED FREE ENERGY PREDICTED BY IDOCK:   -4.07 KCAL/MOL
REMARK 922        TOTAL FREE ENERGY PREDICTED BY IDOCK:   -5.26 KCAL/MOL
REMARK 923 INTER-LIGAND FREE ENERGY PREDICTED BY IDOCK:   -4.77 KCAL/MOL
REMARK 924 INTRA-LIGAND FREE ENERGY PREDICTED BY IDOCK:   -0.49 KCAL/MOL
REMARK 927      BINDING AFFINITY PREDICTED BY RF-SCORE:    0.00 PKD
ROOT
HETATM    1  N   UNL     1      -9.480  15.033  67.698  1.00  0.00    -0.194 N  
HETATM    2  H1  UNL     1      -8.998  14.572  68.470  1.00  0.00     0.000 HD 
HETATM    3  C   UNL     1      -9.619  14.467  66.474  1.00  0.00    -0.293 C  
HETATM    4  H2  UNL     1      -9.874  15.961  67.853  1.00  0.00     0.000 HD 
HETATM    5  O   UNL     1     -10.198  15.020  65.547  1.00  0.00    -0.324 OA 
ENDROOT
BRANCH   3   6
HETATM    6  N   UNL     1      -9.059  13.219  66.363  1.00  0.00    -0.452 N  
HETATM    7  H   UNL     1      -8.045  13.130  66.299  1.00  0.00     0.000 HD 
BRANCH   6   8
HETATM    8  N   UNL     1      -9.832  12.094  66.335  1.00  0.00    -0.221 NA 
HETATM    9  H   UNL     1     -10.051  11.652  65.442  1.00  0.00     0.000 HD 
BRANCH   8  10
HETATM   10  C   UNL     1     -10.290  11.585  67.438  1.00  0.00    -0.207 C  
HETATM   11  C   UNL     1     -11.687  11.632  67.951  1.00  0.00    -0.329 C  
HETATM   12  C   UNL     1     -12.030  11.027  69.095  1.00  0.00    -0.394 C  
HETATM   13  C   UNL     1     -11.073  10.289  69.915  1.00  0.00    -0.362 A  
HETATM   14  C   UNL     1     -11.497   9.660  71.094  1.00  0.00    -0.456 A  
HETATM   15  C   UNL     1     -10.588   8.955  71.888  1.00  0.00    -0.419 A  
HETATM   16  C   UNL     1      -9.248   8.871  71.514  1.00  0.00    -0.322 A  
HETATM   17  C   UNL     1      -8.815   9.491  70.343  1.00  0.00    -0.279 A  
HETATM   18  C   UNL     1      -9.728  10.196  69.549  1.00  0.00    -0.251 A  
HETATM   19  C   UNL     1      -9.268  10.850  68.308  1.00  0.00    -0.161 C  
HETATM   20  O   UNL     1      -8.090  10.803  67.976  1.00  0.00    -0.109 OA 
ENDBRANCH   8  10
ENDBRANCH   6   8
ENDBRANCH   3   6
TORSDOF 3
ENDMDL
MODEL      118
REMARK 921   NORMALIZED FREE ENERGY PREDICTED BY IDOCK:   -4.07 KCAL/MOL
REMARK 922        TOTAL FREE ENERGY PREDICTED BY IDOCK:   -5.26 KCAL/MOL
REMARK 923 INTER-LIGAND FREE ENERGY PREDICTED BY IDOCK:   -4.87 KCAL/MOL
REMARK 924 INTRA-LIGAND FREE ENERGY PREDICTED BY IDOCK:   -0.40 KCAL/MOL
REMARK 927      BINDING AFFINITY PREDICTED BY RF-SCORE:    0.00 PKD
ROOT
HETATM    1  N   UNL     1     -10.182  11.770  69.003  1.00  0.00    -0.408 N  
HETATM    2  H1  UNL     1      -9.310  11.756  69.534  1.00  0.00     0.000 HD 
HETATM    3  C   UNL     1     -10.669  12.892  68.420  1.00  0.00    -0.255 C  
HETATM    4  H2  UNL     1     -10.709  10.903  68.907  1.00  0.00     0.000 HD 
HETATM    5  O   UNL     1     -11.715  12.910  67.783  1.00  0.00    -0.330 OA 
ENDROOT
BRANCH   3   6
HETATM    6  N   UNL     1      -9.889  14.007  68.602  1.00  0.00    -0.299 N  
HETATM    7  H   UNL     1      -8.904  13.977  68.340  1.00  0.00     0.000 HD 
BRANCH   6   8
HETATM    8  N   UNL     1     -10.406  15.156  69.127  1.00  0.00    -0.240 NA 
HETATM    9  H   UNL     1     -11.033  15.109  69.931  1.00  0.00     0.000 HD 
BRANCH   8  10
HETATM   10  C   UNL     1     -10.105  16.308  68.610  1.00  0.00    -0.233 C  
HETATM   11  C   UNL     1     -10.990  17.216  67.830  1.00  0.00    -0.180 C  
HETATM   12  C   UNL     1     -10.555  18.401  67.384  1.00  0.00    -0.445 C  
HETATM   13  C   UNL     1      -9.198  18.885  67.623  1.00  0.00    -0.318 A  
HETATM   14  C   UNL     1      -8.807  20.143  67.147  1.00  0.00    -0.446 A  
HETATM   15  C   UNL     1      -7.509  20.613  67.368  1.00  0.00    -0.384 A  
HETATM   16  C   UNL     1      -6.589  19.832  68.064  1.00  0.00    -0.284 A  
HETATM   17  C   UNL     1      -6.966  18.578  68.543  1.00  0.00    -0.284 A  
HETATM   18  C   UNL     1      -8.268  18.110  68.322  1.00  0.00    -0.300 A  
HETATM   19  C   UNL     1      -8.667  16.784  68.833  1.00  0.00    -0.224 C  
HETATM   20  O   UNL     1      -7.865  16.076  69.428  1.00  0.00    -0.238 OA 
ENDBRANCH   8  10
ENDBRANCH   6   8
ENDBRANCH   3   6
TORSDOF 3
ENDMDL
MODEL      119
REMARK 921   NORMALIZED FREE ENERGY PREDICTED BY IDOCK:   -4.06 KCAL/MOL
REMARK 922        TOTAL FREE ENERGY PREDICTED BY IDOCK:   -5.25 KCAL/MOL
REMARK 923 INTER-LIGAND FREE ENERGY PREDICTED BY IDOCK:   -4.87 KCAL/MOL
REMARK 924 INTRA-LIGAND FREE ENERGY PREDICTED BY IDOCK:   -0.38 KCAL/MOL
REMARK 927      BINDING AFFINITY PREDICTED BY RF-SCORE:    0.00 PKD
ROOT
HETATM    1  N   UNL     1     -12.968  12.880  64.885  1.00  0.00    -0.726 N  
HETATM    2  H1  UNL     1     -12.770  12.243  65.657  1.00  0.00     0.000 HD 
HETATM    3  C   UNL     1     -12.232  13.992  64.642  1.00  0.00    -0.435 C  
HETATM    4  H2  UNL     1     -13.753  12.672  64.268  1.00  0.00     0.000 HD 
HETATM    5  O   UNL     1     -12.468  14.758  63.715  1.00  0.00    -0.782 OA 
ENDROOT
BRANCH   3   6
HETATM    6  N   UNL     1     -11.196  14.187  65.522  1.00  0.00    -0.310 N  
HETATM    7  H   UNL     1     -11.304  13.893  66.493  1.00  0.00     0.000 HD 
BRANCH   6   8
HETATM    8  N   UNL     1     -10.027  14.765  65.124  1.00  0.00    -0.449 NA 
HETATM    9  H   UNL     1      -9.749  14.724  64.143  1.00  0.00     0.000 HD 
BRANCH   8  10
HETATM   10  C   UNL     1      -9.265  15.367  65.986  1.00  0.00    -0.298 C  
HETATM   11  C   UNL     1      -9.008  16.828  66.112  1.00  0.00    -0.295 C  
HETATM   12  C   UNL     1      -8.222  17.318  67.079  1.00  0.00    -0.233 C  
HETATM   13  C   UNL     1      -7.565  16.468  68.067  1.00  0.00    -0.166 A  
HETATM   14  C   UNL     1      -6.768  17.041  69.068  1.00  0.00    -0.221 A  
HETATM   15  C   UNL     1      -6.132  16.236  70.016  1.00  0.00    -0.146 A  
HETATM   16  C   UNL     1      -6.281  14.851  69.975  1.00  0.00    -0.156 A  
HETATM   17  C   UNL     1      -7.071  14.268  68.985  1.00  0.00    -0.116 A  
HETATM   18  C   UNL     1      -7.710  15.078  68.036  1.00  0.00    -0.129 A  
HETATM   19  C   UNL     1      -8.548  14.460  66.991  1.00  0.00    -0.203 C  
HETATM   20  O   UNL     1      -8.673  13.244  66.927  1.00  0.00    -0.207 OA 
ENDBRANCH   8  10
ENDBRANCH   6   8
ENDBRANCH   3   6
TORSDOF 3
ENDMDL
MODEL      120
REMARK 921   NORMALIZED FREE ENERGY PREDICTED BY IDOCK:   -4.05 KCAL/MOL
REMARK 922        TOTAL FREE ENERGY PREDICTED BY IDOCK:   -5.24 KCAL/MOL
REMARK 923 INTER-LIGAND FREE ENERGY PREDICTED BY IDOCK:   -4.73 KCAL/MOL
REMARK 924 INTRA-LIGAND FREE ENERGY PREDICTED BY IDOCK:   -0.51 KCAL/MOL
REMARK 927      BINDING AFFINITY PREDICTED BY RF-SCORE:    0.00 PKD
ROOT
HETATM    1  N   UNL     1     -11.415   5.097  73.539  1.00  0.00    -0.455 N  
HETATM    2  H1  UNL     1     -11.651   5.612  74.388  1.00  0.00     0.000 HD 
HETATM    3  C   UNL     1     -10.403   5.462  72.714  1.00  0.00    -0.195 C  
HETATM    4  H2  UNL     1     -11.964   4.271  73.300  1.00  0.00     0.000 HD 
HETATM    5  O   UNL     1     -10.120   4.845  71.695  1.00  0.00    -0.185 OA 
ENDROOT
BRANCH   3   6
HETATM    6  N   UNL     1      -9.721   6.583  73.119  1.00  0.00    -0.154 N  
HETATM    7  H   UNL     1      -8.709   6.539  73.229  1.00  0.00     0.000 HD 
BRANCH   6   8
HETATM    8  N   UNL     1     -10.372   7.754  73.378  1.00  0.00    -0.308 NA 
HETATM    9  H   UNL     1     -10.496   8.062  74.343  1.00  0.00     0.000 HD 
BRANCH   8  10
HETATM   10  C   UNL     1     -10.834   8.477  72.404  1.00  0.00    -0.308 C  
HETATM   11  C   UNL     1     -12.241   8.907  72.175  1.00  0.00    -0.437 C  
HETATM   12  C   UNL     1     -12.573   9.689  71.141  1.00  0.00    -0.411 C  
HETATM   13  C   UNL     1     -11.594  10.172  70.171  1.00  0.00    -0.350 A  
HETATM   14  C   UNL     1     -12.000  11.005  69.120  1.00  0.00    -0.394 A  
HETATM   15  C   UNL     1     -11.071  11.469  68.184  1.00  0.00    -0.303 A  
HETATM   16  C   UNL     1      -9.730  11.106  68.287  1.00  0.00    -0.190 A  
HETATM   17  C   UNL     1      -9.313  10.278  69.330  1.00  0.00    -0.221 A  
HETATM   18  C   UNL     1     -10.246   9.816  70.267  1.00  0.00    -0.346 A  
HETATM   19  C   UNL     1      -9.804   8.942  71.371  1.00  0.00    -0.306 C  
HETATM   20  O   UNL     1      -8.633   8.596  71.465  1.00  0.00    -0.167 OA 
ENDBRANCH   8  10
ENDBRANCH   6   8
ENDBRANCH   3   6
TORSDOF 3
ENDMDL
MODEL      121
REMARK 921   NORMALIZED FREE ENERGY PREDICTED BY IDOCK:   -4.05 KCAL/MOL
REMARK 922        TOTAL FREE ENERGY PREDICTED BY IDOCK:   -5.24 KCAL/MOL
REMARK 923 INTER-LIGAND FREE ENERGY PREDICTED BY IDOCK:   -4.98 KCAL/MOL
REMARK 924 INTRA-LIGAND FREE ENERGY PREDICTED BY IDOCK:   -0.26 KCAL/MOL
REMARK 927      BINDING AFFINITY PREDICTED BY RF-SCORE:    0.00 PKD
ROOT
HETATM    1  N   UNL     1      -9.197  19.310  67.417  1.00  0.00    -0.296 N  
HETATM    2  H1  UNL     1      -9.903  19.810  66.875  1.00  0.00     0.000 HD 
HETATM    3  C   UNL     1      -9.407  18.078  67.941  1.00  0.00    -0.264 C  
HETATM    4  H2  UNL     1      -8.293  19.758  67.572  1.00  0.00     0.000 HD 
HETATM    5  O   UNL     1      -8.560  17.478  68.592  1.00  0.00    -0.279 OA 
ENDROOT
BRANCH   3   6
HETATM    6  N   UNL     1     -10.650  17.558  67.677  1.00  0.00    -0.370 N  
HETATM    7  H   UNL     1     -11.397  17.679  68.360  1.00  0.00     0.000 HD 
BRANCH   6   8
HETATM    8  N   UNL     1     -10.904  16.880  66.520  1.00  0.00    -0.063 NA 
HETATM    9  H   UNL     1     -11.151  17.396  65.675  1.00  0.00     0.000 HD 
BRANCH   8  10
HETATM   10  C   UNL     1     -10.834  15.584  66.489  1.00  0.00    -0.284 C  
HETATM   11  C   UNL     1     -10.225  14.730  65.433  1.00  0.00    -0.415 C  
HETATM   12  C   UNL     1     -10.190  13.397  65.548  1.00  0.00    -0.300 C  
HETATM   13  C   UNL     1     -10.740  12.690  66.701  1.00  0.00    -0.275 A  
HETATM   14  C   UNL     1     -10.656  11.292  66.774  1.00  0.00    -0.305 A  
HETATM   15  C   UNL     1     -11.184  10.606  67.871  1.00  0.00    -0.376 A  
HETATM   16  C   UNL     1     -11.801  11.306  68.906  1.00  0.00    -0.413 A  
HETATM   17  C   UNL     1     -11.890  12.697  68.845  1.00  0.00    -0.345 A  
HETATM   18  C   UNL     1     -11.359  13.382  67.745  1.00  0.00    -0.325 A  
HETATM   19  C   UNL     1     -11.452  14.854  67.684  1.00  0.00    -0.352 C  
HETATM   20  O   UNL     1     -12.010  15.483  68.574  1.00  0.00    -0.319 OA 
ENDBRANCH   8  10
ENDBRANCH   6   8
ENDBRANCH   3   6
TORSDOF 3
ENDMDL
MODEL      122
REMARK 921   NORMALIZED FREE ENERGY PREDICTED BY IDOCK:   -4.05 KCAL/MOL
REMARK 922        TOTAL FREE ENERGY PREDICTED BY IDOCK:   -5.24 KCAL/MOL
REMARK 923 INTER-LIGAND FREE ENERGY PREDICTED BY IDOCK:   -4.94 KCAL/MOL
REMARK 924 INTRA-LIGAND FREE ENERGY PREDICTED BY IDOCK:   -0.30 KCAL/MOL
REMARK 927      BINDING AFFINITY PREDICTED BY RF-SCORE:    0.00 PKD
ROOT
HETATM    1  N   UNL     1      -9.344   9.574  68.015  1.00  0.00    -0.133 N  
HETATM    2  H1  UNL     1      -8.970  10.436  68.414  1.00  0.00     0.000 HD 
HETATM    3  C   UNL     1     -10.659   9.249  68.066  1.00  0.00    -0.208 C  
HETATM    4  H2  UNL     1      -8.700   8.928  67.558  1.00  0.00     0.000 HD 
HETATM    5  O   UNL     1     -11.108   8.215  67.587  1.00  0.00     0.028 OA 
ENDROOT
BRANCH   3   6
HETATM    6  N   UNL     1     -11.446  10.180  68.697  1.00  0.00    -0.505 N  
HETATM    7  H   UNL     1     -11.421  10.249  69.714  1.00  0.00     0.000 HD 
BRANCH   6   8
HETATM    8  N   UNL     1     -12.262  11.015  67.990  1.00  0.00    -0.563 NA 
HETATM    9  H   UNL     1     -13.270  10.860  67.991  1.00  0.00     0.000 HD 
BRANCH   8  10
HETATM   10  C   UNL     1     -11.762  12.006  67.316  1.00  0.00    -0.269 C  
HETATM   11  C   UNL     1     -11.214  11.982  65.932  1.00  0.00    -0.385 C  
HETATM   12  C   UNL     1     -10.761  13.094  65.341  1.00  0.00    -0.308 C  
HETATM   13  C   UNL     1     -10.768  14.397  66.002  1.00  0.00    -0.302 A  
HETATM   14  C   UNL     1     -10.297  15.530  65.324  1.00  0.00    -0.416 A  
HETATM   15  C   UNL     1     -10.295  16.780  65.949  1.00  0.00    -0.341 A  
HETATM   16  C   UNL     1     -10.761  16.912  67.256  1.00  0.00    -0.208 A  
HETATM   17  C   UNL     1     -11.232  15.792  67.941  1.00  0.00    -0.313 A  
HETATM   18  C   UNL     1     -11.234  14.540  67.311  1.00  0.00    -0.341 A  
HETATM   19  C   UNL     1     -11.736  13.357  68.036  1.00  0.00    -0.356 C  
HETATM   20  O   UNL     1     -12.129  13.451  69.192  1.00  0.00    -0.317 OA 
ENDBRANCH   8  10
ENDBRANCH   6   8
ENDBRANCH   3   6
TORSDOF 3
ENDMDL
MODEL      123
REMARK 921   NORMALIZED FREE ENERGY PREDICTED BY IDOCK:   -4.04 KCAL/MOL
REMARK 922        TOTAL FREE ENERGY PREDICTED BY IDOCK:   -5.23 KCAL/MOL
REMARK 923 INTER-LIGAND FREE ENERGY PREDICTED BY IDOCK:   -5.19 KCAL/MOL
REMARK 924 INTRA-LIGAND FREE ENERGY PREDICTED BY IDOCK:   -0.04 KCAL/MOL
REMARK 927      BINDING AFFINITY PREDICTED BY RF-SCORE:    0.00 PKD
ROOT
HETATM    1  N   UNL     1      -7.052  10.959  65.276  1.00  0.00    -0.361 N  
HETATM    2  H1  UNL     1      -6.959  11.536  64.440  1.00  0.00     0.000 HD 
HETATM    3  C   UNL     1      -8.087  11.079  66.143  1.00  0.00    -0.141 C  
HETATM    4  H2  UNL     1      -6.334  10.260  65.469  1.00  0.00     0.000 HD 
HETATM    5  O   UNL     1      -8.199  10.386  67.147  1.00  0.00    -0.120 OA 
ENDROOT
BRANCH   3   6
HETATM    6  N   UNL     1      -9.002  12.042  65.798  1.00  0.00    -0.423 N  
HETATM    7  H   UNL     1      -8.684  12.888  65.327  1.00  0.00     0.000 HD 
BRANCH   6   8
HETATM    8  N   UNL     1     -10.330  11.890  66.075  1.00  0.00    -0.225 NA 
HETATM    9  H   UNL     1     -10.952  11.490  65.371  1.00  0.00     0.000 HD 
BRANCH   8  10
HETATM   10  C   UNL     1     -10.806  12.251  67.227  1.00  0.00    -0.245 C  
HETATM   11  C   UNL     1     -10.942  13.634  67.764  1.00  0.00    -0.276 C  
HETATM   12  C   UNL     1     -11.489  13.865  68.963  1.00  0.00    -0.341 C  
HETATM   13  C   UNL     1     -11.986  12.795  69.824  1.00  0.00    -0.362 A  
HETATM   14  C   UNL     1     -12.567  13.103  71.062  1.00  0.00    -0.397 A  
HETATM   15  C   UNL     1     -13.041  12.086  71.895  1.00  0.00    -0.475 A  
HETATM   16  C   UNL     1     -12.940  10.752  71.502  1.00  0.00    -0.562 A  
HETATM   17  C   UNL     1     -12.365  10.434  70.272  1.00  0.00    -0.327 A  
HETATM   18  C   UNL     1     -11.891  11.456  69.439  1.00  0.00    -0.419 A  
HETATM   19  C   UNL     1     -11.285  11.117  68.137  1.00  0.00    -0.292 C  
HETATM   20  O   UNL     1     -11.169   9.950  67.785  1.00  0.00    -0.225 OA 
ENDBRANCH   8  10
ENDBRANCH   6   8
ENDBRANCH   3   6
TORSDOF 3
ENDMDL
MODEL      124
REMARK 921   NORMALIZED FREE ENERGY PREDICTED BY IDOCK:   -4.03 KCAL/MOL
REMARK 922        TOTAL FREE ENERGY PREDICTED BY IDOCK:   -5.22 KCAL/MOL
REMARK 923 INTER-LIGAND FREE ENERGY PREDICTED BY IDOCK:   -4.57 KCAL/MOL
REMARK 924 INTRA-LIGAND FREE ENERGY PREDICTED BY IDOCK:   -0.65 KCAL/MOL
REMARK 927      BINDING AFFINITY PREDICTED BY RF-SCORE:    0.00 PKD
ROOT
HETATM    1  N   UNL     1     -10.167   9.405  66.516  1.00  0.00    -0.256 N  
HETATM    2  H1  UNL     1      -9.749   8.572  66.932  1.00  0.00     0.000 HD 
HETATM    3  C   UNL     1     -10.678  10.419  67.256  1.00  0.00    -0.273 C  
HETATM    4  H2  UNL     1     -10.203   9.478  65.499  1.00  0.00     0.000 HD 
HETATM    5  O   UNL     1     -11.181  11.419  66.758  1.00  0.00    -0.305 OA 
ENDROOT
BRANCH   3   6
HETATM    6  N   UNL     1     -10.582  10.232  68.613  1.00  0.00    -0.196 N  
HETATM    7  H   UNL     1      -9.701  10.434  69.084  1.00  0.00     0.000 HD 
BRANCH   6   8
HETATM    8  N   UNL     1     -11.643   9.780  69.342  1.00  0.00    -0.449 NA 
HETATM    9  H   UNL     1     -12.586  10.099  69.117  1.00  0.00     0.000 HD 
BRANCH   8  10
HETATM   10  C   UNL     1     -11.459   8.948  70.322  1.00  0.00    -0.105 C  
HETATM   11  C   UNL     1     -11.735   9.167  71.768  1.00  0.00    -0.456 C  
HETATM   12  C   UNL     1     -11.532   8.201  72.672  1.00  0.00    -0.454 C  
HETATM   13  C   UNL     1     -11.029   6.878  72.313  1.00  0.00    -0.275 A  
HETATM   14  C   UNL     1     -10.854   5.901  73.302  1.00  0.00    -0.291 A  
HETATM   15  C   UNL     1     -10.369   4.633  72.969  1.00  0.00    -0.236 A  
HETATM   16  C   UNL     1     -10.053   4.328  71.647  1.00  0.00    -0.216 A  
HETATM   17  C   UNL     1     -10.223   5.291  70.653  1.00  0.00    -0.327 A  
HETATM   18  C   UNL     1     -10.710   6.561  70.990  1.00  0.00    -0.289 A  
HETATM   19  C   UNL     1     -10.892   7.579  69.937  1.00  0.00    -0.240 C  
HETATM   20  O   UNL     1     -10.599   7.334  68.773  1.00  0.00    -0.204 OA 
ENDBRANCH   8  10
ENDBRANCH   6   8
ENDBRANCH   3   6
TORSDOF 3
ENDMDL
MODEL      125
REMARK 921   NORMALIZED FREE ENERGY PREDICTED BY IDOCK:   -4.03 KCAL/MOL
REMARK 922        TOTAL FREE ENERGY PREDICTED BY IDOCK:   -5.22 KCAL/MOL
REMARK 923 INTER-LIGAND FREE ENERGY PREDICTED BY IDOCK:   -5.05 KCAL/MOL
REMARK 924 INTRA-LIGAND FREE ENERGY PREDICTED BY IDOCK:   -0.17 KCAL/MOL
REMARK 927      BINDING AFFINITY PREDICTED BY RF-SCORE:    0.00 PKD
ROOT
HETATM    1  N   UNL     1      -9.602  20.447  66.000  1.00  0.00    -0.668 N  
HETATM    2  H1  UNL     1     -10.511  20.008  65.846  1.00  0.00     0.000 HD 
HETATM    3  C   UNL     1      -8.458  19.736  66.151  1.00  0.00    -0.341 C  
HETATM    4  H2  UNL     1      -9.552  21.465  66.041  1.00  0.00     0.000 HD 
HETATM    5  O   UNL     1      -7.367  20.262  66.336  1.00  0.00    -0.272 OA 
ENDROOT
BRANCH   3   6
HETATM    6  N   UNL     1      -8.626  18.375  66.078  1.00  0.00    -0.099 N  
HETATM    7  H   UNL     1      -7.814  17.780  65.915  1.00  0.00     0.000 HD 
BRANCH   6   8
HETATM    8  N   UNL     1      -9.856  17.804  66.220  1.00  0.00    -0.422 NA 
HETATM    9  H   UNL     1     -10.500  17.782  65.428  1.00  0.00     0.000 HD 
BRANCH   8  10
HETATM   10  C   UNL     1     -10.214  17.288  67.357  1.00  0.00    -0.325 C  
HETATM   11  C   UNL     1     -10.185  17.931  68.699  1.00  0.00    -0.387 C  
HETATM   12  C   UNL     1     -10.621  17.290  69.790  1.00  0.00     0.208 C  
HETATM   13  C   UNL     1     -11.148  15.928  69.747  1.00  0.00    -0.324 A  
HETATM   14  C   UNL     1     -11.608  15.316  70.921  1.00  0.00    -0.382 A  
HETATM   15  C   UNL     1     -12.110  14.012  70.890  1.00  0.00    -0.404 A  
HETATM   16  C   UNL     1     -12.158  13.306  69.690  1.00  0.00    -0.331 A  
HETATM   17  C   UNL     1     -11.704  13.905  68.515  1.00  0.00    -0.390 A  
HETATM   18  C   UNL     1     -11.202  15.213  68.548  1.00  0.00    -0.301 A  
HETATM   19  C   UNL     1     -10.725  15.845  67.303  1.00  0.00    -0.306 C  
HETATM   20  O   UNL     1     -10.740  15.232  66.243  1.00  0.00    -0.305 OA 
ENDBRANCH   8  10
ENDBRANCH   6   8
ENDBRANCH   3   6
TORSDOF 3
ENDMDL
MODEL      126
REMARK 921   NORMALIZED FREE ENERGY PREDICTED BY IDOCK:   -4.03 KCAL/MOL
REMARK 922        TOTAL FREE ENERGY PREDICTED BY IDOCK:   -5.22 KCAL/MOL
REMARK 923 INTER-LIGAND FREE ENERGY PREDICTED BY IDOCK:   -5.01 KCAL/MOL
REMARK 924 INTRA-LIGAND FREE ENERGY PREDICTED BY IDOCK:   -0.21 KCAL/MOL
REMARK 927      BINDING AFFINITY PREDICTED BY RF-SCORE:    0.00 PKD
ROOT
HETATM    1  N   UNL     1     -12.194  14.532  63.585  1.00  0.00    -1.062 N  
HETATM    2  H1  UNL     1     -11.561  14.951  62.903  1.00  0.00     0.000 HD 
HETATM    3  C   UNL     1     -12.003  14.628  64.923  1.00  0.00    -0.400 C  
HETATM    4  H2  UNL     1     -13.008  14.018  63.245  1.00  0.00     0.000 HD 
HETATM    5  O   UNL     1     -12.763  14.126  65.742  1.00  0.00    -0.508 OA 
ENDROOT
BRANCH   3   6
HETATM    6  N   UNL     1     -10.885  15.339  65.283  1.00  0.00    -0.377 N  
HETATM    7  H   UNL     1     -10.463  15.981  64.612  1.00  0.00     0.000 HD 
BRANCH   6   8
HETATM    8  N   UNL     1     -10.328  15.204  66.521  1.00  0.00    -0.275 NA 
HETATM    9  H   UNL     1     -10.255  14.279  66.946  1.00  0.00     0.000 HD 
BRANCH   8  10
HETATM   10  C   UNL     1      -9.890  16.246  67.162  1.00  0.00    -0.243 C  
HETATM   11  C   UNL     1     -10.651  17.469  67.540  1.00  0.00    -0.333 C  
HETATM   12  C   UNL     1     -10.079  18.458  68.237  1.00  0.00    -0.410 C  
HETATM   13  C   UNL     1      -8.686  18.414  68.672  1.00  0.00    -0.306 A  
HETATM   14  C   UNL     1      -8.149  19.472  69.417  1.00  0.00     0.044 A  
HETATM   15  C   UNL     1      -6.815  19.442  69.834  1.00  0.00    -0.094 A  
HETATM   16  C   UNL     1      -6.004  18.355  69.511  1.00  0.00    -0.257 A  
HETATM   17  C   UNL     1      -6.527  17.295  68.771  1.00  0.00    -0.194 A  
HETATM   18  C   UNL     1      -7.864  17.328  68.356  1.00  0.00    -0.254 A  
HETATM   19  C   UNL     1      -8.416  16.205  67.575  1.00  0.00    -0.162 C  
HETATM   20  O   UNL     1      -7.712  15.252  67.264  1.00  0.00    -0.181 OA 
ENDBRANCH   8  10
ENDBRANCH   6   8
ENDBRANCH   3   6
TORSDOF 3
ENDMDL
MODEL      127
REMARK 921   NORMALIZED FREE ENERGY PREDICTED BY IDOCK:   -4.02 KCAL/MOL
REMARK 922        TOTAL FREE ENERGY PREDICTED BY IDOCK:   -5.21 KCAL/MOL
REMARK 923 INTER-LIGAND FREE ENERGY PREDICTED BY IDOCK:   -4.85 KCAL/MOL
REMARK 924 INTRA-LIGAND FREE ENERGY PREDICTED BY IDOCK:   -0.36 KCAL/MOL
REMARK 927      BINDING AFFINITY PREDICTED BY RF-SCORE:    0.00 PKD
ROOT
HETATM    1  N   UNL     1     -11.483  12.501  69.555  1.00  0.00    -0.418 N  
HETATM    2  H1  UNL     1     -11.302  12.535  70.559  1.00  0.00     0.000 HD 
HETATM    3  C   UNL     1     -11.903  11.380  68.920  1.00  0.00    -0.347 C  
HETATM    4  H2  UNL     1     -11.341  13.349  69.005  1.00  0.00     0.000 HD 
HETATM    5  O   UNL     1     -12.119  11.339  67.715  1.00  0.00    -0.631 OA 
ENDROOT
BRANCH   3   6
HETATM    6  N   UNL     1     -12.068  10.294  69.743  1.00  0.00    -0.490 N  
HETATM    7  H   UNL     1     -12.751   9.579  69.496  1.00  0.00     0.000 HD 
BRANCH   6   8
HETATM    8  N   UNL     1     -11.335  10.152  70.885  1.00  0.00    -0.348 NA 
HETATM    9  H   UNL     1     -11.289  10.919  71.557  1.00  0.00     0.000 HD 
BRANCH   8  10
HETATM   10  C   UNL     1     -10.695   9.047  71.122  1.00  0.00    -0.288 C  
HETATM   11  C   UNL     1      -9.282   8.721  70.784  1.00  0.00    -0.242 C  
HETATM   12  C   UNL     1      -8.737   7.547  71.123  1.00  0.00    -0.136 C  
HETATM   13  C   UNL     1      -9.476   6.511  71.839  1.00  0.00    -0.153 A  
HETATM   14  C   UNL     1      -8.844   5.308  72.183  1.00  0.00    -0.135 A  
HETATM   15  C   UNL     1      -9.544   4.309  72.864  1.00  0.00    -0.159 A  
HETATM   16  C   UNL     1     -10.882   4.498  73.207  1.00  0.00    -0.346 A  
HETATM   17  C   UNL     1     -11.522   5.690  72.870  1.00  0.00    -0.297 A  
HETATM   18  C   UNL     1     -10.817   6.691  72.189  1.00  0.00    -0.259 A  
HETATM   19  C   UNL     1     -11.495   7.953  71.836  1.00  0.00    -0.280 C  
HETATM   20  O   UNL     1     -12.675   8.128  72.110  1.00  0.00    -0.323 OA 
ENDBRANCH   8  10
ENDBRANCH   6   8
ENDBRANCH   3   6
TORSDOF 3
ENDMDL
MODEL      128
REMARK 921   NORMALIZED FREE ENERGY PREDICTED BY IDOCK:   -4.02 KCAL/MOL
REMARK 922        TOTAL FREE ENERGY PREDICTED BY IDOCK:   -5.21 KCAL/MOL
REMARK 923 INTER-LIGAND FREE ENERGY PREDICTED BY IDOCK:   -4.83 KCAL/MOL
REMARK 924 INTRA-LIGAND FREE ENERGY PREDICTED BY IDOCK:   -0.38 KCAL/MOL
REMARK 927      BINDING AFFINITY PREDICTED BY RF-SCORE:    0.00 PKD
ROOT
HETATM    1  N   UNL     1     -11.184   9.788  71.365  1.00  0.00    -0.352 N  
HETATM    2  H1  UNL     1     -10.346   9.210  71.435  1.00  0.00     0.000 HD 
HETATM    3  C   UNL     1     -12.363   9.448  71.941  1.00  0.00    -0.375 C  
HETATM    4  H2  UNL     1     -11.132  10.661  70.840  1.00  0.00     0.000 HD 
HETATM    5  O   UNL     1     -13.369  10.142  71.858  1.00  0.00    -0.416 OA 
ENDROOT
BRANCH   3   6
HETATM    6  N   UNL     1     -12.334   8.260  72.627  1.00  0.00    -0.592 N  
HETATM    7  H   UNL     1     -12.019   8.251  73.597  1.00  0.00     0.000 HD 
BRANCH   6   8
HETATM    8  N   UNL     1     -12.716   7.090  72.037  1.00  0.00    -0.519 NA 
HETATM    9  H   UNL     1     -13.681   6.771  72.124  1.00  0.00     0.000 HD 
BRANCH   8  10
HETATM   10  C   UNL     1     -11.860   6.383  71.366  1.00  0.00    -0.281 C  
HETATM   11  C   UNL     1     -11.586   6.430  69.903  1.00  0.00    -0.422 C  
HETATM   12  C   UNL     1     -10.641   5.664  69.345  1.00  0.00    -0.374 C  
HETATM   13  C   UNL     1      -9.821   4.734  70.117  1.00  0.00    -0.308 A  
HETATM   14  C   UNL     1      -8.834   3.972  69.478  1.00  0.00    -0.143 A  
HETATM   15  C   UNL     1      -8.047   3.076  70.207  1.00  0.00    -0.056 A  
HETATM   16  C   UNL     1      -8.237   2.932  71.580  1.00  0.00    -0.064 A  
HETATM   17  C   UNL     1      -9.216   3.685  72.227  1.00  0.00    -0.164 A  
HETATM   18  C   UNL     1     -10.003   4.584  71.494  1.00  0.00    -0.259 A  
HETATM   19  C   UNL     1     -11.036   5.382  72.181  1.00  0.00    -0.201 C  
HETATM   20  O   UNL     1     -11.231   5.252  73.383  1.00  0.00    -0.304 OA 
ENDBRANCH   8  10
ENDBRANCH   6   8
ENDBRANCH   3   6
TORSDOF 3
ENDMDL
MODEL      129
REMARK 921   NORMALIZED FREE ENERGY PREDICTED BY IDOCK:   -3.99 KCAL/MOL
REMARK 922        TOTAL FREE ENERGY PREDICTED BY IDOCK:   -5.17 KCAL/MOL
REMARK 923 INTER-LIGAND FREE ENERGY PREDICTED BY IDOCK:   -4.91 KCAL/MOL
REMARK 924 INTRA-LIGAND FREE ENERGY PREDICTED BY IDOCK:   -0.26 KCAL/MOL
REMARK 927      BINDING AFFINITY PREDICTED BY RF-SCORE:    0.00 PKD
ROOT
HETATM    1  N   UNL     1      -9.662   7.354  74.104  1.00  0.00    -0.416 N  
HETATM    2  H1  UNL     1     -10.093   8.276  74.179  1.00  0.00     0.000 HD 
HETATM    3  C   UNL     1     -10.288   6.293  73.540  1.00  0.00    -0.255 C  
HETATM    4  H2  UNL     1      -8.718   7.226  74.470  1.00  0.00     0.000 HD 
HETATM    5  O   UNL     1      -9.770   5.186  73.450  1.00  0.00    -0.142 OA 
ENDROOT
BRANCH   3   6
HETATM    6  N   UNL     1     -11.551   6.564  73.076  1.00  0.00    -0.473 N  
HETATM    7  H   UNL     1     -12.328   5.971  73.367  1.00  0.00     0.000 HD 
BRANCH   6   8
HETATM    8  N   UNL     1     -11.787   7.610  72.233  1.00  0.00    -0.360 NA 
HETATM    9  H   UNL     1     -12.265   8.443  72.579  1.00  0.00     0.000 HD 
BRANCH   8  10
HETATM   10  C   UNL     1     -11.407   7.553  70.993  1.00  0.00    -0.273 C  
HETATM   11  C   UNL     1     -11.363   6.356  70.107  1.00  0.00    -0.485 C  
HETATM   12  C   UNL     1     -10.981   6.449  68.828  1.00  0.00    -0.404 C  
HETATM   13  C   UNL     1     -10.583   7.712  68.213  1.00  0.00    -0.175 A  
HETATM   14  C   UNL     1     -10.211   7.748  66.862  1.00  0.00    -0.373 A  
HETATM   15  C   UNL     1      -9.824   8.951  66.265  1.00  0.00    -0.355 A  
HETATM   16  C   UNL     1      -9.802  10.129  67.010  1.00  0.00    -0.238 A  
HETATM   17  C   UNL     1     -10.171  10.106  68.354  1.00  0.00    -0.192 A  
HETATM   18  C   UNL     1     -10.560   8.899  68.950  1.00  0.00    -0.188 A  
HETATM   19  C   UNL     1     -10.951   8.877  70.372  1.00  0.00    -0.244 C  
HETATM   20  O   UNL     1     -10.918   9.898  71.047  1.00  0.00    -0.335 OA 
ENDBRANCH   8  10
ENDBRANCH   6   8
ENDBRANCH   3   6
TORSDOF 3
ENDMDL
MODEL      130
REMARK 921   NORMALIZED FREE ENERGY PREDICTED BY IDOCK:   -3.99 KCAL/MOL
REMARK 922        TOTAL FREE ENERGY PREDICTED BY IDOCK:   -5.17 KCAL/MOL
REMARK 923 INTER-LIGAND FREE ENERGY PREDICTED BY IDOCK:   -4.78 KCAL/MOL
REMARK 924 INTRA-LIGAND FREE ENERGY PREDICTED BY IDOCK:   -0.39 KCAL/MOL
REMARK 927      BINDING AFFINITY PREDICTED BY RF-SCORE:    0.00 PKD
ROOT
HETATM    1  N   UNL     1      -6.123  12.818  70.407  1.00  0.00    -0.354 N  
HETATM    2  H1  UNL     1      -6.762  12.527  71.148  1.00  0.00     0.000 HD 
HETATM    3  C   UNL     1      -6.550  13.287  69.209  1.00  0.00    -0.093 C  
HETATM    4  H2  UNL     1      -5.118  12.752  70.575  1.00  0.00     0.000 HD 
HETATM    5  O   UNL     1      -5.783  13.635  68.319  1.00  0.00    -0.085 OA 
ENDROOT
BRANCH   3   6
HETATM    6  N   UNL     1      -7.915  13.341  69.079  1.00  0.00    -0.331 N  
HETATM    7  H   UNL     1      -8.402  14.214  69.279  1.00  0.00     0.000 HD 
BRANCH   6   8
HETATM    8  N   UNL     1      -8.633  12.249  68.686  1.00  0.00    -0.356 NA 
HETATM    9  H   UNL     1      -8.760  11.468  69.330  1.00  0.00     0.000 HD 
BRANCH   8  10
HETATM   10  C   UNL     1      -9.156  12.200  67.499  1.00  0.00    -0.180 C  
HETATM   11  C   UNL     1      -8.957  11.153  66.458  1.00  0.00    -0.185 C  
HETATM   12  C   UNL     1      -9.592  11.209  65.282  1.00  0.00    -0.268 C  
HETATM   13  C   UNL     1     -10.515  12.287  64.933  1.00  0.00    -0.321 A  
HETATM   14  C   UNL     1     -11.165  12.280  63.692  1.00  0.00    -0.539 A  
HETATM   15  C   UNL     1     -12.046  13.309  63.348  1.00  0.00    -0.508 A  
HETATM   16  C   UNL     1     -12.286  14.355  64.237  1.00  0.00    -0.450 A  
HETATM   17  C   UNL     1     -11.645  14.372  65.475  1.00  0.00    -0.347 A  
HETATM   18  C   UNL     1     -10.763  13.338  65.819  1.00  0.00    -0.286 A  
HETATM   19  C   UNL     1     -10.088  13.357  67.131  1.00  0.00    -0.240 C  
HETATM   20  O   UNL     1     -10.271  14.279  67.916  1.00  0.00    -0.231 OA 
ENDBRANCH   8  10
ENDBRANCH   6   8
ENDBRANCH   3   6
TORSDOF 3
ENDMDL
MODEL      131
REMARK 921   NORMALIZED FREE ENERGY PREDICTED BY IDOCK:   -3.98 KCAL/MOL
REMARK 922        TOTAL FREE ENERGY PREDICTED BY IDOCK:   -5.16 KCAL/MOL
REMARK 923 INTER-LIGAND FREE ENERGY PREDICTED BY IDOCK:   -5.07 KCAL/MOL
REMARK 924 INTRA-LIGAND FREE ENERGY PREDICTED BY IDOCK:   -0.09 KCAL/MOL
REMARK 927      BINDING AFFINITY PREDICTED BY RF-SCORE:    0.00 PKD
ROOT
HETATM    1  N   UNL     1      -9.739  10.113  70.237  1.00  0.00    -0.387 N  
HETATM    2  H1  UNL     1     -10.035  10.574  69.376  1.00  0.00     0.000 HD 
HETATM    3  C   UNL     1     -10.548   9.285  70.943  1.00  0.00    -0.296 C  
HETATM    4  H2  UNL     1      -8.794  10.282  70.582  1.00  0.00     0.000 HD 
HETATM    5  O   UNL     1     -10.194   8.732  71.977  1.00  0.00    -0.315 OA 
ENDROOT
BRANCH   3   6
HETATM    6  N   UNL     1     -11.797   9.118  70.400  1.00  0.00    -0.466 N  
HETATM    7  H   UNL     1     -12.180   8.178  70.308  1.00  0.00     0.000 HD 
BRANCH   6   8
HETATM    8  N   UNL     1     -12.536  10.186  69.980  1.00  0.00    -0.533 NA 
HETATM    9  H   UNL     1     -13.024  10.144  69.084  1.00  0.00     0.000 HD 
BRANCH   8  10
HETATM   10  C   UNL     1     -12.622  11.254  70.713  1.00  0.00    -0.332 C  
HETATM   11  C   UNL     1     -13.222  11.382  72.070  1.00  0.00    -0.432 C  
HETATM   12  C   UNL     1     -13.210  12.546  72.731  1.00  0.00     0.715 C  
HETATM   13  C   UNL     1     -12.617  13.761  72.179  1.00  0.00    -0.207 A  
HETATM   14  C   UNL     1     -12.617  14.945  72.928  1.00  0.00    -0.503 A  
HETATM   15  C   UNL     1     -12.057  16.114  72.406  1.00  0.00    -0.630 A  
HETATM   16  C   UNL     1     -11.491  16.114  71.132  1.00  0.00    -0.433 A  
HETATM   17  C   UNL     1     -11.484  14.941  70.378  1.00  0.00    -0.312 A  
HETATM   18  C   UNL     1     -12.045  13.770  70.904  1.00  0.00    -0.366 A  
HETATM   19  C   UNL     1     -12.035  12.530  70.104  1.00  0.00    -0.301 C  
HETATM   20  O   UNL     1     -11.561  12.517  68.975  1.00  0.00    -0.273 OA 
ENDBRANCH   8  10
ENDBRANCH   6   8
ENDBRANCH   3   6
TORSDOF 3
ENDMDL
MODEL      132
REMARK 921   NORMALIZED FREE ENERGY PREDICTED BY IDOCK:   -3.97 KCAL/MOL
REMARK 922        TOTAL FREE ENERGY PREDICTED BY IDOCK:   -5.15 KCAL/MOL
REMARK 923 INTER-LIGAND FREE ENERGY PREDICTED BY IDOCK:   -4.76 KCAL/MOL
REMARK 924 INTRA-LIGAND FREE ENERGY PREDICTED BY IDOCK:   -0.39 KCAL/MOL
REMARK 927      BINDING AFFINITY PREDICTED BY RF-SCORE:    0.00 PKD
ROOT
HETATM    1  N   UNL     1      -8.925   9.351  63.616  1.00  0.00    -0.406 N  
HETATM    2  H1  UNL     1      -8.514   8.531  64.064  1.00  0.00     0.000 HD 
HETATM    3  C   UNL     1      -9.784  10.184  64.252  1.00  0.00    -0.258 C  
HETATM    4  H2  UNL     1      -8.678   9.553  62.647  1.00  0.00     0.000 HD 
HETATM    5  O   UNL     1     -10.277  11.168  63.715  1.00  0.00    -0.313 OA 
ENDROOT
BRANCH   3   6
HETATM    6  N   UNL     1     -10.052   9.832  65.552  1.00  0.00    -0.296 N  
HETATM    7  H   UNL     1     -10.712  10.389  66.094  1.00  0.00     0.000 HD 
BRANCH   6   8
HETATM    8  N   UNL     1      -9.454   8.752  66.132  1.00  0.00    -0.236 NA 
HETATM    9  H   UNL     1      -8.590   8.378  65.737  1.00  0.00     0.000 HD 
BRANCH   8  10
HETATM   10  C   UNL     1      -9.977   8.197  67.183  1.00  0.00    -0.236 C  
HETATM   11  C   UNL     1     -10.683   6.888  67.266  1.00  0.00    -0.421 C  
HETATM   12  C   UNL     1     -11.143   6.418  68.431  1.00  0.00    -0.374 C  
HETATM   13  C   UNL     1     -10.993   7.142  69.690  1.00  0.00    -0.236 A  
HETATM   14  C   UNL     1     -11.480   6.588  70.882  1.00  0.00    -0.408 A  
HETATM   15  C   UNL     1     -11.344   7.276  72.091  1.00  0.00    -0.301 A  
HETATM   16  C   UNL     1     -10.723   8.523  72.124  1.00  0.00    -0.426 A  
HETATM   17  C   UNL     1     -10.234   9.084  70.945  1.00  0.00    -0.324 A  
HETATM   18  C   UNL     1     -10.370   8.392  69.734  1.00  0.00    -0.216 A  
HETATM   19  C   UNL     1      -9.849   8.987  68.488  1.00  0.00    -0.169 C  
HETATM   20  O   UNL     1      -9.319  10.091  68.495  1.00  0.00    -0.139 OA 
ENDBRANCH   8  10
ENDBRANCH   6   8
ENDBRANCH   3   6
TORSDOF 3
ENDMDL
MODEL      133
REMARK 921   NORMALIZED FREE ENERGY PREDICTED BY IDOCK:   -3.97 KCAL/MOL
REMARK 922        TOTAL FREE ENERGY PREDICTED BY IDOCK:   -5.14 KCAL/MOL
REMARK 923 INTER-LIGAND FREE ENERGY PREDICTED BY IDOCK:   -4.67 KCAL/MOL
REMARK 924 INTRA-LIGAND FREE ENERGY PREDICTED BY IDOCK:   -0.47 KCAL/MOL
REMARK 927      BINDING AFFINITY PREDICTED BY RF-SCORE:    0.00 PKD
ROOT
HETATM    1  N   UNL     1      -6.112  10.247  65.594  1.00  0.00    -0.098 N  
HETATM    2  H1  UNL     1      -6.571  11.036  65.137  1.00  0.00     0.000 HD 
HETATM    3  C   UNL     1      -6.402   8.956  65.301  1.00  0.00    -0.063 C  
HETATM    4  H2  UNL     1      -5.403  10.439  66.303  1.00  0.00     0.000 HD 
HETATM    5  O   UNL     1      -5.851   8.009  65.849  1.00  0.00    -0.037 OA 
ENDROOT
BRANCH   3   6
HETATM    6  N   UNL     1      -7.364   8.799  64.335  1.00  0.00    -0.100 N  
HETATM    7  H   UNL     1      -7.103   8.879  63.352  1.00  0.00     0.000 HD 
BRANCH   6   8
HETATM    8  N   UNL     1      -8.663   8.539  64.663  1.00  0.00    -0.403 NA 
HETATM    9  H   UNL     1      -9.042   7.602  64.528  1.00  0.00     0.000 HD 
BRANCH   8  10
HETATM   10  C   UNL     1      -9.418   9.478  65.146  1.00  0.00    -0.236 C  
HETATM   11  C   UNL     1      -9.944   9.602  66.534  1.00  0.00    -0.313 C  
HETATM   12  C   UNL     1     -10.687  10.650  66.908  1.00  0.00    -0.297 C  
HETATM   13  C   UNL     1     -11.037  11.735  65.995  1.00  0.00    -0.363 A  
HETATM   14  C   UNL     1     -11.803  12.816  66.451  1.00  0.00    -0.472 A  
HETATM   15  C   UNL     1     -12.147  13.857  65.584  1.00  0.00    -0.442 A  
HETATM   16  C   UNL     1     -11.730  13.830  64.255  1.00  0.00    -0.426 A  
HETATM   17  C   UNL     1     -10.966  12.760  63.790  1.00  0.00    -0.445 A  
HETATM   18  C   UNL     1     -10.622  11.718  64.661  1.00  0.00    -0.359 A  
HETATM   19  C   UNL     1      -9.812  10.588  64.168  1.00  0.00    -0.337 C  
HETATM   20  O   UNL     1      -9.455  10.537  62.997  1.00  0.00    -0.283 OA 
ENDBRANCH   8  10
ENDBRANCH   6   8
ENDBRANCH   3   6
TORSDOF 3
ENDMDL
MODEL      134
REMARK 921   NORMALIZED FREE ENERGY PREDICTED BY IDOCK:   -3.96 KCAL/MOL
REMARK 922        TOTAL FREE ENERGY PREDICTED BY IDOCK:   -5.14 KCAL/MOL
REMARK 923 INTER-LIGAND FREE ENERGY PREDICTED BY IDOCK:   -4.62 KCAL/MOL
REMARK 924 INTRA-LIGAND FREE ENERGY PREDICTED BY IDOCK:   -0.52 KCAL/MOL
REMARK 927      BINDING AFFINITY PREDICTED BY RF-SCORE:    0.00 PKD
ROOT
HETATM    1  N   UNL     1      -6.743  10.455  67.718  1.00  0.00    -0.069 N  
HETATM    2  H1  UNL     1      -7.328  10.686  68.522  1.00  0.00     0.000 HD 
HETATM    3  C   UNL     1      -7.122   9.573  66.762  1.00  0.00    -0.086 C  
HETATM    4  H2  UNL     1      -5.833  10.908  67.630  1.00  0.00     0.000 HD 
HETATM    5  O   UNL     1      -6.420   9.295  65.797  1.00  0.00    -0.066 OA 
ENDROOT
BRANCH   3   6
HETATM    6  N   UNL     1      -8.361   9.018  66.965  1.00  0.00    -0.115 N  
HETATM    7  H   UNL     1      -8.625   8.713  67.902  1.00  0.00     0.000 HD 
BRANCH   6   8
HETATM    8  N   UNL     1      -9.246   8.865  65.938  1.00  0.00    -0.217 NA 
HETATM    9  H   UNL     1      -9.532   7.929  65.649  1.00  0.00     0.000 HD 
BRANCH   8  10
HETATM   10  C   UNL     1      -9.728   9.904  65.326  1.00  0.00    -0.313 C  
HETATM   11  C   UNL     1      -9.561  10.276  63.894  1.00  0.00    -0.354 C  
HETATM   12  C   UNL     1     -10.148  11.365  63.384  1.00  0.00    -0.444 C  
HETATM   13  C   UNL     1     -10.983  12.259  64.182  1.00  0.00    -0.415 A  
HETATM   14  C   UNL     1     -11.587  13.374  63.585  1.00  0.00    -0.292 A  
HETATM   15  C   UNL     1     -12.384  14.238  64.342  1.00  0.00    -0.417 A  
HETATM   16  C   UNL     1     -12.586  13.999  65.700  1.00  0.00    -0.542 A  
HETATM   17  C   UNL     1     -11.991  12.892  66.304  1.00  0.00    -0.472 A  
HETATM   18  C   UNL     1     -11.193  12.027  65.543  1.00  0.00    -0.372 A  
HETATM   19  C   UNL     1     -10.566  10.855  66.184  1.00  0.00    -0.206 C  
HETATM   20  O   UNL     1     -10.715  10.641  67.381  1.00  0.00    -0.237 OA 
ENDBRANCH   8  10
ENDBRANCH   6   8
ENDBRANCH   3   6
TORSDOF 3
ENDMDL
MODEL      135
REMARK 921   NORMALIZED FREE ENERGY PREDICTED BY IDOCK:   -3.96 KCAL/MOL
REMARK 922        TOTAL FREE ENERGY PREDICTED BY IDOCK:   -5.13 KCAL/MOL
REMARK 923 INTER-LIGAND FREE ENERGY PREDICTED BY IDOCK:   -4.64 KCAL/MOL
REMARK 924 INTRA-LIGAND FREE ENERGY PREDICTED BY IDOCK:   -0.49 KCAL/MOL
REMARK 927      BINDING AFFINITY PREDICTED BY RF-SCORE:    0.00 PKD
ROOT
HETATM    1  N   UNL     1      -9.265   6.049  72.434  1.00  0.00    -0.143 N  
HETATM    2  H1  UNL     1      -9.866   6.204  73.244  1.00  0.00     0.000 HD 
HETATM    3  C   UNL     1      -9.729   6.063  71.161  1.00  0.00    -0.177 C  
HETATM    4  H2  UNL     1      -8.271   5.877  72.589  1.00  0.00     0.000 HD 
HETATM    5  O   UNL     1      -9.007   5.878  70.188  1.00  0.00    -0.139 OA 
ENDROOT
BRANCH   3   6
HETATM    6  N   UNL     1     -11.076   6.305  71.053  1.00  0.00    -0.284 N  
HETATM    7  H   UNL     1     -11.703   5.975  71.786  1.00  0.00     0.000 HD 
BRANCH   6   8
HETATM    8  N   UNL     1     -11.592   6.980  69.985  1.00  0.00    -0.536 NA 
HETATM    9  H   UNL     1     -11.986   6.461  69.200  1.00  0.00     0.000 HD 
BRANCH   8  10
HETATM   10  C   UNL     1     -11.583   8.278  69.962  1.00  0.00     0.197 C  
HETATM   11  C   UNL     1     -10.873   9.168  69.002  1.00  0.00    -0.115 C  
HETATM   12  C   UNL     1     -10.982  10.500  69.073  1.00  0.00    -0.289 C  
HETATM   13  C   UNL     1     -11.792  11.172  70.085  1.00  0.00    -0.449 A  
HETATM   14  C   UNL     1     -11.883  12.571  70.097  1.00  0.00    -0.336 A  
HETATM   15  C   UNL     1     -12.652  13.223  71.064  1.00  0.00    -0.408 A  
HETATM   16  C   UNL     1     -13.338  12.488  72.029  1.00  0.00    -0.528 A  
HETATM   17  C   UNL     1     -13.257  11.096  72.027  1.00  0.00    -0.428 A  
HETATM   18  C   UNL     1     -12.486  10.444  71.056  1.00  0.00    -0.488 A  
HETATM   19  C   UNL     1     -12.403   8.971  71.054  1.00  0.00    -0.193 C  
HETATM   20  O   UNL     1     -12.982   8.310  71.907  1.00  0.00    -0.328 OA 
ENDBRANCH   8  10
ENDBRANCH   6   8
ENDBRANCH   3   6
TORSDOF 3
ENDMDL
MODEL      136
REMARK 921   NORMALIZED FREE ENERGY PREDICTED BY IDOCK:   -3.95 KCAL/MOL
REMARK 922        TOTAL FREE ENERGY PREDICTED BY IDOCK:   -5.12 KCAL/MOL
REMARK 923 INTER-LIGAND FREE ENERGY PREDICTED BY IDOCK:   -4.66 KCAL/MOL
REMARK 924 INTRA-LIGAND FREE ENERGY PREDICTED BY IDOCK:   -0.47 KCAL/MOL
REMARK 927      BINDING AFFINITY PREDICTED BY RF-SCORE:    0.00 PKD
ROOT
HETATM    1  N   UNL     1     -12.868  10.466  70.073  1.00  0.00    -0.527 N  
HETATM    2  H1  UNL     1     -12.516  10.416  69.116  1.00  0.00     0.000 HD 
HETATM    3  C   UNL     1     -12.479   9.605  71.045  1.00  0.00    -0.296 C  
HETATM    4  H2  UNL     1     -13.542  11.195  70.308  1.00  0.00     0.000 HD 
HETATM    5  O   UNL     1     -12.901   9.664  72.194  1.00  0.00    -0.390 OA 
ENDROOT
BRANCH   3   6
HETATM    6  N   UNL     1     -11.569   8.663  70.634  1.00  0.00    -0.400 N  
HETATM    7  H   UNL     1     -10.572   8.870  70.696  1.00  0.00     0.000 HD 
BRANCH   6   8
HETATM    8  N   UNL     1     -11.972   7.455  70.144  1.00  0.00    -0.512 NA 
HETATM    9  H   UNL     1     -12.788   7.402  69.534  1.00  0.00     0.000 HD 
BRANCH   8  10
HETATM   10  C   UNL     1     -11.322   6.373  70.449  1.00  0.00    -0.389 C  
HETATM   11  C   UNL     1     -10.462   5.545  69.560  1.00  0.00    -0.368 C  
HETATM   12  C   UNL     1      -9.818   4.466  70.020  1.00  0.00    -0.294 C  
HETATM   13  C   UNL     1      -9.910   4.024  71.410  1.00  0.00    -0.249 A  
HETATM   14  C   UNL     1      -9.196   2.897  71.837  1.00  0.00    -0.171 A  
HETATM   15  C   UNL     1      -9.282   2.464  73.163  1.00  0.00    -0.098 A  
HETATM   16  C   UNL     1     -10.081   3.150  74.075  1.00  0.00    -0.184 A  
HETATM   17  C   UNL     1     -10.796   4.274  73.662  1.00  0.00    -0.358 A  
HETATM   18  C   UNL     1     -10.707   4.707  72.332  1.00  0.00    -0.186 A  
HETATM   19  C   UNL     1     -11.462   5.898  71.898  1.00  0.00    -0.225 C  
HETATM   20  O   UNL     1     -12.186   6.500  72.681  1.00  0.00    -0.009 OA 
ENDBRANCH   8  10
ENDBRANCH   6   8
ENDBRANCH   3   6
TORSDOF 3
ENDMDL
MODEL      137
REMARK 921   NORMALIZED FREE ENERGY PREDICTED BY IDOCK:   -3.95 KCAL/MOL
REMARK 922        TOTAL FREE ENERGY PREDICTED BY IDOCK:   -5.12 KCAL/MOL
REMARK 923 INTER-LIGAND FREE ENERGY PREDICTED BY IDOCK:   -4.57 KCAL/MOL
REMARK 924 INTRA-LIGAND FREE ENERGY PREDICTED BY IDOCK:   -0.56 KCAL/MOL
REMARK 927      BINDING AFFINITY PREDICTED BY RF-SCORE:    0.00 PKD
ROOT
HETATM    1  N   UNL     1     -13.402   9.505  71.303  1.00  0.00    -0.488 N  
HETATM    2  H1  UNL     1     -13.189   8.812  70.585  1.00  0.00     0.000 HD 
HETATM    3  C   UNL     1     -12.948  10.781  71.252  1.00  0.00    -0.402 C  
HETATM    4  H2  UNL     1     -13.982   9.226  72.095  1.00  0.00     0.000 HD 
HETATM    5  O   UNL     1     -13.202  11.614  72.114  1.00  0.00    -0.504 OA 
ENDROOT
BRANCH   3   6
HETATM    6  N   UNL     1     -12.179  11.062  70.150  1.00  0.00    -0.330 N  
HETATM    7  H   UNL     1     -12.572  11.629  69.398  1.00  0.00     0.000 HD 
BRANCH   6   8
HETATM    8  N   UNL     1     -10.901  10.598  70.039  1.00  0.00    -0.429 NA 
HETATM    9  H   UNL     1     -10.184  10.927  70.687  1.00  0.00     0.000 HD 
BRANCH   8  10
HETATM   10  C   UNL     1     -10.591   9.741  69.114  1.00  0.00    -0.218 C  
HETATM   11  C   UNL     1     -10.204  10.022  67.704  1.00  0.00    -0.249 C  
HETATM   12  C   UNL     1      -9.871   9.037  66.863  1.00  0.00    -0.288 C  
HETATM   13  C   UNL     1      -9.865   7.630  67.257  1.00  0.00    -0.245 A  
HETATM   14  C   UNL     1      -9.488   6.644  66.335  1.00  0.00    -0.166 A  
HETATM   15  C   UNL     1      -9.484   5.296  66.702  1.00  0.00    -0.148 A  
HETATM   16  C   UNL     1      -9.855   4.917  67.991  1.00  0.00    -0.197 A  
HETATM   17  C   UNL     1     -10.231   5.889  68.917  1.00  0.00    -0.254 A  
HETATM   18  C   UNL     1     -10.234   7.241  68.547  1.00  0.00    -0.197 A  
HETATM   19  C   UNL     1     -10.629   8.268  69.530  1.00  0.00    -0.213 C  
HETATM   20  O   UNL     1     -10.979   7.952  70.660  1.00  0.00    -0.238 OA 
ENDBRANCH   8  10
ENDBRANCH   6   8
ENDBRANCH   3   6
TORSDOF 3
ENDMDL
MODEL      138
REMARK 921   NORMALIZED FREE ENERGY PREDICTED BY IDOCK:   -3.91 KCAL/MOL
REMARK 922        TOTAL FREE ENERGY PREDICTED BY IDOCK:   -5.08 KCAL/MOL
REMARK 923 INTER-LIGAND FREE ENERGY PREDICTED BY IDOCK:   -4.57 KCAL/MOL
REMARK 924 INTRA-LIGAND FREE ENERGY PREDICTED BY IDOCK:   -0.50 KCAL/MOL
REMARK 927      BINDING AFFINITY PREDICTED BY RF-SCORE:    0.00 PKD
ROOT
HETATM    1  N   UNL     1     -10.186   3.954  72.324  1.00  0.00    -0.171 N  
HETATM    2  H1  UNL     1     -11.108   3.875  71.894  1.00  0.00     0.000 HD 
HETATM    3  C   UNL     1      -9.880   4.907  73.237  1.00  0.00    -0.148 C  
HETATM    4  H2  UNL     1      -9.463   3.286  72.056  1.00  0.00     0.000 HD 
HETATM    5  O   UNL     1      -8.773   5.003  73.754  1.00  0.00    -0.110 OA 
ENDROOT
BRANCH   3   6
HETATM    6  N   UNL     1     -10.916   5.757  73.535  1.00  0.00    -0.425 N  
HETATM    7  H   UNL     1     -10.986   6.149  74.474  1.00  0.00     0.000 HD 
BRANCH   6   8
HETATM    8  N   UNL     1     -11.855   6.086  72.601  1.00  0.00    -0.520 NA 
HETATM    9  H   UNL     1     -12.701   5.523  72.512  1.00  0.00     0.000 HD 
BRANCH   8  10
HETATM   10  C   UNL     1     -11.677   7.112  71.825  1.00  0.00    -0.290 C  
HETATM   11  C   UNL     1     -11.836   8.552  72.167  1.00  0.00    -0.448 C  
HETATM   12  C   UNL     1     -11.582   9.514  71.272  1.00  0.00    -0.445 C  
HETATM   13  C   UNL     1     -11.138   9.228  69.911  1.00  0.00    -0.200 A  
HETATM   14  C   UNL     1     -10.869  10.280  69.024  1.00  0.00    -0.265 A  
HETATM   15  C   UNL     1     -10.448  10.016  67.718  1.00  0.00    -0.282 A  
HETATM   16  C   UNL     1     -10.292   8.701  67.283  1.00  0.00    -0.366 A  
HETATM   17  C   UNL     1     -10.555   7.646  68.156  1.00  0.00    -0.187 A  
HETATM   18  C   UNL     1     -10.976   7.913  69.465  1.00  0.00    -0.078 A  
HETATM   19  C   UNL     1     -11.252   6.796  70.388  1.00  0.00    -0.328 C  
HETATM   20  O   UNL     1     -11.140   5.634  70.016  1.00  0.00    -0.310 OA 
ENDBRANCH   8  10
ENDBRANCH   6   8
ENDBRANCH   3   6
TORSDOF 3
ENDMDL
MODEL      139
REMARK 921   NORMALIZED FREE ENERGY PREDICTED BY IDOCK:   -3.91 KCAL/MOL
REMARK 922        TOTAL FREE ENERGY PREDICTED BY IDOCK:   -5.07 KCAL/MOL
REMARK 923 INTER-LIGAND FREE ENERGY PREDICTED BY IDOCK:   -4.63 KCAL/MOL
REMARK 924 INTRA-LIGAND FREE ENERGY PREDICTED BY IDOCK:   -0.44 KCAL/MOL
REMARK 927      BINDING AFFINITY PREDICTED BY RF-SCORE:    0.00 PKD
ROOT
HETATM    1  N   UNL     1      -6.964   9.855  62.955  1.00  0.00    -0.118 N  
HETATM    2  H1  UNL     1      -7.359  10.235  62.094  1.00  0.00     0.000 HD 
HETATM    3  C   UNL     1      -7.513  10.071  64.175  1.00  0.00    -0.132 C  
HETATM    4  H2  UNL     1      -6.118   9.287  62.895  1.00  0.00     0.000 HD 
HETATM    5  O   UNL     1      -7.039   9.615  65.208  1.00  0.00    -0.099 OA 
ENDROOT
BRANCH   3   6
HETATM    6  N   UNL     1      -8.648  10.843  64.154  1.00  0.00    -0.370 N  
HETATM    7  H   UNL     1      -8.590  11.807  63.828  1.00  0.00     0.000 HD 
BRANCH   6   8
HETATM    8  N   UNL     1      -9.852  10.345  64.560  1.00  0.00    -0.330 NA 
HETATM    9  H   UNL     1     -10.422   9.802  63.911  1.00  0.00     0.000 HD 
BRANCH   8  10
HETATM   10  C   UNL     1     -10.276  10.559  65.769  1.00  0.00    -0.243 C  
HETATM   11  C   UNL     1     -10.309   9.598  66.906  1.00  0.00    -0.307 C  
HETATM   12  C   UNL     1     -10.742   9.967  68.118  1.00  0.00    -0.279 C  
HETATM   13  C   UNL     1     -11.210  11.319  68.411  1.00  0.00    -0.324 A  
HETATM   14  C   UNL     1     -11.634  11.649  69.706  1.00  0.00    -0.389 A  
HETATM   15  C   UNL     1     -12.087  12.939  69.995  1.00  0.00    -0.357 A  
HETATM   16  C   UNL     1     -12.124  13.911  68.997  1.00  0.00    -0.365 A  
HETATM   17  C   UNL     1     -11.705  13.594  67.706  1.00  0.00    -0.397 A  
HETATM   18  C   UNL     1     -11.249  12.301  67.418  1.00  0.00    -0.358 A  
HETATM   19  C   UNL     1     -10.803  11.968  66.052  1.00  0.00    -0.289 C  
HETATM   20  O   UNL     1     -10.849  12.804  65.157  1.00  0.00    -0.279 OA 
ENDBRANCH   8  10
ENDBRANCH   6   8
ENDBRANCH   3   6
TORSDOF 3
ENDMDL
MODEL      140
REMARK 921   NORMALIZED FREE ENERGY PREDICTED BY IDOCK:   -3.88 KCAL/MOL
REMARK 922        TOTAL FREE ENERGY PREDICTED BY IDOCK:   -5.05 KCAL/MOL
REMARK 923 INTER-LIGAND FREE ENERGY PREDICTED BY IDOCK:   -4.87 KCAL/MOL
REMARK 924 INTRA-LIGAND FREE ENERGY PREDICTED BY IDOCK:   -0.18 KCAL/MOL
REMARK 927      BINDING AFFINITY PREDICTED BY RF-SCORE:    0.00 PKD
ROOT
HETATM    1  N   UNL     1      -7.069  14.237  69.915  1.00  0.00    -0.379 N  
HETATM    2  H1  UNL     1      -7.691  13.444  69.756  1.00  0.00     0.000 HD 
HETATM    3  C   UNL     1      -7.397  15.508  69.577  1.00  0.00    -0.203 C  
HETATM    4  H2  UNL     1      -6.160  14.067  70.347  1.00  0.00     0.000 HD 
HETATM    5  O   UNL     1      -6.651  16.461  69.767  1.00  0.00    -0.207 OA 
ENDROOT
BRANCH   3   6
HETATM    6  N   UNL     1      -8.639  15.637  69.005  1.00  0.00    -0.214 N  
HETATM    7  H   UNL     1      -9.465  15.651  69.602  1.00  0.00     0.000 HD 
BRANCH   6   8
HETATM    8  N   UNL     1      -8.789  15.747  67.653  1.00  0.00    -0.174 NA 
HETATM    9  H   UNL     1      -8.554  16.624  67.187  1.00  0.00     0.000 HD 
BRANCH   8  10
HETATM   10  C   UNL     1      -9.229  14.743  66.957  1.00  0.00    -0.233 C  
HETATM   11  C   UNL     1      -8.837  13.311  67.075  1.00  0.00    -0.216 C  
HETATM   12  C   UNL     1      -9.402  12.368  66.313  1.00  0.00    -0.189 C  
HETATM   13  C   UNL     1     -10.430  12.668  65.319  1.00  0.00    -0.312 A  
HETATM   14  C   UNL     1     -10.999  11.634  64.563  1.00  0.00    -0.376 A  
HETATM   15  C   UNL     1     -11.980  11.911  63.608  1.00  0.00    -0.578 A  
HETATM   16  C   UNL     1     -12.403  13.222  63.396  1.00  0.00    -0.402 A  
HETATM   17  C   UNL     1     -11.845  14.260  64.142  1.00  0.00    -0.338 A  
HETATM   18  C   UNL     1     -10.862  13.979  65.101  1.00  0.00    -0.376 A  
HETATM   19  C   UNL     1     -10.275  15.077  65.891  1.00  0.00    -0.315 C  
HETATM   20  O   UNL     1     -10.619  16.238  65.703  1.00  0.00    -0.360 OA 
ENDBRANCH   8  10
ENDBRANCH   6   8
ENDBRANCH   3   6
TORSDOF 3
ENDMDL
MODEL      141
REMARK 921   NORMALIZED FREE ENERGY PREDICTED BY IDOCK:   -3.81 KCAL/MOL
REMARK 922        TOTAL FREE ENERGY PREDICTED BY IDOCK:   -4.96 KCAL/MOL
REMARK 923 INTER-LIGAND FREE ENERGY PREDICTED BY IDOCK:   -4.63 KCAL/MOL
REMARK 924 INTRA-LIGAND FREE ENERGY PREDICTED BY IDOCK:   -0.33 KCAL/MOL
REMARK 927      BINDING AFFINITY PREDICTED BY RF-SCORE:    0.00 PKD
ROOT
HETATM    1  N   UNL     1      -6.650   6.149  65.415  1.00  0.00    -0.042 N  
HETATM    2  H1  UNL     1      -6.266   7.077  65.597  1.00  0.00     0.000 HD 
HETATM    3  C   UNL     1      -7.966   5.933  65.176  1.00  0.00    -0.121 C  
HETATM    4  H2  UNL     1      -6.016   5.350  65.411  1.00  0.00     0.000 HD 
HETATM    5  O   UNL     1      -8.429   4.820  64.956  1.00  0.00    -0.125 OA 
ENDROOT
BRANCH   3   6
HETATM    6  N   UNL     1      -8.738   7.068  65.198  1.00  0.00    -0.361 N  
HETATM    7  H   UNL     1      -9.751   6.982  65.282  1.00  0.00     0.000 HD 
BRANCH   6   8
HETATM    8  N   UNL     1      -8.177   8.309  65.109  1.00  0.00    -0.148 NA 
HETATM    9  H   UNL     1      -7.197   8.441  65.360  1.00  0.00     0.000 HD 
BRANCH   8  10
HETATM   10  C   UNL     1      -8.883   9.322  64.708  1.00  0.00    -0.185 C  
HETATM   11  C   UNL     1      -9.005   9.856  63.323  1.00  0.00    -0.276 C  
HETATM   12  C   UNL     1      -9.804  10.892  63.043  1.00  0.00    -0.358 C  
HETATM   13  C   UNL     1     -10.604  11.569  64.061  1.00  0.00    -0.437 A  
HETATM   14  C   UNL     1     -11.438  12.638  63.702  1.00  0.00    -0.563 A  
HETATM   15  C   UNL     1     -12.203  13.295  64.669  1.00  0.00    -0.460 A  
HETATM   16  C   UNL     1     -12.145  12.893  66.002  1.00  0.00    -0.484 A  
HETATM   17  C   UNL     1     -11.320  11.832  66.371  1.00  0.00    -0.361 A  
HETATM   18  C   UNL     1     -10.554  11.174  65.400  1.00  0.00    -0.291 A  
HETATM   19  C   UNL     1      -9.684  10.048  65.792  1.00  0.00    -0.257 C  
HETATM   20  O   UNL     1      -9.605   9.696  66.962  1.00  0.00    -0.160 OA 
ENDBRANCH   8  10
ENDBRANCH   6   8
ENDBRANCH   3   6
TORSDOF 3
ENDMDL
MODEL      142
REMARK 921   NORMALIZED FREE ENERGY PREDICTED BY IDOCK:   -3.81 KCAL/MOL
REMARK 922        TOTAL FREE ENERGY PREDICTED BY IDOCK:   -4.96 KCAL/MOL
REMARK 923 INTER-LIGAND FREE ENERGY PREDICTED BY IDOCK:   -4.68 KCAL/MOL
REMARK 924 INTRA-LIGAND FREE ENERGY PREDICTED BY IDOCK:   -0.28 KCAL/MOL
REMARK 927      BINDING AFFINITY PREDICTED BY RF-SCORE:    0.00 PKD
ROOT
HETATM    1  N   UNL     1     -13.251  10.780  72.145  1.00  0.00    -0.591 N  
HETATM    2  H1  UNL     1     -12.414  11.295  72.419  1.00  0.00     0.000 HD 
HETATM    3  C   UNL     1     -13.333   9.428  72.196  1.00  0.00    -0.468 C  
HETATM    4  H2  UNL     1     -14.063  11.305  71.818  1.00  0.00     0.000 HD 
HETATM    5  O   UNL     1     -14.338   8.809  71.866  1.00  0.00    -0.403 OA 
ENDROOT
BRANCH   3   6
HETATM    6  N   UNL     1     -12.194   8.811  72.650  1.00  0.00    -0.312 N  
HETATM    7  H   UNL     1     -12.220   8.304  73.535  1.00  0.00     0.000 HD 
BRANCH   6   8
HETATM    8  N   UNL     1     -11.029   8.862  71.942  1.00  0.00    -0.359 NA 
HETATM    9  H   UNL     1     -10.291   9.506  72.226  1.00  0.00     0.000 HD 
BRANCH   8  10
HETATM   10  C   UNL     1     -10.855   8.096  70.908  1.00  0.00    -0.230 C  
HETATM   11  C   UNL     1     -11.418   6.737  70.676  1.00  0.00    -0.403 C  
HETATM   12  C   UNL     1     -11.185   6.071  69.539  1.00  0.00    -0.416 C  
HETATM   13  C   UNL     1     -10.371   6.617  68.456  1.00  0.00    -0.216 A  
HETATM   14  C   UNL     1     -10.179   5.879  67.280  1.00  0.00    -0.242 A  
HETATM   15  C   UNL     1      -9.398   6.392  66.241  1.00  0.00    -0.149 A  
HETATM   16  C   UNL     1      -8.801   7.645  66.363  1.00  0.00    -0.179 A  
HETATM   17  C   UNL     1      -8.986   8.390  67.528  1.00  0.00    -0.142 A  
HETATM   18  C   UNL     1      -9.770   7.874  68.568  1.00  0.00    -0.167 A  
HETATM   19  C   UNL     1      -9.966   8.664  69.799  1.00  0.00    -0.190 C  
HETATM   20  O   UNL     1      -9.432   9.758  69.932  1.00  0.00    -0.209 OA 
ENDBRANCH   8  10
ENDBRANCH   6   8
ENDBRANCH   3   6
TORSDOF 3
ENDMDL
MODEL      143
REMARK 921   NORMALIZED FREE ENERGY PREDICTED BY IDOCK:   -3.79 KCAL/MOL
REMARK 922        TOTAL FREE ENERGY PREDICTED BY IDOCK:   -4.94 KCAL/MOL
REMARK 923 INTER-LIGAND FREE ENERGY PREDICTED BY IDOCK:   -4.61 KCAL/MOL
REMARK 924 INTRA-LIGAND FREE ENERGY PREDICTED BY IDOCK:   -0.33 KCAL/MOL
REMARK 927      BINDING AFFINITY PREDICTED BY RF-SCORE:    0.00 PKD
ROOT
HETATM    1  N   UNL     1     -10.107  10.753  67.756  1.00  0.00    -0.170 N  
HETATM    2  H1  UNL     1     -10.309  11.045  68.712  1.00  0.00     0.000 HD 
HETATM    3  C   UNL     1     -10.351   9.499  67.302  1.00  0.00    -0.255 C  
HETATM    4  H2  UNL     1      -9.704  11.434  67.112  1.00  0.00     0.000 HD 
HETATM    5  O   UNL     1     -10.109   9.148  66.154  1.00  0.00    -0.290 OA 
ENDROOT
BRANCH   3   6
HETATM    6  N   UNL     1     -10.895   8.656  68.239  1.00  0.00    -0.455 N  
HETATM    7  H   UNL     1     -11.102   9.013  69.172  1.00  0.00     0.000 HD 
BRANCH   6   8
HETATM    8  N   UNL     1     -11.165   7.351  67.947  1.00  0.00    -0.423 NA 
HETATM    9  H   UNL     1     -11.623   7.112  67.067  1.00  0.00     0.000 HD 
BRANCH   8  10
HETATM   10  C   UNL     1     -10.843   6.411  68.783  1.00  0.00    -0.317 C  
HETATM   11  C   UNL     1     -10.052   5.179  68.509  1.00  0.00    -0.214 C  
HETATM   12  C   UNL     1      -9.761   4.306  69.480  1.00  0.00    -0.272 C  
HETATM   13  C   UNL     1     -10.192   4.492  70.863  1.00  0.00    -0.170 A  
HETATM   14  C   UNL     1      -9.839   3.552  71.841  1.00  0.00    -0.237 A  
HETATM   15  C   UNL     1     -10.251   3.719  73.166  1.00  0.00    -0.228 A  
HETATM   16  C   UNL     1     -11.019   4.824  73.529  1.00  0.00    -0.398 A  
HETATM   17  C   UNL     1     -11.376   5.767  72.565  1.00  0.00    -0.358 A  
HETATM   18  C   UNL     1     -10.961   5.598  71.238  1.00  0.00    -0.251 A  
HETATM   19  C   UNL     1     -11.337   6.598  70.220  1.00  0.00    -0.374 C  
HETATM   20  O   UNL     1     -12.029   7.563  70.517  1.00  0.00    -0.194 OA 
ENDBRANCH   8  10
ENDBRANCH   6   8
ENDBRANCH   3   6
TORSDOF 3
ENDMDL
MODEL      144
REMARK 921   NORMALIZED FREE ENERGY PREDICTED BY IDOCK:   -3.77 KCAL/MOL
REMARK 922        TOTAL FREE ENERGY PREDICTED BY IDOCK:   -4.91 KCAL/MOL
REMARK 923 INTER-LIGAND FREE ENERGY PREDICTED BY IDOCK:   -4.53 KCAL/MOL
REMARK 924 INTRA-LIGAND FREE ENERGY PREDICTED BY IDOCK:   -0.38 KCAL/MOL
REMARK 927      BINDING AFFINITY PREDICTED BY RF-SCORE:    0.00 PKD
ROOT
HETATM    1  N   UNL     1      -7.871  16.555  67.228  1.00  0.00    -0.146 N  
HETATM    2  H1  UNL     1      -8.201  15.735  67.738  1.00  0.00     0.000 HD 
HETATM    3  C   UNL     1      -8.647  17.237  66.351  1.00  0.00    -0.259 C  
HETATM    4  H2  UNL     1      -6.916  16.877  67.386  1.00  0.00     0.000 HD 
HETATM    5  O   UNL     1      -8.252  18.221  65.738  1.00  0.00    -0.503 OA 
ENDROOT
BRANCH   3   6
HETATM    6  N   UNL     1      -9.915  16.731  66.208  1.00  0.00    -0.305 N  
HETATM    7  H   UNL     1     -10.593  17.235  65.636  1.00  0.00     0.000 HD 
BRANCH   6   8
HETATM    8  N   UNL     1     -10.288  15.568  66.817  1.00  0.00    -0.281 NA 
HETATM    9  H   UNL     1     -10.549  15.573  67.803  1.00  0.00     0.000 HD 
BRANCH   8  10
HETATM   10  C   UNL     1     -10.311  14.455  66.148  1.00  0.00    -0.298 C  
HETATM   11  C   UNL     1     -11.064  14.159  64.898  1.00  0.00    -0.389 C  
HETATM   12  C   UNL     1     -10.967  12.970  64.290  1.00  0.00    -0.427 C  
HETATM   13  C   UNL     1     -10.127  11.890  64.800  1.00  0.00    -0.295 A  
HETATM   14  C   UNL     1     -10.051  10.673  64.108  1.00  0.00    -0.402 A  
HETATM   15  C   UNL     1      -9.254   9.632  64.590  1.00  0.00    -0.293 A  
HETATM   16  C   UNL     1      -8.526   9.792  65.768  1.00  0.00    -0.141 A  
HETATM   17  C   UNL     1      -8.593  10.998  66.465  1.00  0.00    -0.165 A  
HETATM   18  C   UNL     1      -9.392  12.041  65.979  1.00  0.00    -0.196 A  
HETATM   19  C   UNL     1      -9.459  13.317  66.717  1.00  0.00    -0.257 C  
HETATM   20  O   UNL     1      -8.843  13.468  67.764  1.00  0.00    -0.175 OA 
ENDBRANCH   8  10
ENDBRANCH   6   8
ENDBRANCH   3   6
TORSDOF 3
ENDMDL
MODEL      145
REMARK 921   NORMALIZED FREE ENERGY PREDICTED BY IDOCK:   -3.77 KCAL/MOL
REMARK 922        TOTAL FREE ENERGY PREDICTED BY IDOCK:   -4.91 KCAL/MOL
REMARK 923 INTER-LIGAND FREE ENERGY PREDICTED BY IDOCK:   -4.57 KCAL/MOL
REMARK 924 INTRA-LIGAND FREE ENERGY PREDICTED BY IDOCK:   -0.34 KCAL/MOL
REMARK 927      BINDING AFFINITY PREDICTED BY RF-SCORE:    0.00 PKD
ROOT
HETATM    1  N   UNL     1     -14.368   7.942  71.053  1.00  0.00    -0.661 N  
HETATM    2  H1  UNL     1     -14.750   7.367  70.301  1.00  0.00     0.000 HD 
HETATM    3  C   UNL     1     -13.119   7.770  71.548  1.00  0.00    -0.320 C  
HETATM    4  H2  UNL     1     -14.953   8.679  71.449  1.00  0.00     0.000 HD 
HETATM    5  O   UNL     1     -12.660   8.460  72.451  1.00  0.00    -0.354 OA 
ENDROOT
BRANCH   3   6
HETATM    6  N   UNL     1     -12.409   6.758  70.951  1.00  0.00    -0.429 N  
HETATM    7  H   UNL     1     -12.882   5.885  70.719  1.00  0.00     0.000 HD 
BRANCH   6   8
HETATM    8  N   UNL     1     -11.083   6.897  70.662  1.00  0.00    -0.263 NA 
HETATM    9  H   UNL     1     -10.383   6.667  71.368  1.00  0.00     0.000 HD 
BRANCH   8  10
HETATM   10  C   UNL     1     -10.707   7.321  69.494  1.00  0.00    -0.232 C  
HETATM   11  C   UNL     1     -10.963   6.690  68.169  1.00  0.00    -0.323 C  
HETATM   12  C   UNL     1     -10.544   7.260  67.033  1.00  0.00    -0.415 C  
HETATM   13  C   UNL     1      -9.814   8.525  67.006  1.00  0.00    -0.289 A  
HETATM   14  C   UNL     1      -9.419   9.082  65.782  1.00  0.00    -0.305 A  
HETATM   15  C   UNL     1      -8.716  10.289  65.746  1.00  0.00    -0.169 A  
HETATM   16  C   UNL     1      -8.399  10.952  66.931  1.00  0.00    -0.133 A  
HETATM   17  C   UNL     1      -8.787  10.408  68.154  1.00  0.00    -0.132 A  
HETATM   18  C   UNL     1      -9.493   9.198  68.187  1.00  0.00    -0.155 A  
HETATM   19  C   UNL     1      -9.905   8.626  69.483  1.00  0.00    -0.187 C  
HETATM   20  O   UNL     1      -9.617   9.184  70.535  1.00  0.00    -0.204 OA 
ENDBRANCH   8  10
ENDBRANCH   6   8
ENDBRANCH   3   6
TORSDOF 3
ENDMDL
MODEL      146
REMARK 921   NORMALIZED FREE ENERGY PREDICTED BY IDOCK:   -3.76 KCAL/MOL
REMARK 922        TOTAL FREE ENERGY PREDICTED BY IDOCK:   -4.90 KCAL/MOL
REMARK 923 INTER-LIGAND FREE ENERGY PREDICTED BY IDOCK:   -4.53 KCAL/MOL
REMARK 924 INTRA-LIGAND FREE ENERGY PREDICTED BY IDOCK:   -0.37 KCAL/MOL
REMARK 927      BINDING AFFINITY PREDICTED BY RF-SCORE:    0.00 PKD
ROOT
HETATM    1  N   UNL     1      -8.596   8.057  64.520  1.00  0.00    -0.389 N  
HETATM    2  H1  UNL     1      -8.936   7.239  65.027  1.00  0.00     0.000 HD 
HETATM    3  C   UNL     1      -8.820   9.326  64.936  1.00  0.00    -0.193 C  
HETATM    4  H2  UNL     1      -8.063   7.912  63.662  1.00  0.00     0.000 HD 
HETATM    5  O   UNL     1      -8.412  10.308  64.327  1.00  0.00    -0.168 OA 
ENDROOT
BRANCH   3   6
HETATM    6  N   UNL     1      -9.542   9.420  66.100  1.00  0.00    -0.226 N  
HETATM    7  H   UNL     1     -10.467   9.848  66.081  1.00  0.00     0.000 HD 
BRANCH   6   8
HETATM    8  N   UNL     1      -9.046   8.951  67.281  1.00  0.00    -0.133 NA 
HETATM    9  H   UNL     1      -8.052   8.738  67.365  1.00  0.00     0.000 HD 
BRANCH   8  10
HETATM   10  C   UNL     1      -9.832   8.774  68.299  1.00  0.00    -0.165 C  
HETATM   11  C   UNL     1     -10.119   7.502  69.019  1.00  0.00    -0.192 C  
HETATM   12  C   UNL     1     -10.929   7.471  70.084  1.00  0.00    -0.267 C  
HETATM   13  C   UNL     1     -11.584   8.664  70.613  1.00  0.00    -0.225 A  
HETATM   14  C   UNL     1     -12.406   8.570  71.744  1.00  0.00    -0.388 A  
HETATM   15  C   UNL     1     -13.040   9.706  72.255  1.00  0.00    -0.468 A  
HETATM   16  C   UNL     1     -12.863  10.945  71.643  1.00  0.00    -0.554 A  
HETATM   17  C   UNL     1     -12.047  11.051  70.517  1.00  0.00    -0.470 A  
HETATM   18  C   UNL     1     -11.410   9.911  70.008  1.00  0.00    -0.303 A  
HETATM   19  C   UNL     1     -10.545  10.026  68.818  1.00  0.00    -0.217 C  
HETATM   20  O   UNL     1     -10.395  11.103  68.254  1.00  0.00    -0.168 OA 
ENDBRANCH   8  10
ENDBRANCH   6   8
ENDBRANCH   3   6
TORSDOF 3
ENDMDL
MODEL      147
REMARK 921   NORMALIZED FREE ENERGY PREDICTED BY IDOCK:   -3.76 KCAL/MOL
REMARK 922        TOTAL FREE ENERGY PREDICTED BY IDOCK:   -4.90 KCAL/MOL
REMARK 923 INTER-LIGAND FREE ENERGY PREDICTED BY IDOCK:   -4.55 KCAL/MOL
REMARK 924 INTRA-LIGAND FREE ENERGY PREDICTED BY IDOCK:   -0.35 KCAL/MOL
REMARK 927      BINDING AFFINITY PREDICTED BY RF-SCORE:    0.00 PKD
ROOT
HETATM    1  N   UNL     1      -9.823   4.355  67.355  1.00  0.00    -0.172 N  
HETATM    2  H1  UNL     1      -9.808   4.790  68.278  1.00  0.00     0.000 HD 
HETATM    3  C   UNL     1     -10.213   5.015  66.237  1.00  0.00    -0.273 C  
HETATM    4  H2  UNL     1      -9.532   3.381  67.269  1.00  0.00     0.000 HD 
HETATM    5  O   UNL     1     -10.232   4.493  65.129  1.00  0.00    -0.183 OA 
ENDROOT
BRANCH   3   6
HETATM    6  N   UNL     1     -10.583   6.319  66.452  1.00  0.00    -0.490 N  
HETATM    7  H   UNL     1     -11.518   6.624  66.182  1.00  0.00     0.000 HD 
BRANCH   6   8
HETATM    8  N   UNL     1      -9.725   7.216  67.020  1.00  0.00    -0.159 NA 
HETATM    9  H   UNL     1      -8.718   7.087  66.919  1.00  0.00     0.000 HD 
BRANCH   8  10
HETATM   10  C   UNL     1     -10.183   8.231  67.687  1.00  0.00    -0.231 C  
HETATM   11  C   UNL     1     -10.434   8.320  69.152  1.00  0.00    -0.217 C  
HETATM   12  C   UNL     1     -10.876   9.450  69.717  1.00  0.00    -0.250 C  
HETATM   13  C   UNL     1     -11.143  10.663  68.949  1.00  0.00    -0.314 A  
HETATM   14  C   UNL     1     -11.587  11.822  69.601  1.00  0.00    -0.393 A  
HETATM   15  C   UNL     1     -11.850  12.987  68.875  1.00  0.00    -0.358 A  
HETATM   16  C   UNL     1     -11.674  13.007  67.492  1.00  0.00    -0.421 A  
HETATM   17  C   UNL     1     -11.232  11.861  66.833  1.00  0.00    -0.382 A  
HETATM   18  C   UNL     1     -10.968  10.694  67.563  1.00  0.00    -0.371 A  
HETATM   19  C   UNL     1     -10.499   9.483  66.864  1.00  0.00    -0.208 C  
HETATM   20  O   UNL     1     -10.359   9.477  65.648  1.00  0.00    -0.130 OA 
ENDBRANCH   8  10
ENDBRANCH   6   8
ENDBRANCH   3   6
TORSDOF 3
ENDMDL
MODEL      148
REMARK 921   NORMALIZED FREE ENERGY PREDICTED BY IDOCK:   -3.74 KCAL/MOL
REMARK 922        TOTAL FREE ENERGY PREDICTED BY IDOCK:   -4.88 KCAL/MOL
REMARK 923 INTER-LIGAND FREE ENERGY PREDICTED BY IDOCK:   -4.49 KCAL/MOL
REMARK 924 INTRA-LIGAND FREE ENERGY PREDICTED BY IDOCK:   -0.39 KCAL/MOL
REMARK 927      BINDING AFFINITY PREDICTED BY RF-SCORE:    0.00 PKD
ROOT
HETATM    1  N   UNL     1      -8.460   6.250  63.501  1.00  0.00    -0.331 N  
HETATM    2  H1  UNL     1      -9.010   5.748  64.198  1.00  0.00     0.000 HD 
HETATM    3  C   UNL     1      -7.988   7.504  63.701  1.00  0.00    -0.074 C  
HETATM    4  H2  UNL     1      -8.257   5.788  62.614  1.00  0.00     0.000 HD 
HETATM    5  O   UNL     1      -7.327   8.108  62.864  1.00  0.00    -0.093 OA 
ENDROOT
BRANCH   3   6
HETATM    6  N   UNL     1      -8.309   8.041  64.923  1.00  0.00    -0.277 N  
HETATM    7  H   UNL     1      -7.760   8.819  65.287  1.00  0.00     0.000 HD 
BRANCH   6   8
HETATM    8  N   UNL     1      -9.350   7.554  65.659  1.00  0.00    -0.375 NA 
HETATM    9  H   UNL     1      -9.749   6.643  65.431  1.00  0.00     0.000 HD 
BRANCH   8  10
HETATM   10  C   UNL     1      -9.834   8.242  66.647  1.00  0.00    -0.267 C  
HETATM   11  C   UNL     1     -10.003   7.811  68.062  1.00  0.00    -0.210 C  
HETATM   12  C   UNL     1     -10.486   8.643  68.993  1.00  0.00    -0.216 C  
HETATM   13  C   UNL     1     -10.880  10.018  68.694  1.00  0.00    -0.265 A  
HETATM   14  C   UNL     1     -11.361  10.848  69.716  1.00  0.00    -0.374 A  
HETATM   15  C   UNL     1     -11.744  12.163  69.439  1.00  0.00    -0.391 A  
HETATM   16  C   UNL     1     -11.652  12.663  68.141  1.00  0.00    -0.386 A  
HETATM   17  C   UNL     1     -11.174  11.847  67.117  1.00  0.00    -0.377 A  
HETATM   18  C   UNL     1     -10.790  10.529  67.397  1.00  0.00    -0.349 A  
HETATM   19  C   UNL     1     -10.282   9.668  66.312  1.00  0.00    -0.216 C  
HETATM   20  O   UNL     1     -10.215  10.083  65.162  1.00  0.00    -0.288 OA 
ENDBRANCH   8  10
ENDBRANCH   6   8
ENDBRANCH   3   6
TORSDOF 3
ENDMDL
MODEL      149
REMARK 921   NORMALIZED FREE ENERGY PREDICTED BY IDOCK:   -3.74 KCAL/MOL
REMARK 922        TOTAL FREE ENERGY PREDICTED BY IDOCK:   -4.87 KCAL/MOL
REMARK 923 INTER-LIGAND FREE ENERGY PREDICTED BY IDOCK:   -4.44 KCAL/MOL
REMARK 924 INTRA-LIGAND FREE ENERGY PREDICTED BY IDOCK:   -0.43 KCAL/MOL
REMARK 927      BINDING AFFINITY PREDICTED BY RF-SCORE:    0.00 PKD
ROOT
HETATM    1  N   UNL     1     -10.186  20.350  66.385  1.00  0.00    -0.473 N  
HETATM    2  H1  UNL     1      -9.489  20.560  65.670  1.00  0.00     0.000 HD 
HETATM    3  C   UNL     1     -10.436  19.091  66.820  1.00  0.00    -0.431 C  
HETATM    4  H2  UNL     1     -10.717  21.120  66.792  1.00  0.00     0.000 HD 
HETATM    5  O   UNL     1     -11.272  18.837  67.679  1.00  0.00    -0.176 OA 
ENDROOT
BRANCH   3   6
HETATM    6  N   UNL     1      -9.670  18.123  66.218  1.00  0.00    -0.303 N  
HETATM    7  H   UNL     1      -8.655  18.212  66.227  1.00  0.00     0.000 HD 
BRANCH   6   8
HETATM    8  N   UNL     1     -10.242  17.045  65.608  1.00  0.00    -0.599 NA 
HETATM    9  H   UNL     1     -10.621  17.137  64.665  1.00  0.00     0.000 HD 
BRANCH   8  10
HETATM   10  C   UNL     1     -10.307  15.902  66.221  1.00  0.00    -0.314 C  
HETATM   11  C   UNL     1     -11.528  15.162  66.643  1.00  0.00    -0.185 C  
HETATM   12  C   UNL     1     -11.449  13.966  67.238  1.00  0.00    -0.369 C  
HETATM   13  C   UNL     1     -10.176  13.306  67.517  1.00  0.00    -0.222 A  
HETATM   14  C   UNL     1     -10.158  12.044  68.126  1.00  0.00    -0.200 A  
HETATM   15  C   UNL     1      -8.945  11.407  68.400  1.00  0.00    -0.172 A  
HETATM   16  C   UNL     1      -7.739  12.022  68.071  1.00  0.00    -0.132 A  
HETATM   17  C   UNL     1      -7.743  13.277  67.465  1.00  0.00    -0.175 A  
HETATM   18  C   UNL     1      -8.961  13.913  67.189  1.00  0.00    -0.242 A  
HETATM   19  C   UNL     1      -8.964  15.241  66.545  1.00  0.00    -0.305 C  
HETATM   20  O   UNL     1      -7.913  15.805  66.268  1.00  0.00    -0.141 OA 
ENDBRANCH   8  10
ENDBRANCH   6   8
ENDBRANCH   3   6
TORSDOF 3
ENDMDL
MODEL      150
REMARK 921   NORMALIZED FREE ENERGY PREDICTED BY IDOCK:   -3.72 KCAL/MOL
REMARK 922        TOTAL FREE ENERGY PREDICTED BY IDOCK:   -4.86 KCAL/MOL
REMARK 923 INTER-LIGAND FREE ENERGY PREDICTED BY IDOCK:   -4.56 KCAL/MOL
REMARK 924 INTRA-LIGAND FREE ENERGY PREDICTED BY IDOCK:   -0.30 KCAL/MOL
REMARK 927      BINDING AFFINITY PREDICTED BY RF-SCORE:    0.00 PKD
ROOT
HETATM    1  N   UNL     1      -9.947  20.456  66.332  1.00  0.00    -0.590 N  
HETATM    2  H1  UNL     1      -9.993  20.122  65.369  1.00  0.00     0.000 HD 
HETATM    3  C   UNL     1     -10.187  19.657  67.401  1.00  0.00    -0.434 C  
HETATM    4  H2  UNL     1      -9.710  21.434  66.499  1.00  0.00     0.000 HD 
HETATM    5  O   UNL     1     -10.132  20.058  68.557  1.00  0.00    -0.425 OA 
ENDROOT
BRANCH   3   6
HETATM    6  N   UNL     1     -10.495  18.359  67.077  1.00  0.00    -0.398 N  
HETATM    7  H   UNL     1     -10.564  18.092  66.095  1.00  0.00     0.000 HD 
BRANCH   6   8
HETATM    8  N   UNL     1     -10.713  17.420  68.043  1.00  0.00    -0.390 NA 
HETATM    9  H   UNL     1     -11.498  17.527  68.686  1.00  0.00     0.000 HD 
BRANCH   8  10
HETATM   10  C   UNL     1      -9.926  16.393  68.148  1.00  0.00    -0.242 C  
HETATM   11  C   UNL     1      -8.604  16.324  68.831  1.00  0.00    -0.260 C  
HETATM   12  C   UNL     1      -7.911  15.180  68.895  1.00  0.00    -0.178 C  
HETATM   13  C   UNL     1      -8.392  13.932  68.308  1.00  0.00    -0.163 A  
HETATM   14  C   UNL     1      -7.629  12.762  68.425  1.00  0.00    -0.133 A  
HETATM   15  C   UNL     1      -8.078  11.564  67.862  1.00  0.00    -0.132 A  
HETATM   16  C   UNL     1      -9.291  11.522  67.177  1.00  0.00    -0.177 A  
HETATM   17  C   UNL     1     -10.059  12.679  67.054  1.00  0.00    -0.228 A  
HETATM   18  C   UNL     1      -9.607  13.879  67.620  1.00  0.00    -0.215 A  
HETATM   19  C   UNL     1     -10.422  15.102  67.492  1.00  0.00    -0.258 C  
HETATM   20  O   UNL     1     -11.480  15.087  66.875  1.00  0.00    -0.334 OA 
ENDBRANCH   8  10
ENDBRANCH   6   8
ENDBRANCH   3   6
TORSDOF 3
ENDMDL
MODEL      151
REMARK 921   NORMALIZED FREE ENERGY PREDICTED BY IDOCK:   -3.70 KCAL/MOL
REMARK 922        TOTAL FREE ENERGY PREDICTED BY IDOCK:   -4.83 KCAL/MOL
REMARK 923 INTER-LIGAND FREE ENERGY PREDICTED BY IDOCK:   -4.32 KCAL/MOL
REMARK 924 INTRA-LIGAND FREE ENERGY PREDICTED BY IDOCK:   -0.51 KCAL/MOL
REMARK 927      BINDING AFFINITY PREDICTED BY RF-SCORE:    0.00 PKD
ROOT
HETATM    1  N   UNL     1     -10.559  19.408  67.437  1.00  0.00    -0.465 N  
HETATM    2  H1  UNL     1     -10.831  19.100  68.371  1.00  0.00     0.000 HD 
HETATM    3  C   UNL     1      -9.276  19.384  66.999  1.00  0.00    -0.318 C  
HETATM    4  H2  UNL     1     -11.283  19.750  66.805  1.00  0.00     0.000 HD 
HETATM    5  O   UNL     1      -8.949  19.754  65.878  1.00  0.00    -0.367 OA 
ENDROOT
BRANCH   3   6
HETATM    6  N   UNL     1      -8.375  18.907  67.919  1.00  0.00    -0.275 N  
HETATM    7  H   UNL     1      -7.464  19.356  68.005  1.00  0.00     0.000 HD 
BRANCH   6   8
HETATM    8  N   UNL     1      -8.675  17.844  68.719  1.00  0.00    -0.248 NA 
HETATM    9  H   UNL     1      -8.951  18.001  69.689  1.00  0.00     0.000 HD 
BRANCH   8  10
HETATM   10  C   UNL     1      -8.611  16.633  68.255  1.00  0.00    -0.212 C  
HETATM   11  C   UNL     1      -7.392  15.866  67.875  1.00  0.00    -0.148 C  
HETATM   12  C   UNL     1      -7.470  14.603  67.441  1.00  0.00    -0.212 C  
HETATM   13  C   UNL     1      -8.739  13.891  67.307  1.00  0.00    -0.225 A  
HETATM   14  C   UNL     1      -8.754  12.561  66.865  1.00  0.00    -0.182 A  
HETATM   15  C   UNL     1      -9.963  11.873  66.729  1.00  0.00    -0.215 A  
HETATM   16  C   UNL     1     -11.168  12.505  67.032  1.00  0.00    -0.353 A  
HETATM   17  C   UNL     1     -11.166  13.828  67.473  1.00  0.00    -0.316 A  
HETATM   18  C   UNL     1      -9.952  14.515  67.610  1.00  0.00    -0.224 A  
HETATM   19  C   UNL     1      -9.951  15.913  68.079  1.00  0.00    -0.220 C  
HETATM   20  O   UNL     1     -11.002  16.491  68.329  1.00  0.00    -0.337 OA 
ENDBRANCH   8  10
ENDBRANCH   6   8
ENDBRANCH   3   6
TORSDOF 3
ENDMDL
MODEL      152
REMARK 921   NORMALIZED FREE ENERGY PREDICTED BY IDOCK:   -3.68 KCAL/MOL
REMARK 922        TOTAL FREE ENERGY PREDICTED BY IDOCK:   -4.81 KCAL/MOL
REMARK 923 INTER-LIGAND FREE ENERGY PREDICTED BY IDOCK:   -4.43 KCAL/MOL
REMARK 924 INTRA-LIGAND FREE ENERGY PREDICTED BY IDOCK:   -0.38 KCAL/MOL
REMARK 927      BINDING AFFINITY PREDICTED BY RF-SCORE:    0.00 PKD
ROOT
HETATM    1  N   UNL     1      -8.120  10.143  64.176  1.00  0.00    -0.157 N  
HETATM    2  H1  UNL     1      -8.148  10.895  64.865  1.00  0.00     0.000 HD 
HETATM    3  C   UNL     1      -9.028  10.026  63.177  1.00  0.00    -0.259 C  
HETATM    4  H2  UNL     1      -7.376   9.448  64.242  1.00  0.00     0.000 HD 
HETATM    5  O   UNL     1      -8.995   9.124  62.349  1.00  0.00    -0.237 OA 
ENDROOT
BRANCH   3   6
HETATM    6  N   UNL     1      -9.988  11.008  63.169  1.00  0.00    -0.435 N  
HETATM    7  H   UNL     1      -9.940  11.748  62.470  1.00  0.00     0.000 HD 
BRANCH   6   8
HETATM    8  N   UNL     1     -11.005  11.012  64.079  1.00  0.00    -0.437 NA 
HETATM    9  H   UNL     1     -11.841  10.453  63.908  1.00  0.00     0.000 HD 
BRANCH   8  10
HETATM   10  C   UNL     1     -10.915  11.725  65.161  1.00  0.00    -0.294 C  
HETATM   11  C   UNL     1     -10.874  11.242  66.569  1.00  0.00    -0.319 C  
HETATM   12  C   UNL     1     -10.741  12.091  67.594  1.00  0.00    -0.252 C  
HETATM   13  C   UNL     1     -10.629  13.536  67.413  1.00  0.00    -0.254 A  
HETATM   14  C   UNL     1     -10.473  14.374  68.525  1.00  0.00    -0.254 A  
HETATM   15  C   UNL     1     -10.370  15.758  68.362  1.00  0.00    -0.233 A  
HETATM   16  C   UNL     1     -10.423  16.320  67.088  1.00  0.00    -0.297 A  
HETATM   17  C   UNL     1     -10.578  15.497  65.973  1.00  0.00    -0.333 A  
HETATM   18  C   UNL     1     -10.679  14.110  66.140  1.00  0.00    -0.297 A  
HETATM   19  C   UNL     1     -10.841  13.240  64.958  1.00  0.00    -0.322 C  
HETATM   20  O   UNL     1     -10.911  13.719  63.833  1.00  0.00    -0.050 OA 
ENDBRANCH   8  10
ENDBRANCH   6   8
ENDBRANCH   3   6
TORSDOF 3
ENDMDL
MODEL      153
REMARK 921   NORMALIZED FREE ENERGY PREDICTED BY IDOCK:   -3.67 KCAL/MOL
REMARK 922        TOTAL FREE ENERGY PREDICTED BY IDOCK:   -4.80 KCAL/MOL
REMARK 923 INTER-LIGAND FREE ENERGY PREDICTED BY IDOCK:   -4.36 KCAL/MOL
REMARK 924 INTRA-LIGAND FREE ENERGY PREDICTED BY IDOCK:   -0.44 KCAL/MOL
REMARK 927      BINDING AFFINITY PREDICTED BY RF-SCORE:    0.00 PKD
ROOT
HETATM    1  N   UNL     1     -12.601   6.459  72.390  1.00  0.00    -0.543 N  
HETATM    2  H1  UNL     1     -13.310   6.988  72.899  1.00  0.00     0.000 HD 
HETATM    3  C   UNL     1     -11.599   7.050  71.696  1.00  0.00    -0.285 C  
HETATM    4  H2  UNL     1     -12.649   5.439  72.405  1.00  0.00     0.000 HD 
HETATM    5  O   UNL     1     -10.748   6.414  71.085  1.00  0.00    -0.228 OA 
ENDROOT
BRANCH   3   6
HETATM    6  N   UNL     1     -11.617   8.422  71.737  1.00  0.00    -0.287 N  
HETATM    7  H   UNL     1     -10.935   8.913  72.314  1.00  0.00     0.000 HD 
BRANCH   6   8
HETATM    8  N   UNL     1     -12.529   9.141  71.020  1.00  0.00    -0.458 NA 
HETATM    9  H   UNL     1     -13.474   8.779  70.894  1.00  0.00     0.000 HD 
BRANCH   8  10
HETATM   10  C   UNL     1     -12.200  10.282  70.496  1.00  0.00    -0.301 C  
HETATM   11  C   UNL     1     -12.824  11.612  70.743  1.00  0.00    -0.197 C  
HETATM   12  C   UNL     1     -12.356  12.721  70.159  1.00  0.00    -0.235 C  
HETATM   13  C   UNL     1     -11.215  12.712  69.246  1.00  0.00    -0.255 A  
HETATM   14  C   UNL     1     -10.759  13.910  68.680  1.00  0.00    -0.272 A  
HETATM   15  C   UNL     1      -9.672  13.910  67.803  1.00  0.00    -0.225 A  
HETATM   16  C   UNL     1      -9.029  12.717  67.480  1.00  0.00    -0.187 A  
HETATM   17  C   UNL     1      -9.473  11.518  68.038  1.00  0.00    -0.181 A  
HETATM   18  C   UNL     1     -10.563  11.520  68.919  1.00  0.00    -0.236 A  
HETATM   19  C   UNL     1     -11.029  10.251  69.509  1.00  0.00    -0.258 C  
HETATM   20  O   UNL     1     -10.490   9.191  69.221  1.00  0.00    -0.214 OA 
ENDBRANCH   8  10
ENDBRANCH   6   8
ENDBRANCH   3   6
TORSDOF 3
ENDMDL
MODEL      154
REMARK 921   NORMALIZED FREE ENERGY PREDICTED BY IDOCK:   -3.65 KCAL/MOL
REMARK 922        TOTAL FREE ENERGY PREDICTED BY IDOCK:   -4.77 KCAL/MOL
REMARK 923 INTER-LIGAND FREE ENERGY PREDICTED BY IDOCK:   -4.40 KCAL/MOL
REMARK 924 INTRA-LIGAND FREE ENERGY PREDICTED BY IDOCK:   -0.37 KCAL/MOL
REMARK 927      BINDING AFFINITY PREDICTED BY RF-SCORE:    0.00 PKD
ROOT
HETATM    1  N   UNL     1      -7.909   4.689  68.071  1.00  0.00    -0.081 N  
HETATM    2  H1  UNL     1      -7.446   5.176  68.839  1.00  0.00     0.000 HD 
HETATM    3  C   UNL     1      -9.218   4.338  68.105  1.00  0.00    -0.142 C  
HETATM    4  H2  UNL     1      -7.363   4.456  67.241  1.00  0.00     0.000 HD 
HETATM    5  O   UNL     1      -9.774   3.753  67.183  1.00  0.00    -0.209 OA 
ENDROOT
BRANCH   3   6
HETATM    6  N   UNL     1      -9.868   4.696  69.259  1.00  0.00    -0.199 N  
HETATM    7  H   UNL     1     -10.761   4.259  69.486  1.00  0.00     0.000 HD 
BRANCH   6   8
HETATM    8  N   UNL     1      -9.344   5.626  70.109  1.00  0.00    -0.151 NA 
HETATM    9  H   UNL     1      -8.520   5.396  70.666  1.00  0.00     0.000 HD 
BRANCH   8  10
HETATM   10  C   UNL     1      -9.887   6.801  70.214  1.00  0.00    -0.174 C  
HETATM   11  C   UNL     1      -9.559   8.028  69.437  1.00  0.00    -0.160 C  
HETATM   12  C   UNL     1     -10.229   9.171  69.624  1.00  0.00    -0.211 C  
HETATM   13  C   UNL     1     -11.316   9.300  70.591  1.00  0.00    -0.330 A  
HETATM   14  C   UNL     1     -11.994  10.519  70.727  1.00  0.00    -0.472 A  
HETATM   15  C   UNL     1     -13.032  10.653  71.653  1.00  0.00    -0.582 A  
HETATM   16  C   UNL     1     -13.405   9.574  72.452  1.00  0.00    -0.469 A  
HETATM   17  C   UNL     1     -12.739   8.355  72.325  1.00  0.00    -0.376 A  
HETATM   18  C   UNL     1     -11.699   8.223  71.395  1.00  0.00    -0.327 A  
HETATM   19  C   UNL     1     -10.997   6.932  71.260  1.00  0.00    -0.243 C  
HETATM   20  O   UNL     1     -11.296   5.980  71.969  1.00  0.00    -0.274 OA 
ENDBRANCH   8  10
ENDBRANCH   6   8
ENDBRANCH   3   6
TORSDOF 3
ENDMDL
MODEL      155
REMARK 921   NORMALIZED FREE ENERGY PREDICTED BY IDOCK:   -3.64 KCAL/MOL
REMARK 922        TOTAL FREE ENERGY PREDICTED BY IDOCK:   -4.75 KCAL/MOL
REMARK 923 INTER-LIGAND FREE ENERGY PREDICTED BY IDOCK:   -4.51 KCAL/MOL
REMARK 924 INTRA-LIGAND FREE ENERGY PREDICTED BY IDOCK:   -0.24 KCAL/MOL
REMARK 927      BINDING AFFINITY PREDICTED BY RF-SCORE:    0.00 PKD
ROOT
HETATM    1  N   UNL     1      -8.140   8.946  62.988  1.00  0.00    -0.163 N  
HETATM    2  H1  UNL     1      -7.448   8.412  63.513  1.00  0.00     0.000 HD 
HETATM    3  C   UNL     1      -9.020   9.791  63.578  1.00  0.00    -0.244 C  
HETATM    4  H2  UNL     1      -8.172   8.840  61.974  1.00  0.00     0.000 HD 
HETATM    5  O   UNL     1      -9.852  10.433  62.948  1.00  0.00    -0.287 OA 
ENDROOT
BRANCH   3   6
HETATM    6  N   UNL     1      -8.899   9.869  64.943  1.00  0.00    -0.176 N  
HETATM    7  H   UNL     1      -7.993  10.098  65.352  1.00  0.00     0.000 HD 
BRANCH   6   8
HETATM    8  N   UNL     1      -9.966   9.646  65.764  1.00  0.00    -0.296 NA 
HETATM    9  H   UNL     1     -10.379   8.714  65.816  1.00  0.00     0.000 HD 
BRANCH   8  10
HETATM   10  C   UNL     1     -10.459  10.612  66.478  1.00  0.00    -0.224 C  
HETATM   11  C   UNL     1     -10.684  12.025  66.067  1.00  0.00    -0.317 C  
HETATM   12  C   UNL     1     -11.238  12.914  66.900  1.00  0.00    -0.331 C  
HETATM   13  C   UNL     1     -11.656  12.570  68.256  1.00  0.00    -0.376 A  
HETATM   14  C   UNL     1     -12.249  13.541  69.075  1.00  0.00    -0.224 A  
HETATM   15  C   UNL     1     -12.648  13.223  70.376  1.00  0.00    -0.211 A  
HETATM   16  C   UNL     1     -12.460  11.935  70.873  1.00  0.00    -0.397 A  
HETATM   17  C   UNL     1     -11.872  10.960  70.068  1.00  0.00    -0.428 A  
HETATM   18  C   UNL     1     -11.473  11.281  68.763  1.00  0.00    -0.359 A  
HETATM   19  C   UNL     1     -10.854  10.248  67.911  1.00  0.00    -0.284 C  
HETATM   20  O   UNL     1     -10.661   9.117  68.339  1.00  0.00    -0.194 OA 
ENDBRANCH   8  10
ENDBRANCH   6   8
ENDBRANCH   3   6
TORSDOF 3
ENDMDL
MODEL      156
REMARK 921   NORMALIZED FREE ENERGY PREDICTED BY IDOCK:   -3.63 KCAL/MOL
REMARK 922        TOTAL FREE ENERGY PREDICTED BY IDOCK:   -4.75 KCAL/MOL
REMARK 923 INTER-LIGAND FREE ENERGY PREDICTED BY IDOCK:   -4.40 KCAL/MOL
REMARK 924 INTRA-LIGAND FREE ENERGY PREDICTED BY IDOCK:   -0.35 KCAL/MOL
REMARK 927      BINDING AFFINITY PREDICTED BY RF-SCORE:    0.00 PKD
ROOT
HETATM    1  N   UNL     1      -8.244   7.388  64.450  1.00  0.00    -0.332 N  
HETATM    2  H1  UNL     1      -8.353   7.035  65.401  1.00  0.00     0.000 HD 
HETATM    3  C   UNL     1      -8.591   8.647  64.088  1.00  0.00    -0.009 C  
HETATM    4  H2  UNL     1      -7.857   6.766  63.739  1.00  0.00     0.000 HD 
HETATM    5  O   UNL     1      -8.461   9.071  62.946  1.00  0.00    -0.195 OA 
ENDROOT
BRANCH   3   6
HETATM    6  N   UNL     1      -9.099   9.408  65.111  1.00  0.00    -0.223 N  
HETATM    7  H   UNL     1      -8.550   9.533  65.961  1.00  0.00     0.000 HD 
BRANCH   6   8
HETATM    8  N   UNL     1     -10.323  10.002  65.012  1.00  0.00    -0.184 NA 
HETATM    9  H   UNL     1     -11.164   9.426  64.961  1.00  0.00     0.000 HD 
BRANCH   8  10
HETATM   10  C   UNL     1     -10.425  11.296  64.983  1.00  0.00    -0.298 C  
HETATM   11  C   UNL     1     -11.124  12.133  63.968  1.00  0.00    -0.449 C  
HETATM   12  C   UNL     1     -11.182  13.465  64.083  1.00  0.00    -0.379 C  
HETATM   13  C   UNL     1     -10.571  14.189  65.194  1.00  0.00    -0.414 A  
HETATM   14  C   UNL     1     -10.682  15.584  65.269  1.00  0.00    -0.440 A  
HETATM   15  C   UNL     1     -10.097  16.286  66.326  1.00  0.00    -0.340 A  
HETATM   16  C   UNL     1      -9.395  15.604  67.319  1.00  0.00    -0.223 A  
HETATM   17  C   UNL     1      -9.278  14.216  67.256  1.00  0.00    -0.222 A  
HETATM   18  C   UNL     1      -9.867  13.515  66.195  1.00  0.00    -0.292 A  
HETATM   19  C   UNL     1      -9.744  12.045  66.132  1.00  0.00    -0.238 C  
HETATM   20  O   UNL     1      -9.113  11.432  66.983  1.00  0.00    -0.161 OA 
ENDBRANCH   8  10
ENDBRANCH   6   8
ENDBRANCH   3   6
TORSDOF 3
ENDMDL
MODEL      157
REMARK 921   NORMALIZED FREE ENERGY PREDICTED BY IDOCK:   -3.63 KCAL/MOL
REMARK 922        TOTAL FREE ENERGY PREDICTED BY IDOCK:   -4.75 KCAL/MOL
REMARK 923 INTER-LIGAND FREE ENERGY PREDICTED BY IDOCK:   -4.39 KCAL/MOL
REMARK 924 INTRA-LIGAND FREE ENERGY PREDICTED BY IDOCK:   -0.36 KCAL/MOL
REMARK 927      BINDING AFFINITY PREDICTED BY RF-SCORE:    0.00 PKD
ROOT
HETATM    1  N   UNL     1      -7.229   7.896  66.745  1.00  0.00    -0.086 N  
HETATM    2  H1  UNL     1      -7.382   8.900  66.642  1.00  0.00     0.000 HD 
HETATM    3  C   UNL     1      -8.121   6.969  66.320  1.00  0.00    -0.115 C  
HETATM    4  H2  UNL     1      -6.367   7.576  67.188  1.00  0.00     0.000 HD 
HETATM    5  O   UNL     1      -7.938   5.764  66.443  1.00  0.00    -0.100 OA 
ENDROOT
BRANCH   3   6
HETATM    6  N   UNL     1      -9.246   7.494  65.735  1.00  0.00    -0.395 N  
HETATM    7  H   UNL     1      -9.172   7.945  64.824  1.00  0.00     0.000 HD 
BRANCH   6   8
HETATM    8  N   UNL     1     -10.462   7.426  66.351  1.00  0.00    -0.437 NA 
HETATM    9  H   UNL     1     -11.259   7.025  65.856  1.00  0.00     0.000 HD 
BRANCH   8  10
HETATM   10  C   UNL     1     -10.611   7.869  67.562  1.00  0.00    -0.242 C  
HETATM   11  C   UNL     1     -10.550   9.282  68.030  1.00  0.00    -0.262 C  
HETATM   12  C   UNL     1     -10.760   9.602  69.312  1.00  0.00    -0.246 C  
HETATM   13  C   UNL     1     -11.058   8.604  70.336  1.00  0.00    -0.250 A  
HETATM   14  C   UNL     1     -11.288   9.003  71.660  1.00  0.00    -0.430 A  
HETATM   15  C   UNL     1     -11.569   8.055  72.647  1.00  0.00    -0.448 A  
HETATM   16  C   UNL     1     -11.624   6.700  72.325  1.00  0.00    -0.313 A  
HETATM   17  C   UNL     1     -11.398   6.291  71.011  1.00  0.00    -0.378 A  
HETATM   18  C   UNL     1     -11.117   7.243  70.023  1.00  0.00    -0.262 A  
HETATM   19  C   UNL     1     -10.881   6.808  68.633  1.00  0.00    -0.224 C  
HETATM   20  O   UNL     1     -10.904   5.620  68.336  1.00  0.00    -0.204 OA 
ENDBRANCH   8  10
ENDBRANCH   6   8
ENDBRANCH   3   6
TORSDOF 3
ENDMDL
MODEL      158
REMARK 921   NORMALIZED FREE ENERGY PREDICTED BY IDOCK:   -3.62 KCAL/MOL
REMARK 922        TOTAL FREE ENERGY PREDICTED BY IDOCK:   -4.73 KCAL/MOL
REMARK 923 INTER-LIGAND FREE ENERGY PREDICTED BY IDOCK:   -4.34 KCAL/MOL
REMARK 924 INTRA-LIGAND FREE ENERGY PREDICTED BY IDOCK:   -0.40 KCAL/MOL
REMARK 927      BINDING AFFINITY PREDICTED BY RF-SCORE:    0.00 PKD
ROOT
HETATM    1  N   UNL     1      -7.546  12.269  69.148  1.00  0.00    -0.333 N  
HETATM    2  H1  UNL     1      -8.287  12.320  68.448  1.00  0.00     0.000 HD 
HETATM    3  C   UNL     1      -6.470  13.093  69.142  1.00  0.00    -0.107 C  
HETATM    4  H2  UNL     1      -7.618  11.567  69.885  1.00  0.00     0.000 HD 
HETATM    5  O   UNL     1      -5.581  13.033  69.982  1.00  0.00    -0.101 OA 
ENDROOT
BRANCH   3   6
HETATM    6  N   UNL     1      -6.463  14.004  68.115  1.00  0.00    -0.110 N  
HETATM    7  H   UNL     1      -5.652  14.610  67.989  1.00  0.00     0.000 HD 
BRANCH   6   8
HETATM    8  N   UNL     1      -7.520  14.115  67.258  1.00  0.00    -0.323 NA 
HETATM    9  H   UNL     1      -7.742  13.347  66.625  1.00  0.00     0.000 HD 
BRANCH   8  10
HETATM   10  C   UNL     1      -8.243  15.194  67.245  1.00  0.00    -0.208 C  
HETATM   11  C   UNL     1      -9.714  15.307  67.448  1.00  0.00    -0.208 C  
HETATM   12  C   UNL     1     -10.329  16.495  67.444  1.00  0.00    -0.290 C  
HETATM   13  C   UNL     1      -9.615  17.753  67.242  1.00  0.00    -0.272 A  
HETATM   14  C   UNL     1     -10.313  18.968  67.268  1.00  0.00    -0.505 A  
HETATM   15  C   UNL     1      -9.639  20.177  67.072  1.00  0.00    -0.558 A  
HETATM   16  C   UNL     1      -8.264  20.185  66.846  1.00  0.00    -0.363 A  
HETATM   17  C   UNL     1      -7.559  18.983  66.818  1.00  0.00    -0.245 A  
HETATM   18  C   UNL     1      -8.237  17.772  67.017  1.00  0.00    -0.239 A  
HETATM   19  C   UNL     1      -7.488  16.501  66.990  1.00  0.00    -0.204 C  
HETATM   20  O   UNL     1      -6.283  16.488  66.772  1.00  0.00    -0.273 OA 
ENDBRANCH   8  10
ENDBRANCH   6   8
ENDBRANCH   3   6
TORSDOF 3
ENDMDL
MODEL      159
REMARK 921   NORMALIZED FREE ENERGY PREDICTED BY IDOCK:   -3.61 KCAL/MOL
REMARK 922        TOTAL FREE ENERGY PREDICTED BY IDOCK:   -4.73 KCAL/MOL
REMARK 923 INTER-LIGAND FREE ENERGY PREDICTED BY IDOCK:   -4.56 KCAL/MOL
REMARK 924 INTRA-LIGAND FREE ENERGY PREDICTED BY IDOCK:   -0.17 KCAL/MOL
REMARK 927      BINDING AFFINITY PREDICTED BY RF-SCORE:    0.00 PKD
ROOT
HETATM    1  N   UNL     1     -12.509  14.210  63.364  1.00  0.00    -1.116 N  
HETATM    2  H1  UNL     1     -11.789  14.922  63.493  1.00  0.00     0.000 HD 
HETATM    3  C   UNL     1     -12.275  12.887  63.539  1.00  0.00    -0.512 C  
HETATM    4  H2  UNL     1     -13.447  14.508  63.092  1.00  0.00     0.000 HD 
HETATM    5  O   UNL     1     -13.139  12.032  63.384  1.00  0.00    -0.747 OA 
ENDROOT
BRANCH   3   6
HETATM    6  N   UNL     1     -10.988  12.586  63.906  1.00  0.00    -0.390 N  
HETATM    7  H   UNL     1     -10.332  12.252  63.201  1.00  0.00     0.000 HD 
BRANCH   6   8
HETATM    8  N   UNL     1     -10.568  12.723  65.198  1.00  0.00    -0.294 NA 
HETATM    9  H   UNL     1     -11.031  13.393  65.812  1.00  0.00     0.000 HD 
BRANCH   8  10
HETATM   10  C   UNL     1      -9.583  12.007  65.648  1.00  0.00    -0.189 C  
HETATM   11  C   UNL     1      -8.997  10.780  65.042  1.00  0.00    -0.211 C  
HETATM   12  C   UNL     1      -7.951  10.159  65.599  1.00  0.00    -0.147 C  
HETATM   13  C   UNL     1      -7.315  10.629  66.827  1.00  0.00    -0.120 A  
HETATM   14  C   UNL     1      -6.210   9.946  67.352  1.00  0.00    -0.059 A  
HETATM   15  C   UNL     1      -5.598  10.385  68.528  1.00  0.00    -0.037 A  
HETATM   16  C   UNL     1      -6.083  11.510  69.194  1.00  0.00    -0.064 A  
HETATM   17  C   UNL     1      -7.182  12.198  68.682  1.00  0.00    -0.109 A  
HETATM   18  C   UNL     1      -7.793  11.756  67.501  1.00  0.00    -0.148 A  
HETATM   19  C   UNL     1      -8.954  12.488  66.959  1.00  0.00    -0.211 C  
HETATM   20  O   UNL     1      -9.406  13.465  67.542  1.00  0.00    -0.202 OA 
ENDBRANCH   8  10
ENDBRANCH   6   8
ENDBRANCH   3   6
TORSDOF 3
ENDMDL
MODEL      160
REMARK 921   NORMALIZED FREE ENERGY PREDICTED BY IDOCK:   -3.61 KCAL/MOL
REMARK 922        TOTAL FREE ENERGY PREDICTED BY IDOCK:   -4.72 KCAL/MOL
REMARK 923 INTER-LIGAND FREE ENERGY PREDICTED BY IDOCK:   -4.53 KCAL/MOL
REMARK 924 INTRA-LIGAND FREE ENERGY PREDICTED BY IDOCK:   -0.19 KCAL/MOL
REMARK 927      BINDING AFFINITY PREDICTED BY RF-SCORE:    0.00 PKD
ROOT
HETATM    1  N   UNL     1     -12.035  14.594  67.990  1.00  0.00    -0.540 N  
HETATM    2  H1  UNL     1     -11.783  13.835  67.355  1.00  0.00     0.000 HD 
HETATM    3  C   UNL     1     -11.987  14.470  69.339  1.00  0.00    -0.322 C  
HETATM    4  H2  UNL     1     -12.335  15.484  67.593  1.00  0.00     0.000 HD 
HETATM    5  O   UNL     1     -12.289  15.380  70.101  1.00  0.00    -0.356 OA 
ENDROOT
BRANCH   3   6
HETATM    6  N   UNL     1     -11.569  13.239  69.779  1.00  0.00    -0.453 N  
HETATM    7  H   UNL     1     -11.987  12.840  70.619  1.00  0.00     0.000 HD 
BRANCH   6   8
HETATM    8  N   UNL     1     -10.605  12.538  69.114  1.00  0.00    -0.438 NA 
HETATM    9  H   UNL     1      -9.882  13.037  68.596  1.00  0.00     0.000 HD 
BRANCH   8  10
HETATM   10  C   UNL     1     -10.605  11.240  69.135  1.00  0.00    -0.187 C  
HETATM   11  C   UNL     1     -11.117  10.346  70.211  1.00  0.00    -0.379 C  
HETATM   12  C   UNL     1     -11.086   9.014  70.084  1.00  0.00    -0.228 C  
HETATM   13  C   UNL     1     -10.554   8.346  68.900  1.00  0.00    -0.162 A  
HETATM   14  C   UNL     1     -10.566   6.947  68.818  1.00  0.00    -0.247 A  
HETATM   15  C   UNL     1     -10.055   6.298  67.691  1.00  0.00    -0.179 A  
HETATM   16  C   UNL     1      -9.525   7.038  66.635  1.00  0.00    -0.210 A  
HETATM   17  C   UNL     1      -9.508   8.430  66.704  1.00  0.00    -0.267 A  
HETATM   18  C   UNL     1     -10.022   9.078  67.835  1.00  0.00    -0.220 A  
HETATM   19  C   UNL     1     -10.005  10.552  67.906  1.00  0.00    -0.169 C  
HETATM   20  O   UNL     1      -9.525  11.217  66.997  1.00  0.00    -0.174 OA 
ENDBRANCH   8  10
ENDBRANCH   6   8
ENDBRANCH   3   6
TORSDOF 3
ENDMDL
MODEL      161
REMARK 921   NORMALIZED FREE ENERGY PREDICTED BY IDOCK:   -3.60 KCAL/MOL
REMARK 922        TOTAL FREE ENERGY PREDICTED BY IDOCK:   -4.72 KCAL/MOL
REMARK 923 INTER-LIGAND FREE ENERGY PREDICTED BY IDOCK:   -4.34 KCAL/MOL
REMARK 924 INTRA-LIGAND FREE ENERGY PREDICTED BY IDOCK:   -0.37 KCAL/MOL
REMARK 927      BINDING AFFINITY PREDICTED BY RF-SCORE:    0.00 PKD
ROOT
HETATM    1  N   UNL     1     -10.062   5.012  69.935  1.00  0.00    -0.257 N  
HETATM    2  H1  UNL     1      -9.902   5.596  69.114  1.00  0.00     0.000 HD 
HETATM    3  C   UNL     1     -10.437   5.518  71.136  1.00  0.00    -0.236 C  
HETATM    4  H2  UNL     1      -9.935   4.003  69.850  1.00  0.00     0.000 HD 
HETATM    5  O   UNL     1     -10.629   4.817  72.122  1.00  0.00    -0.198 OA 
ENDROOT
BRANCH   3   6
HETATM    6  N   UNL     1     -10.585   6.882  71.152  1.00  0.00    -0.220 N  
HETATM    7  H   UNL     1     -11.363   7.295  71.665  1.00  0.00     0.000 HD 
BRANCH   6   8
HETATM    8  N   UNL     1      -9.711   7.698  70.493  1.00  0.00    -0.182 NA 
HETATM    9  H   UNL     1      -8.706   7.564  70.610  1.00  0.00     0.000 HD 
BRANCH   8  10
HETATM   10  C   UNL     1     -10.151   8.644  69.720  1.00  0.00    -0.199 C  
HETATM   11  C   UNL     1     -10.945   9.842  70.108  1.00  0.00    -0.356 C  
HETATM   12  C   UNL     1     -11.303  10.764  69.206  1.00  0.00    -0.352 C  
HETATM   13  C   UNL     1     -10.948  10.664  67.793  1.00  0.00    -0.364 A  
HETATM   14  C   UNL     1     -11.336  11.672  66.899  1.00  0.00    -0.364 A  
HETATM   15  C   UNL     1     -11.005  11.583  65.544  1.00  0.00    -0.290 A  
HETATM   16  C   UNL     1     -10.285  10.489  65.067  1.00  0.00    -0.365 A  
HETATM   17  C   UNL     1      -9.893   9.481  65.947  1.00  0.00    -0.360 A  
HETATM   18  C   UNL     1     -10.225   9.573  67.305  1.00  0.00    -0.295 A  
HETATM   19  C   UNL     1      -9.807   8.506  68.235  1.00  0.00    -0.169 C  
HETATM   20  O   UNL     1      -9.193   7.527  67.829  1.00  0.00    -0.135 OA 
ENDBRANCH   8  10
ENDBRANCH   6   8
ENDBRANCH   3   6
TORSDOF 3
ENDMDL
MODEL      162
REMARK 921   NORMALIZED FREE ENERGY PREDICTED BY IDOCK:   -3.60 KCAL/MOL
REMARK 922        TOTAL FREE ENERGY PREDICTED BY IDOCK:   -4.71 KCAL/MOL
REMARK 923 INTER-LIGAND FREE ENERGY PREDICTED BY IDOCK:   -4.53 KCAL/MOL
REMARK 924 INTRA-LIGAND FREE ENERGY PREDICTED BY IDOCK:   -0.18 KCAL/MOL
REMARK 927      BINDING AFFINITY PREDICTED BY RF-SCORE:    0.00 PKD
ROOT
HETATM    1  N   UNL     1     -12.679  14.228  63.247  1.00  0.00    -0.708 N  
HETATM    2  H1  UNL     1     -12.416  15.139  63.624  1.00  0.00     0.000 HD 
HETATM    3  C   UNL     1     -11.953  13.105  63.466  1.00  0.00    -0.513 C  
HETATM    4  H2  UNL     1     -13.525  14.159  62.681  1.00  0.00     0.000 HD 
HETATM    5  O   UNL     1     -12.268  12.010  63.014  1.00  0.00    -0.330 OA 
ENDROOT
BRANCH   3   6
HETATM    6  N   UNL     1     -10.835  13.296  64.240  1.00  0.00    -0.440 N  
HETATM    7  H   UNL     1     -10.278  12.490  64.521  1.00  0.00     0.000 HD 
BRANCH   6   8
HETATM    8  N   UNL     1     -10.456  14.544  64.640  1.00  0.00    -0.561 NA 
HETATM    9  H   UNL     1     -10.841  15.366  64.173  1.00  0.00     0.000 HD 
BRANCH   8  10
HETATM   10  C   UNL     1      -9.607  14.692  65.612  1.00  0.00    -0.180 C  
HETATM   11  C   UNL     1      -8.745  13.651  66.235  1.00  0.00     0.372 C  
HETATM   12  C   UNL     1      -7.882  13.953  67.212  1.00  0.00    -0.134 C  
HETATM   13  C   UNL     1      -7.724  15.308  67.735  1.00  0.00    -0.164 A  
HETATM   14  C   UNL     1      -6.789  15.565  68.747  1.00  0.00    -0.116 A  
HETATM   15  C   UNL     1      -6.634  16.857  69.257  1.00  0.00    -0.232 A  
HETATM   16  C   UNL     1      -7.411  17.904  68.764  1.00  0.00    -0.271 A  
HETATM   17  C   UNL     1      -8.344  17.661  67.757  1.00  0.00    -0.226 A  
HETATM   18  C   UNL     1      -8.496  16.364  67.246  1.00  0.00    -0.196 A  
HETATM   19  C   UNL     1      -9.483  16.109  66.179  1.00  0.00    -0.327 C  
HETATM   20  O   UNL     1     -10.188  17.013  65.749  1.00  0.00    -0.506 OA 
ENDBRANCH   8  10
ENDBRANCH   6   8
ENDBRANCH   3   6
TORSDOF 3
ENDMDL
MODEL      163
REMARK 921   NORMALIZED FREE ENERGY PREDICTED BY IDOCK:   -3.57 KCAL/MOL
REMARK 922        TOTAL FREE ENERGY PREDICTED BY IDOCK:   -4.68 KCAL/MOL
REMARK 923 INTER-LIGAND FREE ENERGY PREDICTED BY IDOCK:   -4.16 KCAL/MOL
REMARK 924 INTRA-LIGAND FREE ENERGY PREDICTED BY IDOCK:   -0.52 KCAL/MOL
REMARK 927      BINDING AFFINITY PREDICTED BY RF-SCORE:    0.00 PKD
ROOT
HETATM    1  N   UNL     1     -10.085  12.595  68.937  1.00  0.00    -0.425 N  
HETATM    2  H1  UNL     1      -9.315  12.355  69.561  1.00  0.00     0.000 HD 
HETATM    3  C   UNL     1     -11.330  12.076  69.070  1.00  0.00    -0.275 C  
HETATM    4  H2  UNL     1      -9.911  13.254  68.178  1.00  0.00     0.000 HD 
HETATM    5  O   UNL     1     -12.255  12.363  68.320  1.00  0.00    -0.275 OA 
ENDROOT
BRANCH   3   6
HETATM    6  N   UNL     1     -11.467  11.201  70.120  1.00  0.00    -0.418 N  
HETATM    7  H   UNL     1     -12.317  11.225  70.681  1.00  0.00     0.000 HD 
BRANCH   6   8
HETATM    8  N   UNL     1     -10.487  10.303  70.426  1.00  0.00    -0.430 NA 
HETATM    9  H   UNL     1      -9.711  10.583  71.026  1.00  0.00     0.000 HD 
BRANCH   8  10
HETATM   10  C   UNL     1     -10.537   9.092  69.959  1.00  0.00    -0.227 C  
HETATM   11  C   UNL     1     -11.194   7.905  70.571  1.00  0.00    -0.259 C  
HETATM   12  C   UNL     1     -11.199   6.716  69.957  1.00  0.00    -0.425 C  
HETATM   13  C   UNL     1     -10.568   6.496  68.659  1.00  0.00    -0.289 A  
HETATM   14  C   UNL     1     -10.623   5.232  68.056  1.00  0.00    -0.088 A  
HETATM   15  C   UNL     1     -10.019   5.010  66.816  1.00  0.00    -0.242 A  
HETATM   16  C   UNL     1      -9.352   6.046  66.165  1.00  0.00    -0.140 A  
HETATM   17  C   UNL     1      -9.291   7.309  66.754  1.00  0.00    -0.203 A  
HETATM   18  C   UNL     1      -9.899   7.529  67.997  1.00  0.00    -0.177 A  
HETATM   19  C   UNL     1      -9.835   8.866  68.617  1.00  0.00    -0.167 C  
HETATM   20  O   UNL     1      -9.235   9.782  68.069  1.00  0.00    -0.125 OA 
ENDBRANCH   8  10
ENDBRANCH   6   8
ENDBRANCH   3   6
TORSDOF 3
ENDMDL
MODEL      164
REMARK 921   NORMALIZED FREE ENERGY PREDICTED BY IDOCK:   -3.57 KCAL/MOL
REMARK 922        TOTAL FREE ENERGY PREDICTED BY IDOCK:   -4.68 KCAL/MOL
REMARK 923 INTER-LIGAND FREE ENERGY PREDICTED BY IDOCK:   -4.22 KCAL/MOL
REMARK 924 INTRA-LIGAND FREE ENERGY PREDICTED BY IDOCK:   -0.45 KCAL/MOL
REMARK 927      BINDING AFFINITY PREDICTED BY RF-SCORE:    0.00 PKD
ROOT
HETATM    1  N   UNL     1      -7.653   6.809  65.613  1.00  0.00    -0.085 N  
HETATM    2  H1  UNL     1      -8.416   6.274  65.197  1.00  0.00     0.000 HD 
HETATM    3  C   UNL     1      -7.732   7.367  66.846  1.00  0.00    -0.110 C  
HETATM    4  H2  UNL     1      -6.792   6.929  65.079  1.00  0.00     0.000 HD 
HETATM    5  O   UNL     1      -6.817   8.009  67.346  1.00  0.00    -0.067 OA 
ENDROOT
BRANCH   3   6
HETATM    6  N   UNL     1      -8.926   7.149  67.488  1.00  0.00    -0.122 N  
HETATM    7  H   UNL     1      -9.798   7.247  66.968  1.00  0.00     0.000 HD 
BRANCH   6   8
HETATM    8  N   UNL     1      -8.969   6.805  68.807  1.00  0.00    -0.130 NA 
HETATM    9  H   UNL     1      -8.199   6.277  69.219  1.00  0.00     0.000 HD 
BRANCH   8  10
HETATM   10  C   UNL     1      -9.984   7.145  69.542  1.00  0.00    -0.164 C  
HETATM   11  C   UNL     1     -10.923   6.247  70.270  1.00  0.00    -0.400 C  
HETATM   12  C   UNL     1     -11.912   6.738  71.026  1.00  0.00    -0.431 C  
HETATM   13  C   UNL     1     -12.144   8.171  71.191  1.00  0.00    -0.281 A  
HETATM   14  C   UNL     1     -13.185   8.624  72.012  1.00  0.00    -0.422 A  
HETATM   15  C   UNL     1     -13.417   9.993  72.172  1.00  0.00    -0.420 A  
HETATM   16  C   UNL     1     -12.614  10.923  71.514  1.00  0.00    -0.480 A  
HETATM   17  C   UNL     1     -11.574  10.484  70.695  1.00  0.00    -0.445 A  
HETATM   18  C   UNL     1     -11.343   9.111  70.537  1.00  0.00    -0.300 A  
HETATM   19  C   UNL     1     -10.241   8.649  69.672  1.00  0.00    -0.208 C  
HETATM   20  O   UNL     1      -9.539   9.451  69.069  1.00  0.00    -0.158 OA 
ENDBRANCH   8  10
ENDBRANCH   6   8
ENDBRANCH   3   6
TORSDOF 3
ENDMDL
MODEL      165
REMARK 921   NORMALIZED FREE ENERGY PREDICTED BY IDOCK:   -3.56 KCAL/MOL
REMARK 922        TOTAL FREE ENERGY PREDICTED BY IDOCK:   -4.67 KCAL/MOL
REMARK 923 INTER-LIGAND FREE ENERGY PREDICTED BY IDOCK:   -4.23 KCAL/MOL
REMARK 924 INTRA-LIGAND FREE ENERGY PREDICTED BY IDOCK:   -0.44 KCAL/MOL
REMARK 927      BINDING AFFINITY PREDICTED BY RF-SCORE:    0.00 PKD
ROOT
HETATM    1  N   UNL     1      -7.776   6.480  74.562  1.00  0.00    -0.099 N  
HETATM    2  H1  UNL     1      -8.298   5.613  74.429  1.00  0.00     0.000 HD 
HETATM    3  C   UNL     1      -7.093   7.088  73.563  1.00  0.00    -0.073 C  
HETATM    4  H2  UNL     1      -7.769   6.908  75.488  1.00  0.00     0.000 HD 
HETATM    5  O   UNL     1      -6.466   8.129  73.722  1.00  0.00    -0.103 OA 
ENDROOT
BRANCH   3   6
HETATM    6  N   UNL     1      -7.164   6.441  72.354  1.00  0.00    -0.082 N  
HETATM    7  H   UNL     1      -6.315   6.047  71.948  1.00  0.00     0.000 HD 
BRANCH   6   8
HETATM    8  N   UNL     1      -8.347   6.314  71.687  1.00  0.00    -0.128 NA 
HETATM    9  H   UNL     1      -8.668   5.390  71.395  1.00  0.00     0.000 HD 
BRANCH   8  10
HETATM   10  C   UNL     1      -9.066   7.361  71.419  1.00  0.00    -0.141 C  
HETATM   11  C   UNL     1      -8.727   8.491  70.510  1.00  0.00    -0.163 C  
HETATM   12  C   UNL     1      -9.584   9.496  70.297  1.00  0.00    -0.314 C  
HETATM   13  C   UNL     1     -10.897   9.562  70.934  1.00  0.00    -0.407 A  
HETATM   14  C   UNL     1     -11.760  10.631  70.656  1.00  0.00    -0.454 A  
HETATM   15  C   UNL     1     -13.016  10.705  71.264  1.00  0.00    -0.513 A  
HETATM   16  C   UNL     1     -13.424   9.714  72.154  1.00  0.00    -0.516 A  
HETATM   17  C   UNL     1     -12.576   8.644  72.438  1.00  0.00    -0.426 A  
HETATM   18  C   UNL     1     -11.317   8.572  71.826  1.00  0.00    -0.377 A  
HETATM   19  C   UNL     1     -10.422   7.438  72.126  1.00  0.00    -0.209 C  
HETATM   20  O   UNL     1     -10.756   6.570  72.922  1.00  0.00    -0.227 OA 
ENDBRANCH   8  10
ENDBRANCH   6   8
ENDBRANCH   3   6
TORSDOF 3
ENDMDL
MODEL      166
REMARK 921   NORMALIZED FREE ENERGY PREDICTED BY IDOCK:   -3.53 KCAL/MOL
REMARK 922        TOTAL FREE ENERGY PREDICTED BY IDOCK:   -4.63 KCAL/MOL
REMARK 923 INTER-LIGAND FREE ENERGY PREDICTED BY IDOCK:   -4.21 KCAL/MOL
REMARK 924 INTRA-LIGAND FREE ENERGY PREDICTED BY IDOCK:   -0.42 KCAL/MOL
REMARK 927      BINDING AFFINITY PREDICTED BY RF-SCORE:    0.00 PKD
ROOT
HETATM    1  N   UNL     1     -10.167   9.257  66.703  1.00  0.00    -0.262 N  
HETATM    2  H1  UNL     1      -9.900   8.527  67.364  1.00  0.00     0.000 HD 
HETATM    3  C   UNL     1      -9.971  10.576  66.944  1.00  0.00    -0.200 C  
HETATM    4  H2  UNL     1     -10.601   8.982  65.821  1.00  0.00     0.000 HD 
HETATM    5  O   UNL     1     -10.292  11.453  66.150  1.00  0.00    -0.233 OA 
ENDROOT
BRANCH   3   6
HETATM    6  N   UNL     1      -9.380  10.847  68.153  1.00  0.00    -0.160 N  
HETATM    7  H   UNL     1      -8.371  10.735  68.252  1.00  0.00     0.000 HD 
BRANCH   6   8
HETATM    8  N   UNL     1     -10.115  11.263  69.224  1.00  0.00    -0.426 NA 
HETATM    9  H   UNL     1     -10.364  12.248  69.316  1.00  0.00     0.000 HD 
BRANCH   8  10
HETATM   10  C   UNL     1     -10.499  10.413  70.127  1.00  0.00    -0.128 C  
HETATM   11  C   UNL     1     -11.880  10.183  70.634  1.00  0.00    -0.431 C  
HETATM   12  C   UNL     1     -12.140   9.240  71.547  1.00  0.00    -0.435 C  
HETATM   13  C   UNL     1     -11.103   8.379  72.110  1.00  0.00    -0.415 A  
HETATM   14  C   UNL     1     -11.441   7.396  73.050  1.00  0.00    -0.210 A  
HETATM   15  C   UNL     1     -10.455   6.571  73.598  1.00  0.00    -0.330 A  
HETATM   16  C   UNL     1      -9.124   6.717  73.214  1.00  0.00    -0.148 A  
HETATM   17  C   UNL     1      -8.775   7.691  72.279  1.00  0.00    -0.160 A  
HETATM   18  C   UNL     1      -9.766   8.517  71.731  1.00  0.00    -0.337 A  
HETATM   19  C   UNL     1      -9.396   9.545  70.739  1.00  0.00    -0.150 C  
HETATM   20  O   UNL     1      -8.228   9.703  70.406  1.00  0.00    -0.183 OA 
ENDBRANCH   8  10
ENDBRANCH   6   8
ENDBRANCH   3   6
TORSDOF 3
ENDMDL
MODEL      167
REMARK 921   NORMALIZED FREE ENERGY PREDICTED BY IDOCK:   -3.52 KCAL/MOL
REMARK 922        TOTAL FREE ENERGY PREDICTED BY IDOCK:   -4.62 KCAL/MOL
REMARK 923 INTER-LIGAND FREE ENERGY PREDICTED BY IDOCK:   -4.36 KCAL/MOL
REMARK 924 INTRA-LIGAND FREE ENERGY PREDICTED BY IDOCK:   -0.25 KCAL/MOL
REMARK 927      BINDING AFFINITY PREDICTED BY RF-SCORE:    0.00 PKD
ROOT
HETATM    1  N   UNL     1      -9.495  11.829  63.056  1.00  0.00    -0.512 N  
HETATM    2  H1  UNL     1      -8.747  11.176  62.823  1.00  0.00     0.000 HD 
HETATM    3  C   UNL     1     -10.566  11.482  63.810  1.00  0.00    -0.406 C  
HETATM    4  H2  UNL     1      -9.435  12.785  62.705  1.00  0.00     0.000 HD 
HETATM    5  O   UNL     1     -11.466  12.266  64.089  1.00  0.00    -0.333 OA 
ENDROOT
BRANCH   3   6
HETATM    6  N   UNL     1     -10.557  10.178  64.238  1.00  0.00    -0.077 N  
HETATM    7  H   UNL     1     -11.293   9.545  63.926  1.00  0.00     0.000 HD 
BRANCH   6   8
HETATM    8  N   UNL     1      -9.583   9.712  65.072  1.00  0.00    -0.405 NA 
HETATM    9  H   UNL     1      -8.722   9.328  64.682  1.00  0.00     0.000 HD 
BRANCH   8  10
HETATM   10  C   UNL     1      -9.746   9.756  66.360  1.00  0.00    -0.216 C  
HETATM   11  C   UNL     1      -9.643  10.943  67.252  1.00  0.00    -0.184 C  
HETATM   12  C   UNL     1      -9.873  10.850  68.567  1.00  0.00    -0.188 C  
HETATM   13  C   UNL     1     -10.235   9.594  69.217  1.00  0.00    -0.215 A  
HETATM   14  C   UNL     1     -10.483   9.563  70.597  1.00  0.00    -0.374 A  
HETATM   15  C   UNL     1     -10.826   8.366  71.229  1.00  0.00    -0.293 A  
HETATM   16  C   UNL     1     -10.925   7.186  70.493  1.00  0.00    -0.287 A  
HETATM   17  C   UNL     1     -10.681   7.204  69.120  1.00  0.00    -0.216 A  
HETATM   18  C   UNL     1     -10.339   8.407  68.488  1.00  0.00    -0.232 A  
HETATM   19  C   UNL     1     -10.084   8.424  67.035  1.00  0.00    -0.284 C  
HETATM   20  O   UNL     1     -10.145   7.393  66.376  1.00  0.00    -0.143 OA 
ENDBRANCH   8  10
ENDBRANCH   6   8
ENDBRANCH   3   6
TORSDOF 3
ENDMDL
MODEL      168
REMARK 921   NORMALIZED FREE ENERGY PREDICTED BY IDOCK:   -3.50 KCAL/MOL
REMARK 922        TOTAL FREE ENERGY PREDICTED BY IDOCK:   -4.59 KCAL/MOL
REMARK 923 INTER-LIGAND FREE ENERGY PREDICTED BY IDOCK:   -4.16 KCAL/MOL
REMARK 924 INTRA-LIGAND FREE ENERGY PREDICTED BY IDOCK:   -0.43 KCAL/MOL
REMARK 927      BINDING AFFINITY PREDICTED BY RF-SCORE:    0.00 PKD
ROOT
HETATM    1  N   UNL     1     -12.661   9.752  70.567  1.00  0.00    -0.512 N  
HETATM    2  H1  UNL     1     -12.100   9.000  70.165  1.00  0.00     0.000 HD 
HETATM    3  C   UNL     1     -12.270  11.049  70.551  1.00  0.00    -0.381 C  
HETATM    4  H2  UNL     1     -13.555   9.517  70.999  1.00  0.00     0.000 HD 
HETATM    5  O   UNL     1     -12.943  11.953  71.033  1.00  0.00    -0.237 OA 
ENDROOT
BRANCH   3   6
HETATM    6  N   UNL     1     -11.057  11.266  69.947  1.00  0.00    -0.460 N  
HETATM    7  H   UNL     1     -10.203  10.975  70.422  1.00  0.00     0.000 HD 
BRANCH   6   8
HETATM    8  N   UNL     1     -10.971  11.863  68.723  1.00  0.00    -0.224 NA 
HETATM    9  H   UNL     1     -11.593  11.568  67.970  1.00  0.00     0.000 HD 
BRANCH   8  10
HETATM   10  C   UNL     1     -10.102  12.805  68.511  1.00  0.00    -0.185 C  
HETATM   11  C   UNL     1      -8.723  12.667  67.966  1.00  0.00    -0.190 C  
HETATM   12  C   UNL     1      -7.943  13.735  67.764  1.00  0.00    -0.170 C  
HETATM   13  C   UNL     1      -8.377  15.097  68.060  1.00  0.00    -0.147 A  
HETATM   14  C   UNL     1      -7.521  16.178  67.809  1.00  0.00    -0.150 A  
HETATM   15  C   UNL     1      -7.925  17.484  68.093  1.00  0.00    -0.250 A  
HETATM   16  C   UNL     1      -9.188  17.727  68.632  1.00  0.00    -0.264 A  
HETATM   17  C   UNL     1     -10.049  16.660  68.887  1.00  0.00    -0.274 A  
HETATM   18  C   UNL     1      -9.641  15.351  68.599  1.00  0.00    -0.204 A  
HETATM   19  C   UNL     1     -10.555  14.224  68.866  1.00  0.00    -0.245 C  
HETATM   20  O   UNL     1     -11.659  14.416  69.359  1.00  0.00    -0.268 OA 
ENDBRANCH   8  10
ENDBRANCH   6   8
ENDBRANCH   3   6
TORSDOF 3
ENDMDL
MODEL      169
REMARK 921   NORMALIZED FREE ENERGY PREDICTED BY IDOCK:   -3.49 KCAL/MOL
REMARK 922        TOTAL FREE ENERGY PREDICTED BY IDOCK:   -4.58 KCAL/MOL
REMARK 923 INTER-LIGAND FREE ENERGY PREDICTED BY IDOCK:   -4.15 KCAL/MOL
REMARK 924 INTRA-LIGAND FREE ENERGY PREDICTED BY IDOCK:   -0.43 KCAL/MOL
REMARK 927      BINDING AFFINITY PREDICTED BY RF-SCORE:    0.00 PKD
ROOT
HETATM    1  N   UNL     1      -9.227   7.904  65.307  1.00  0.00    -0.303 N  
HETATM    2  H1  UNL     1      -9.627   8.323  64.467  1.00  0.00     0.000 HD 
HETATM    3  C   UNL     1      -9.545   8.316  66.558  1.00  0.00    -0.244 C  
HETATM    4  H2  UNL     1      -8.557   7.141  65.201  1.00  0.00     0.000 HD 
HETATM    5  O   UNL     1      -9.064   7.813  67.567  1.00  0.00    -0.129 OA 
ENDROOT
BRANCH   3   6
HETATM    6  N   UNL     1     -10.454   9.343  66.600  1.00  0.00    -0.208 N  
HETATM    7  H   UNL     1     -11.249   9.281  67.235  1.00  0.00     0.000 HD 
BRANCH   6   8
HETATM    8  N   UNL     1     -10.315  10.445  65.808  1.00  0.00    -0.225 NA 
HETATM    9  H   UNL     1      -9.979  10.342  64.850  1.00  0.00     0.000 HD 
BRANCH   8  10
HETATM   10  C   UNL     1     -10.608  11.624  66.266  1.00  0.00    -0.258 C  
HETATM   11  C   UNL     1     -11.856  12.405  66.043  1.00  0.00    -0.459 C  
HETATM   12  C   UNL     1     -12.041  13.603  66.611  1.00  0.00    -0.459 C  
HETATM   13  C   UNL     1     -11.046  14.226  67.479  1.00  0.00    -0.309 A  
HETATM   14  C   UNL     1     -11.305  15.475  68.061  1.00  0.00    -0.332 A  
HETATM   15  C   UNL     1     -10.358  16.082  68.890  1.00  0.00    -0.235 A  
HETATM   16  C   UNL     1      -9.142  15.450  69.146  1.00  0.00    -0.243 A  
HETATM   17  C   UNL     1      -8.872  14.208  68.573  1.00  0.00    -0.173 A  
HETATM   18  C   UNL     1      -9.825  13.601  67.744  1.00  0.00    -0.232 A  
HETATM   19  C   UNL     1      -9.538  12.285  67.141  1.00  0.00    -0.200 C  
HETATM   20  O   UNL     1      -8.467  11.725  67.338  1.00  0.00    -0.145 OA 
ENDBRANCH   8  10
ENDBRANCH   6   8
ENDBRANCH   3   6
TORSDOF 3
ENDMDL
MODEL      170
REMARK 921   NORMALIZED FREE ENERGY PREDICTED BY IDOCK:   -3.47 KCAL/MOL
REMARK 922        TOTAL FREE ENERGY PREDICTED BY IDOCK:   -4.56 KCAL/MOL
REMARK 923 INTER-LIGAND FREE ENERGY PREDICTED BY IDOCK:   -4.27 KCAL/MOL
REMARK 924 INTRA-LIGAND FREE ENERGY PREDICTED BY IDOCK:   -0.29 KCAL/MOL
REMARK 927      BINDING AFFINITY PREDICTED BY RF-SCORE:    0.00 PKD
ROOT
HETATM    1  N   UNL     1      -8.382   7.998  68.341  1.00  0.00    -0.126 N  
HETATM    2  H1  UNL     1      -8.016   7.586  67.483  1.00  0.00     0.000 HD 
HETATM    3  C   UNL     1      -8.144   9.282  68.702  1.00  0.00    -0.105 C  
HETATM    4  H2  UNL     1      -8.954   7.418  68.956  1.00  0.00     0.000 HD 
HETATM    5  O   UNL     1      -8.584   9.777  69.733  1.00  0.00    -0.169 OA 
ENDROOT
BRANCH   3   6
HETATM    6  N   UNL     1      -7.368   9.983  67.812  1.00  0.00    -0.088 N  
HETATM    7  H   UNL     1      -6.440  10.296  68.095  1.00  0.00     0.000 HD 
BRANCH   6   8
HETATM    8  N   UNL     1      -7.816  10.271  66.555  1.00  0.00    -0.112 NA 
HETATM    9  H   UNL     1      -7.531   9.685  65.769  1.00  0.00     0.000 HD 
BRANCH   8  10
HETATM   10  C   UNL     1      -8.601  11.285  66.353  1.00  0.00    -0.174 C  
HETATM   11  C   UNL     1      -8.618  12.583  67.083  1.00  0.00    -0.200 C  
HETATM   12  C   UNL     1      -9.464  13.563  66.743  1.00  0.00    -0.272 C  
HETATM   13  C   UNL     1     -10.421  13.434  65.648  1.00  0.00    -0.293 A  
HETATM   14  C   UNL     1     -11.269  14.504  65.327  1.00  0.00    -0.352 A  
HETATM   15  C   UNL     1     -12.191  14.389  64.283  1.00  0.00    -0.450 A  
HETATM   16  C   UNL     1     -12.278  13.207  63.550  1.00  0.00    -0.552 A  
HETATM   17  C   UNL     1     -11.440  12.136  63.860  1.00  0.00    -0.519 A  
HETATM   18  C   UNL     1     -10.515  12.254  64.906  1.00  0.00    -0.321 A  
HETATM   19  C   UNL     1      -9.628  11.121  65.230  1.00  0.00    -0.230 C  
HETATM   20  O   UNL     1      -9.705  10.068  64.610  1.00  0.00    -0.310 OA 
ENDBRANCH   8  10
ENDBRANCH   6   8
ENDBRANCH   3   6
TORSDOF 3
ENDMDL
MODEL      171
REMARK 921   NORMALIZED FREE ENERGY PREDICTED BY IDOCK:   -3.46 KCAL/MOL
REMARK 922        TOTAL FREE ENERGY PREDICTED BY IDOCK:   -4.54 KCAL/MOL
REMARK 923 INTER-LIGAND FREE ENERGY PREDICTED BY IDOCK:   -4.24 KCAL/MOL
REMARK 924 INTRA-LIGAND FREE ENERGY PREDICTED BY IDOCK:   -0.30 KCAL/MOL
REMARK 927      BINDING AFFINITY PREDICTED BY RF-SCORE:    0.00 PKD
ROOT
HETATM    1  N   UNL     1      -9.940   7.609  66.891  1.00  0.00    -0.232 N  
HETATM    2  H1  UNL     1      -9.607   7.200  66.018  1.00  0.00     0.000 HD 
HETATM    3  C   UNL     1     -10.331   8.902  66.997  1.00  0.00    -0.269 C  
HETATM    4  H2  UNL     1      -9.981   7.018  67.722  1.00  0.00     0.000 HD 
HETATM    5  O   UNL     1     -10.731   9.392  68.046  1.00  0.00    -0.234 OA 
ENDROOT
BRANCH   3   6
HETATM    6  N   UNL     1     -10.243   9.615  65.828  1.00  0.00    -0.229 N  
HETATM    7  H   UNL     1     -10.898   9.417  65.071  1.00  0.00     0.000 HD 
BRANCH   6   8
HETATM    8  N   UNL     1      -9.298  10.584  65.658  1.00  0.00    -0.188 NA 
HETATM    9  H   UNL     1      -8.310  10.329  65.624  1.00  0.00     0.000 HD 
BRANCH   8  10
HETATM   10  C   UNL     1      -9.647  11.829  65.539  1.00  0.00    -0.201 C  
HETATM   11  C   UNL     1     -10.460  12.448  64.456  1.00  0.00    -0.352 C  
HETATM   12  C   UNL     1     -10.779  13.747  64.478  1.00  0.00    -0.405 C  
HETATM   13  C   UNL     1     -10.357  14.645  65.550  1.00  0.00    -0.383 A  
HETATM   14  C   UNL     1     -10.738  15.993  65.527  1.00  0.00    -0.374 A  
HETATM   15  C   UNL     1     -10.335  16.861  66.546  1.00  0.00    -0.299 A  
HETATM   16  C   UNL     1      -9.548  16.393  67.596  1.00  0.00    -0.227 A  
HETATM   17  C   UNL     1      -9.163  15.054  67.630  1.00  0.00    -0.182 A  
HETATM   18  C   UNL     1      -9.569  14.185  66.608  1.00  0.00    -0.301 A  
HETATM   19  C   UNL     1      -9.162  12.767  66.647  1.00  0.00    -0.212 C  
HETATM   20  O   UNL     1      -8.453  12.344  67.551  1.00  0.00    -0.155 OA 
ENDBRANCH   8  10
ENDBRANCH   6   8
ENDBRANCH   3   6
TORSDOF 3
ENDMDL
MODEL      172
REMARK 921   NORMALIZED FREE ENERGY PREDICTED BY IDOCK:   -3.44 KCAL/MOL
REMARK 922        TOTAL FREE ENERGY PREDICTED BY IDOCK:   -4.53 KCAL/MOL
REMARK 923 INTER-LIGAND FREE ENERGY PREDICTED BY IDOCK:   -4.16 KCAL/MOL
REMARK 924 INTRA-LIGAND FREE ENERGY PREDICTED BY IDOCK:   -0.37 KCAL/MOL
REMARK 927      BINDING AFFINITY PREDICTED BY RF-SCORE:    0.00 PKD
ROOT
HETATM    1  N   UNL     1      -8.345   7.017  64.179  1.00  0.00    -0.345 N  
HETATM    2  H1  UNL     1      -8.850   6.399  64.815  1.00  0.00     0.000 HD 
HETATM    3  C   UNL     1      -8.389   8.368  64.276  1.00  0.00    -0.083 C  
HETATM    4  H2  UNL     1      -7.782   6.600  63.438  1.00  0.00     0.000 HD 
HETATM    5  O   UNL     1      -7.783   9.110  63.513  1.00  0.00    -0.112 OA 
ENDROOT
BRANCH   3   6
HETATM    6  N   UNL     1      -9.170   8.834  65.305  1.00  0.00    -0.433 N  
HETATM    7  H   UNL     1     -10.138   9.093  65.119  1.00  0.00     0.000 HD 
BRANCH   6   8
HETATM    8  N   UNL     1      -8.675   8.959  66.570  1.00  0.00    -0.126 NA 
HETATM    9  H   UNL     1      -7.671   8.869  66.733  1.00  0.00     0.000 HD 
BRANCH   8  10
HETATM   10  C   UNL     1      -9.473   9.189  67.568  1.00  0.00    -0.139 C  
HETATM   11  C   UNL     1      -9.960   8.220  68.588  1.00  0.00    -0.203 C  
HETATM   12  C   UNL     1     -10.757   8.605  69.592  1.00  0.00    -0.204 C  
HETATM   13  C   UNL     1     -11.204   9.985  69.759  1.00  0.00    -0.307 A  
HETATM   14  C   UNL     1     -12.023  10.332  70.843  1.00  0.00    -0.473 A  
HETATM   15  C   UNL     1     -12.460  11.648  71.009  1.00  0.00    -0.436 A  
HETATM   16  C   UNL     1     -12.085  12.633  70.096  1.00  0.00    -0.368 A  
HETATM   17  C   UNL     1     -11.270  12.301  69.015  1.00  0.00    -0.319 A  
HETATM   18  C   UNL     1     -10.832  10.980  68.851  1.00  0.00    -0.262 A  
HETATM   19  C   UNL     1      -9.968  10.631  67.707  1.00  0.00    -0.167 C  
HETATM   20  O   UNL     1      -9.646  11.479  66.884  1.00  0.00    -0.183 OA 
ENDBRANCH   8  10
ENDBRANCH   6   8
ENDBRANCH   3   6
TORSDOF 3
ENDMDL
MODEL      173
REMARK 921   NORMALIZED FREE ENERGY PREDICTED BY IDOCK:   -3.40 KCAL/MOL
REMARK 922        TOTAL FREE ENERGY PREDICTED BY IDOCK:   -4.48 KCAL/MOL
REMARK 923 INTER-LIGAND FREE ENERGY PREDICTED BY IDOCK:   -4.26 KCAL/MOL
REMARK 924 INTRA-LIGAND FREE ENERGY PREDICTED BY IDOCK:   -0.21 KCAL/MOL
REMARK 927      BINDING AFFINITY PREDICTED BY RF-SCORE:    0.00 PKD
ROOT
HETATM    1  N   UNL     1      -8.103   6.765  64.614  1.00  0.00    -0.220 N  
HETATM    2  H1  UNL     1      -8.932   6.557  64.057  1.00  0.00     0.000 HD 
HETATM    3  C   UNL     1      -8.163   7.374  65.824  1.00  0.00    -0.135 C  
HETATM    4  H2  UNL     1      -7.188   6.504  64.246  1.00  0.00     0.000 HD 
HETATM    5  O   UNL     1      -7.168   7.624  66.493  1.00  0.00    -0.078 OA 
ENDROOT
BRANCH   3   6
HETATM    6  N   UNL     1      -9.435   7.685  66.236  1.00  0.00    -0.354 N  
HETATM    7  H   UNL     1     -10.148   7.898  65.539  1.00  0.00     0.000 HD 
BRANCH   6   8
HETATM    8  N   UNL     1      -9.763   7.714  67.560  1.00  0.00    -0.148 NA 
HETATM    9  H   UNL     1      -9.601   6.892  68.141  1.00  0.00     0.000 HD 
BRANCH   8  10
HETATM   10  C   UNL     1     -10.282   8.783  68.084  1.00  0.00    -0.205 C  
HETATM   11  C   UNL     1     -10.318  10.156  67.508  1.00  0.00    -0.279 C  
HETATM   12  C   UNL     1     -10.924  11.164  68.146  1.00  0.00    -0.292 C  
HETATM   13  C   UNL     1     -11.584  10.998  69.438  1.00  0.00    -0.383 A  
HETATM   14  C   UNL     1     -12.218  12.089  70.048  1.00  0.00    -0.280 A  
HETATM   15  C   UNL     1     -12.848  11.941  71.286  1.00  0.00    -0.391 A  
HETATM   16  C   UNL     1     -12.852  10.704  71.929  1.00  0.00    -0.487 A  
HETATM   17  C   UNL     1     -12.225   9.611  71.332  1.00  0.00    -0.471 A  
HETATM   18  C   UNL     1     -11.595   9.762  70.090  1.00  0.00    -0.239 A  
HETATM   19  C   UNL     1     -10.934   8.604  69.458  1.00  0.00    -0.055 C  
HETATM   20  O   UNL     1     -10.909   7.515  70.018  1.00  0.00    -0.247 OA 
ENDBRANCH   8  10
ENDBRANCH   6   8
ENDBRANCH   3   6
TORSDOF 3
ENDMDL
MODEL      174
REMARK 921   NORMALIZED FREE ENERGY PREDICTED BY IDOCK:   -3.38 KCAL/MOL
REMARK 922        TOTAL FREE ENERGY PREDICTED BY IDOCK:   -4.46 KCAL/MOL
REMARK 923 INTER-LIGAND FREE ENERGY PREDICTED BY IDOCK:   -4.46 KCAL/MOL
REMARK 924 INTRA-LIGAND FREE ENERGY PREDICTED BY IDOCK:    0.00 KCAL/MOL
REMARK 927      BINDING AFFINITY PREDICTED BY RF-SCORE:    0.00 PKD
ROOT
HETATM    1  N   UNL     1      -6.216  14.397  70.329  1.00  0.00    -0.169 N  
HETATM    2  H1  UNL     1      -6.366  14.781  71.263  1.00  0.00     0.000 HD 
HETATM    3  C   UNL     1      -6.377  15.127  69.199  1.00  0.00    -0.109 C  
HETATM    4  H2  UNL     1      -5.933  13.420  70.243  1.00  0.00     0.000 HD 
HETATM    5  O   UNL     1      -6.197  14.666  68.078  1.00  0.00    -0.130 OA 
ENDROOT
BRANCH   3   6
HETATM    6  N   UNL     1      -6.756  16.428  69.417  1.00  0.00    -0.211 N  
HETATM    7  H   UNL     1      -6.182  17.022  70.014  1.00  0.00     0.000 HD 
BRANCH   6   8
HETATM    8  N   UNL     1      -7.886  16.942  68.850  1.00  0.00    -0.248 NA 
HETATM    9  H   UNL     1      -7.957  17.945  68.682  1.00  0.00     0.000 HD 
BRANCH   8  10
HETATM   10  C   UNL     1      -8.870  16.160  68.523  1.00  0.00    -0.200 C  
HETATM   11  C   UNL     1      -9.797  15.434  69.433  1.00  0.00    -0.273 C  
HETATM   12  C   UNL     1     -10.799  14.685  68.957  1.00  0.00    -0.252 C  
HETATM   13  C   UNL     1     -11.054  14.526  67.527  1.00  0.00    -0.316 A  
HETATM   14  C   UNL     1     -12.131  13.744  67.089  1.00  0.00    -0.416 A  
HETATM   15  C   UNL     1     -12.380  13.581  65.724  1.00  0.00    -0.516 A  
HETATM   16  C   UNL     1     -11.557  14.195  64.782  1.00  0.00    -0.400 A  
HETATM   17  C   UNL     1     -10.482  14.976  65.206  1.00  0.00    -0.428 A  
HETATM   18  C   UNL     1     -10.236  15.139  66.575  1.00  0.00    -0.283 A  
HETATM   19  C   UNL     1      -9.099  15.968  67.021  1.00  0.00    -0.214 C  
HETATM   20  O   UNL     1      -8.353  16.498  66.208  1.00  0.00    -0.295 OA 
ENDBRANCH   8  10
ENDBRANCH   6   8
ENDBRANCH   3   6
TORSDOF 3
ENDMDL
MODEL      175
REMARK 921   NORMALIZED FREE ENERGY PREDICTED BY IDOCK:   -3.36 KCAL/MOL
REMARK 922        TOTAL FREE ENERGY PREDICTED BY IDOCK:   -4.43 KCAL/MOL
REMARK 923 INTER-LIGAND FREE ENERGY PREDICTED BY IDOCK:   -4.06 KCAL/MOL
REMARK 924 INTRA-LIGAND FREE ENERGY PREDICTED BY IDOCK:   -0.37 KCAL/MOL
REMARK 927      BINDING AFFINITY PREDICTED BY RF-SCORE:    0.00 PKD
ROOT
HETATM    1  N   UNL     1      -7.438   5.604  71.023  1.00  0.00    -0.087 N  
HETATM    2  H1  UNL     1      -6.643   6.097  70.616  1.00  0.00     0.000 HD 
HETATM    3  C   UNL     1      -8.724   5.959  70.786  1.00  0.00    -0.134 C  
HETATM    4  H2  UNL     1      -7.258   4.808  71.636  1.00  0.00     0.000 HD 
HETATM    5  O   UNL     1      -9.679   5.367  71.275  1.00  0.00    -0.152 OA 
ENDROOT
BRANCH   3   6
HETATM    6  N   UNL     1      -8.867   7.038  69.949  1.00  0.00    -0.142 N  
HETATM    7  H   UNL     1      -8.077   7.665  69.804  1.00  0.00     0.000 HD 
BRANCH   6   8
HETATM    8  N   UNL     1     -10.045   7.286  69.307  1.00  0.00    -0.178 NA 
HETATM    9  H   UNL     1     -10.743   6.547  69.224  1.00  0.00     0.000 HD 
BRANCH   8  10
HETATM   10  C   UNL     1     -10.282   8.458  68.801  1.00  0.00    -0.207 C  
HETATM   11  C   UNL     1     -10.069   8.904  67.396  1.00  0.00    -0.288 C  
HETATM   12  C   UNL     1     -10.394  10.140  67.000  1.00  0.00    -0.303 C  
HETATM   13  C   UNL     1     -10.974  11.132  67.902  1.00  0.00    -0.307 A  
HETATM   14  C   UNL     1     -11.312  12.405  67.423  1.00  0.00    -0.381 A  
HETATM   15  C   UNL     1     -11.863  13.361  68.280  1.00  0.00    -0.393 A  
HETATM   16  C   UNL     1     -12.081  13.058  69.623  1.00  0.00    -0.304 A  
HETATM   17  C   UNL     1     -11.749  11.795  70.111  1.00  0.00    -0.354 A  
HETATM   18  C   UNL     1     -11.198  10.837  69.250  1.00  0.00    -0.333 A  
HETATM   19  C   UNL     1     -10.850   9.500  69.768  1.00  0.00    -0.243 C  
HETATM   20  O   UNL     1     -11.016   9.224  70.950  1.00  0.00    -0.249 OA 
ENDBRANCH   8  10
ENDBRANCH   6   8
ENDBRANCH   3   6
TORSDOF 3
ENDMDL
MODEL      176
REMARK 921   NORMALIZED FREE ENERGY PREDICTED BY IDOCK:   -3.35 KCAL/MOL
REMARK 922        TOTAL FREE ENERGY PREDICTED BY IDOCK:   -4.42 KCAL/MOL
REMARK 923 INTER-LIGAND FREE ENERGY PREDICTED BY IDOCK:   -4.11 KCAL/MOL
REMARK 924 INTRA-LIGAND FREE ENERGY PREDICTED BY IDOCK:   -0.31 KCAL/MOL
REMARK 927      BINDING AFFINITY PREDICTED BY RF-SCORE:    0.00 PKD
ROOT
HETATM    1  N   UNL     1     -10.428  13.365  64.993  1.00  0.00    -0.346 N  
HETATM    2  H1  UNL     1      -9.847  13.583  64.183  1.00  0.00     0.000 HD 
HETATM    3  C   UNL     1     -10.120  13.768  66.249  1.00  0.00    -0.300 C  
HETATM    4  H2  UNL     1     -11.278  12.818  64.851  1.00  0.00     0.000 HD 
HETATM    5  O   UNL     1     -10.817  13.506  67.222  1.00  0.00    -0.271 OA 
ENDROOT
BRANCH   3   6
HETATM    6  N   UNL     1      -8.961  14.499  66.339  1.00  0.00    -0.469 N  
HETATM    7  H   UNL     1      -8.385  14.626  65.508  1.00  0.00     0.000 HD 
BRANCH   6   8
HETATM    8  N   UNL     1      -8.565  15.057  67.519  1.00  0.00    -0.170 NA 
HETATM    9  H   UNL     1      -8.920  14.685  68.401  1.00  0.00     0.000 HD 
BRANCH   8  10
HETATM   10  C   UNL     1      -7.740  16.060  67.527  1.00  0.00    -0.153 C  
HETATM   11  C   UNL     1      -6.252  16.015  67.552  1.00  0.00    -0.194 C  
HETATM   12  C   UNL     1      -5.520  17.135  67.519  1.00  0.00    -0.150 C  
HETATM   13  C   UNL     1      -6.117  18.467  67.461  1.00  0.00    -0.176 A  
HETATM   14  C   UNL     1      -5.297  19.602  67.410  1.00  0.00    -0.161 A  
HETATM   15  C   UNL     1      -5.858  20.881  67.358  1.00  0.00    -0.317 A  
HETATM   16  C   UNL     1      -7.243  21.040  67.357  1.00  0.00    -0.354 A  
HETATM   17  C   UNL     1      -8.069  19.918  67.407  1.00  0.00    -0.348 A  
HETATM   18  C   UNL     1      -7.504  18.637  67.458  1.00  0.00    -0.237 A  
HETATM   19  C   UNL     1      -8.380  17.451  67.508  1.00  0.00    -0.206 C  
HETATM   20  O   UNL     1      -9.598  17.573  67.530  1.00  0.00    -0.258 OA 
ENDBRANCH   8  10
ENDBRANCH   6   8
ENDBRANCH   3   6
TORSDOF 3
ENDMDL
MODEL      177
REMARK 921   NORMALIZED FREE ENERGY PREDICTED BY IDOCK:   -3.35 KCAL/MOL
REMARK 922        TOTAL FREE ENERGY PREDICTED BY IDOCK:   -4.41 KCAL/MOL
REMARK 923 INTER-LIGAND FREE ENERGY PREDICTED BY IDOCK:   -4.09 KCAL/MOL
REMARK 924 INTRA-LIGAND FREE ENERGY PREDICTED BY IDOCK:   -0.32 KCAL/MOL
REMARK 927      BINDING AFFINITY PREDICTED BY RF-SCORE:    0.00 PKD
ROOT
HETATM    1  N   UNL     1      -8.717  13.732  69.031  1.00  0.00    -0.361 N  
HETATM    2  H1  UNL     1      -9.248  13.611  69.895  1.00  0.00     0.000 HD 
HETATM    3  C   UNL     1      -9.306  13.848  67.817  1.00  0.00    -0.204 C  
HETATM    4  H2  UNL     1      -7.699  13.768  69.085  1.00  0.00     0.000 HD 
HETATM    5  O   UNL     1      -8.670  13.993  66.780  1.00  0.00    -0.203 OA 
ENDROOT
BRANCH   3   6
HETATM    6  N   UNL     1     -10.678  13.790  67.846  1.00  0.00    -0.244 N  
HETATM    7  H   UNL     1     -11.204  14.596  68.183  1.00  0.00     0.000 HD 
BRANCH   6   8
HETATM    8  N   UNL     1     -11.350  12.677  67.435  1.00  0.00    -0.294 NA 
HETATM    9  H   UNL     1     -12.020  12.743  66.669  1.00  0.00     0.000 HD 
BRANCH   8  10
HETATM   10  C   UNL     1     -11.141  11.533  68.013  1.00  0.00    -0.254 C  
HETATM   11  C   UNL     1     -11.359  11.181  69.443  1.00  0.00    -0.352 C  
HETATM   12  C   UNL     1     -11.135   9.943  69.899  1.00  0.00    -0.318 C  
HETATM   13  C   UNL     1     -10.665   8.859  69.041  1.00  0.00    -0.148 A  
HETATM   14  C   UNL     1     -10.467   7.577  69.573  1.00  0.00    -0.227 A  
HETATM   15  C   UNL     1     -10.012   6.535  68.761  1.00  0.00    -0.155 A  
HETATM   16  C   UNL     1      -9.750   6.760  67.410  1.00  0.00    -0.164 A  
HETATM   17  C   UNL     1      -9.944   8.030  66.869  1.00  0.00    -0.338 A  
HETATM   18  C   UNL     1     -10.401   9.074  67.685  1.00  0.00    -0.317 A  
HETATM   19  C   UNL     1     -10.608  10.417  67.110  1.00  0.00    -0.261 C  
HETATM   20  O   UNL     1     -10.362  10.637  65.931  1.00  0.00    -0.255 OA 
ENDBRANCH   8  10
ENDBRANCH   6   8
ENDBRANCH   3   6
TORSDOF 3
ENDMDL
MODEL      178
REMARK 921   NORMALIZED FREE ENERGY PREDICTED BY IDOCK:   -3.34 KCAL/MOL
REMARK 922        TOTAL FREE ENERGY PREDICTED BY IDOCK:   -4.40 KCAL/MOL
REMARK 923 INTER-LIGAND FREE ENERGY PREDICTED BY IDOCK:   -3.84 KCAL/MOL
REMARK 924 INTRA-LIGAND FREE ENERGY PREDICTED BY IDOCK:   -0.57 KCAL/MOL
REMARK 927      BINDING AFFINITY PREDICTED BY RF-SCORE:    0.00 PKD
ROOT
HETATM    1  N   UNL     1      -8.693   6.347  65.259  1.00  0.00    -0.342 N  
HETATM    2  H1  UNL     1      -8.937   7.183  65.791  1.00  0.00     0.000 HD 
HETATM    3  C   UNL     1      -8.412   5.158  65.847  1.00  0.00    -0.121 C  
HETATM    4  H2  UNL     1      -8.660   6.407  64.242  1.00  0.00     0.000 HD 
HETATM    5  O   UNL     1      -8.119   4.154  65.209  1.00  0.00    -0.099 OA 
ENDROOT
BRANCH   3   6
HETATM    6  N   UNL     1      -8.486   5.174  67.217  1.00  0.00    -0.106 N  
HETATM    7  H   UNL     1      -7.678   5.483  67.757  1.00  0.00     0.000 HD 
BRANCH   6   8
HETATM    8  N   UNL     1      -9.619   4.785  67.871  1.00  0.00    -0.147 NA 
HETATM    9  H   UNL     1     -10.119   3.950  67.565  1.00  0.00     0.000 HD 
BRANCH   8  10
HETATM   10  C   UNL     1     -10.064   5.471  68.879  1.00  0.00    -0.198 C  
HETATM   11  C   UNL     1     -10.350   4.984  70.257  1.00  0.00    -0.299 C  
HETATM   12  C   UNL     1     -10.774   5.816  71.216  1.00  0.00    -0.323 C  
HETATM   13  C   UNL     1     -10.986   7.243  70.987  1.00  0.00    -0.272 A  
HETATM   14  C   UNL     1     -11.412   8.067  72.038  1.00  0.00    -0.364 A  
HETATM   15  C   UNL     1     -11.622   9.432  71.827  1.00  0.00    -0.433 A  
HETATM   16  C   UNL     1     -11.409   9.989  70.567  1.00  0.00    -0.409 A  
HETATM   17  C   UNL     1     -10.985   9.180  69.515  1.00  0.00    -0.138 A  
HETATM   18  C   UNL     1     -10.774   7.811  69.729  1.00  0.00    -0.236 A  
HETATM   19  C   UNL     1     -10.322   6.957  68.614  1.00  0.00    -0.186 C  
HETATM   20  O   UNL     1     -10.150   7.425  67.495  1.00  0.00    -0.161 OA 
ENDBRANCH   8  10
ENDBRANCH   6   8
ENDBRANCH   3   6
TORSDOF 3
ENDMDL
MODEL      179
REMARK 921   NORMALIZED FREE ENERGY PREDICTED BY IDOCK:   -3.33 KCAL/MOL
REMARK 922        TOTAL FREE ENERGY PREDICTED BY IDOCK:   -4.39 KCAL/MOL
REMARK 923 INTER-LIGAND FREE ENERGY PREDICTED BY IDOCK:   -4.15 KCAL/MOL
REMARK 924 INTRA-LIGAND FREE ENERGY PREDICTED BY IDOCK:   -0.24 KCAL/MOL
REMARK 927      BINDING AFFINITY PREDICTED BY RF-SCORE:    0.00 PKD
ROOT
HETATM    1  N   UNL     1      -9.279   9.369  64.284  1.00  0.00    -0.427 N  
HETATM    2  H1  UNL     1      -8.721   8.574  63.970  1.00  0.00     0.000 HD 
HETATM    3  C   UNL     1      -9.558   9.602  65.589  1.00  0.00    -0.271 C  
HETATM    4  H2  UNL     1      -9.643  10.016  63.585  1.00  0.00     0.000 HD 
HETATM    5  O   UNL     1     -10.229  10.555  65.967  1.00  0.00    -0.248 OA 
ENDROOT
BRANCH   3   6
HETATM    6  N   UNL     1      -9.024   8.679  66.454  1.00  0.00    -0.151 N  
HETATM    7  H   UNL     1      -8.012   8.627  66.566  1.00  0.00     0.000 HD 
BRANCH   6   8
HETATM    8  N   UNL     1      -9.820   7.831  67.167  1.00  0.00    -0.185 NA 
HETATM    9  H   UNL     1     -10.354   7.109  66.682  1.00  0.00     0.000 HD 
BRANCH   8  10
HETATM   10  C   UNL     1      -9.903   7.938  68.459  1.00  0.00    -0.177 C  
HETATM   11  C   UNL     1      -9.587   9.127  69.297  1.00  0.00    -0.159 C  
HETATM   12  C   UNL     1      -9.755   9.110  70.624  1.00  0.00    -0.314 C  
HETATM   13  C   UNL     1     -10.251   7.939  71.342  1.00  0.00    -0.226 A  
HETATM   14  C   UNL     1     -10.424   7.987  72.732  1.00  0.00    -0.415 A  
HETATM   15  C   UNL     1     -10.894   6.871  73.427  1.00  0.00    -0.303 A  
HETATM   16  C   UNL     1     -11.196   5.694  72.744  1.00  0.00    -0.347 A  
HETATM   17  C   UNL     1     -11.029   5.633  71.361  1.00  0.00    -0.260 A  
HETATM   18  C   UNL     1     -10.559   6.755  70.666  1.00  0.00    -0.257 A  
HETATM   19  C   UNL     1     -10.385   6.689  69.202  1.00  0.00    -0.194 C  
HETATM   20  O   UNL     1     -10.625   5.657  68.589  1.00  0.00    -0.217 OA 
ENDBRANCH   8  10
ENDBRANCH   6   8
ENDBRANCH   3   6
TORSDOF 3
ENDMDL
MODEL      180
REMARK 921   NORMALIZED FREE ENERGY PREDICTED BY IDOCK:   -3.30 KCAL/MOL
REMARK 922        TOTAL FREE ENERGY PREDICTED BY IDOCK:   -4.37 KCAL/MOL
REMARK 923 INTER-LIGAND FREE ENERGY PREDICTED BY IDOCK:   -4.31 KCAL/MOL
REMARK 924 INTRA-LIGAND FREE ENERGY PREDICTED BY IDOCK:   -0.06 KCAL/MOL
REMARK 927      BINDING AFFINITY PREDICTED BY RF-SCORE:    0.00 PKD
ROOT
HETATM    1  N   UNL     1      -8.004  12.767  68.807  1.00  0.00    -0.326 N  
HETATM    2  H1  UNL     1      -8.985  12.767  69.088  1.00  0.00     0.000 HD 
HETATM    3  C   UNL     1      -7.472  11.820  67.997  1.00  0.00    -0.101 C  
HETATM    4  H2  UNL     1      -7.398  13.512  69.150  1.00  0.00     0.000 HD 
HETATM    5  O   UNL     1      -6.294  11.819  67.659  1.00  0.00    -0.064 OA 
ENDROOT
BRANCH   3   6
HETATM    6  N   UNL     1      -8.365  10.862  67.585  1.00  0.00    -0.116 N  
HETATM    7  H   UNL     1      -8.023   9.932  67.341  1.00  0.00     0.000 HD 
BRANCH   6   8
HETATM    8  N   UNL     1      -9.700  11.129  67.496  1.00  0.00    -0.175 NA 
HETATM    9  H   UNL     1     -10.088  11.485  66.622  1.00  0.00     0.000 HD 
BRANCH   8  10
HETATM   10  C   UNL     1     -10.478  10.934  68.516  1.00  0.00    -0.188 C  
HETATM   11  C   UNL     1     -11.433  11.897  69.131  1.00  0.00    -0.356 C  
HETATM   12  C   UNL     1     -12.207  11.547  70.166  1.00  0.00    -0.387 C  
HETATM   13  C   UNL     1     -12.172  10.215  70.763  1.00  0.00    -0.434 A  
HETATM   14  C   UNL     1     -13.021   9.903  71.833  1.00  0.00    -0.545 A  
HETATM   15  C   UNL     1     -12.993   8.632  72.413  1.00  0.00    -0.403 A  
HETATM   16  C   UNL     1     -12.117   7.660  71.933  1.00  0.00    -0.333 A  
HETATM   17  C   UNL     1     -11.267   7.958  70.868  1.00  0.00    -0.284 A  
HETATM   18  C   UNL     1     -11.299   9.233  70.287  1.00  0.00    -0.238 A  
HETATM   19  C   UNL     1     -10.402   9.546  69.158  1.00  0.00    -0.207 C  
HETATM   20  O   UNL     1      -9.611   8.711  68.737  1.00  0.00    -0.153 OA 
ENDBRANCH   8  10
ENDBRANCH   6   8
ENDBRANCH   3   6
TORSDOF 3
ENDMDL
MODEL      181
REMARK 921   NORMALIZED FREE ENERGY PREDICTED BY IDOCK:   -3.30 KCAL/MOL
REMARK 922        TOTAL FREE ENERGY PREDICTED BY IDOCK:   -4.36 KCAL/MOL
REMARK 923 INTER-LIGAND FREE ENERGY PREDICTED BY IDOCK:   -3.97 KCAL/MOL
REMARK 924 INTRA-LIGAND FREE ENERGY PREDICTED BY IDOCK:   -0.39 KCAL/MOL
REMARK 927      BINDING AFFINITY PREDICTED BY RF-SCORE:    0.00 PKD
ROOT
HETATM    1  N   UNL     1      -9.350  13.757  66.691  1.00  0.00    -0.318 N  
HETATM    2  H1  UNL     1      -8.843  12.953  66.321  1.00  0.00     0.000 HD 
HETATM    3  C   UNL     1      -9.943  13.756  67.909  1.00  0.00    -0.240 C  
HETATM    4  H2  UNL     1      -9.413  14.600  66.119  1.00  0.00     0.000 HD 
HETATM    5  O   UNL     1     -10.553  14.721  68.354  1.00  0.00    -0.233 OA 
ENDROOT
BRANCH   3   6
HETATM    6  N   UNL     1      -9.802  12.580  68.604  1.00  0.00    -0.397 N  
HETATM    7  H   UNL     1     -10.309  12.453  69.479  1.00  0.00     0.000 HD 
BRANCH   6   8
HETATM    8  N   UNL     1      -8.995  11.579  68.147  1.00  0.00    -0.166 NA 
HETATM    9  H   UNL     1      -8.021  11.778  67.917  1.00  0.00     0.000 HD 
BRANCH   8  10
HETATM   10  C   UNL     1      -9.459  10.375  68.004  1.00  0.00    -0.143 C  
HETATM   11  C   UNL     1      -9.992   9.746  66.764  1.00  0.00    -0.278 C  
HETATM   12  C   UNL     1     -10.407   8.474  66.750  1.00  0.00    -0.346 C  
HETATM   13  C   UNL     1     -10.372   7.620  67.933  1.00  0.00    -0.270 A  
HETATM   14  C   UNL     1     -10.803   6.289  67.852  1.00  0.00    -0.417 A  
HETATM   15  C   UNL     1     -10.777   5.464  68.980  1.00  0.00    -0.144 A  
HETATM   16  C   UNL     1     -10.322   5.959  70.200  1.00  0.00    -0.305 A  
HETATM   17  C   UNL     1      -9.890   7.281  70.294  1.00  0.00    -0.179 A  
HETATM   18  C   UNL     1      -9.916   8.106  69.161  1.00  0.00    -0.192 A  
HETATM   19  C   UNL     1      -9.455   9.504  69.262  1.00  0.00    -0.169 C  
HETATM   20  O   UNL     1      -9.072   9.961  70.332  1.00  0.00    -0.170 OA 
ENDBRANCH   8  10
ENDBRANCH   6   8
ENDBRANCH   3   6
TORSDOF 3
ENDMDL
MODEL      182
REMARK 921   NORMALIZED FREE ENERGY PREDICTED BY IDOCK:   -3.28 KCAL/MOL
REMARK 922        TOTAL FREE ENERGY PREDICTED BY IDOCK:   -4.34 KCAL/MOL
REMARK 923 INTER-LIGAND FREE ENERGY PREDICTED BY IDOCK:   -4.01 KCAL/MOL
REMARK 924 INTRA-LIGAND FREE ENERGY PREDICTED BY IDOCK:   -0.33 KCAL/MOL
REMARK 927      BINDING AFFINITY PREDICTED BY RF-SCORE:    0.00 PKD
ROOT
HETATM    1  N   UNL     1      -7.092  10.171  68.260  1.00  0.00    -0.075 N  
HETATM    2  H1  UNL     1      -7.617  10.771  68.896  1.00  0.00     0.000 HD 
HETATM    3  C   UNL     1      -7.614   9.048  67.709  1.00  0.00    -0.093 C  
HETATM    4  H2  UNL     1      -6.132  10.427  68.027  1.00  0.00     0.000 HD 
HETATM    5  O   UNL     1      -6.984   8.327  66.945  1.00  0.00    -0.068 OA 
ENDROOT
BRANCH   3   6
HETATM    6  N   UNL     1      -8.910   8.788  68.079  1.00  0.00    -0.140 N  
HETATM    7  H   UNL     1      -9.097   8.383  68.996  1.00  0.00     0.000 HD 
BRANCH   6   8
HETATM    8  N   UNL     1      -9.954   9.061  67.243  1.00  0.00    -0.198 NA 
HETATM    9  H   UNL     1     -10.330   8.325  66.644  1.00  0.00     0.000 HD 
BRANCH   8  10
HETATM   10  C   UNL     1     -10.472  10.251  67.206  1.00  0.00    -0.253 C  
HETATM   11  C   UNL     1     -11.401  10.872  68.190  1.00  0.00    -0.383 C  
HETATM   12  C   UNL     1     -11.831  12.131  68.045  1.00  0.00    -0.351 C  
HETATM   13  C   UNL     1     -11.428  12.978  66.926  1.00  0.00    -0.387 A  
HETATM   14  C   UNL     1     -11.897  14.296  66.839  1.00  0.00    -0.458 A  
HETATM   15  C   UNL     1     -11.521  15.114  65.770  1.00  0.00    -0.172 A  
HETATM   16  C   UNL     1     -10.674  14.625  64.777  1.00  0.00    -0.399 A  
HETATM   17  C   UNL     1     -10.201  13.316  64.852  1.00  0.00    -0.313 A  
HETATM   18  C   UNL     1     -10.578  12.498  65.926  1.00  0.00    -0.292 A  
HETATM   19  C   UNL     1     -10.074  11.114  66.006  1.00  0.00    -0.244 C  
HETATM   20  O   UNL     1      -9.347  10.661  65.131  1.00  0.00    -0.186 OA 
ENDBRANCH   8  10
ENDBRANCH   6   8
ENDBRANCH   3   6
TORSDOF 3
ENDMDL
MODEL      183
REMARK 921   NORMALIZED FREE ENERGY PREDICTED BY IDOCK:   -3.27 KCAL/MOL
REMARK 922        TOTAL FREE ENERGY PREDICTED BY IDOCK:   -4.32 KCAL/MOL
REMARK 923 INTER-LIGAND FREE ENERGY PREDICTED BY IDOCK:   -4.31 KCAL/MOL
REMARK 924 INTRA-LIGAND FREE ENERGY PREDICTED BY IDOCK:   -0.01 KCAL/MOL
REMARK 927      BINDING AFFINITY PREDICTED BY RF-SCORE:    0.00 PKD
ROOT
HETATM    1  N   UNL     1     -13.453  11.109  72.325  1.00  0.00    -0.527 N  
HETATM    2  H1  UNL     1     -12.694  11.787  72.263  1.00  0.00     0.000 HD 
HETATM    3  C   UNL     1     -13.456   9.943  71.634  1.00  0.00    -0.336 C  
HETATM    4  H2  UNL     1     -14.245  11.316  72.934  1.00  0.00     0.000 HD 
HETATM    5  O   UNL     1     -14.368   9.128  71.709  1.00  0.00    -0.241 OA 
ENDROOT
BRANCH   3   6
HETATM    6  N   UNL     1     -12.350   9.752  70.845  1.00  0.00    -0.380 N  
HETATM    7  H   UNL     1     -11.895   8.839  70.835  1.00  0.00     0.000 HD 
BRANCH   6   8
HETATM    8  N   UNL     1     -11.846  10.759  70.075  1.00  0.00    -0.313 NA 
HETATM    9  H   UNL     1     -11.929  11.727  70.387  1.00  0.00     0.000 HD 
BRANCH   8  10
HETATM   10  C   UNL     1     -11.261  10.493  68.946  1.00  0.00    -0.266 C  
HETATM   11  C   UNL     1     -11.307  11.285  67.687  1.00  0.00    -0.352 C  
HETATM   12  C   UNL     1     -10.621  10.910  66.601  1.00  0.00    -0.305 C  
HETATM   13  C   UNL     1      -9.788   9.711  66.569  1.00  0.00    -0.298 A  
HETATM   14  C   UNL     1      -9.078   9.380  65.407  1.00  0.00    -0.280 A  
HETATM   15  C   UNL     1      -8.282   8.233  65.365  1.00  0.00    -0.146 A  
HETATM   16  C   UNL     1      -8.187   7.403  66.481  1.00  0.00    -0.120 A  
HETATM   17  C   UNL     1      -8.889   7.721  67.643  1.00  0.00    -0.128 A  
HETATM   18  C   UNL     1      -9.685   8.874  67.682  1.00  0.00    -0.202 A  
HETATM   19  C   UNL     1     -10.425   9.210  68.914  1.00  0.00    -0.218 C  
HETATM   20  O   UNL     1     -10.370   8.481  69.896  1.00  0.00    -0.200 OA 
ENDBRANCH   8  10
ENDBRANCH   6   8
ENDBRANCH   3   6
TORSDOF 3
ENDMDL
MODEL      184
REMARK 921   NORMALIZED FREE ENERGY PREDICTED BY IDOCK:   -3.24 KCAL/MOL
REMARK 922        TOTAL FREE ENERGY PREDICTED BY IDOCK:   -4.29 KCAL/MOL
REMARK 923 INTER-LIGAND FREE ENERGY PREDICTED BY IDOCK:   -3.85 KCAL/MOL
REMARK 924 INTRA-LIGAND FREE ENERGY PREDICTED BY IDOCK:   -0.44 KCAL/MOL
REMARK 927      BINDING AFFINITY PREDICTED BY RF-SCORE:    0.00 PKD
ROOT
HETATM    1  N   UNL     1      -9.052   8.041  67.210  1.00  0.00    -0.133 N  
HETATM    2  H1  UNL     1      -8.767   8.717  67.919  1.00  0.00     0.000 HD 
HETATM    3  C   UNL     1     -10.152   7.260  67.338  1.00  0.00    -0.204 C  
HETATM    4  H2  UNL     1      -8.484   7.949  66.367  1.00  0.00     0.000 HD 
HETATM    5  O   UNL     1     -10.494   6.448  66.486  1.00  0.00    -0.170 OA 
ENDROOT
BRANCH   3   6
HETATM    6  N   UNL     1     -10.852   7.457  68.502  1.00  0.00    -0.417 N  
HETATM    7  H   UNL     1     -10.768   8.348  68.990  1.00  0.00     0.000 HD 
BRANCH   6   8
HETATM    8  N   UNL     1     -11.657   6.484  69.018  1.00  0.00    -0.594 NA 
HETATM    9  H   UNL     1     -12.373   6.054  68.431  1.00  0.00     0.000 HD 
BRANCH   8  10
HETATM   10  C   UNL     1     -11.518   6.102  70.251  1.00  0.00    -0.287 C  
HETATM   11  C   UNL     1     -12.259   6.594  71.446  1.00  0.00    -0.378 C  
HETATM   12  C   UNL     1     -12.038   6.082  72.663  1.00  0.00    -0.028 C  
HETATM   13  C   UNL     1     -11.067   5.019  72.908  1.00  0.00    -0.348 A  
HETATM   14  C   UNL     1     -10.894   4.510  74.202  1.00  0.00    -0.269 A  
HETATM   15  C   UNL     1      -9.964   3.496  74.447  1.00  0.00    -0.186 A  
HETATM   16  C   UNL     1      -9.197   2.980  73.404  1.00  0.00    -0.097 A  
HETATM   17  C   UNL     1      -9.360   3.478  72.112  1.00  0.00    -0.178 A  
HETATM   18  C   UNL     1     -10.294   4.494  71.869  1.00  0.00    -0.198 A  
HETATM   19  C   UNL     1     -10.467   5.017  70.500  1.00  0.00    -0.160 C  
HETATM   20  O   UNL     1      -9.786   4.591  69.576  1.00  0.00    -0.204 OA 
ENDBRANCH   8  10
ENDBRANCH   6   8
ENDBRANCH   3   6
TORSDOF 3
ENDMDL
MODEL      185
REMARK 921   NORMALIZED FREE ENERGY PREDICTED BY IDOCK:   -3.21 KCAL/MOL
REMARK 922        TOTAL FREE ENERGY PREDICTED BY IDOCK:   -4.26 KCAL/MOL
REMARK 923 INTER-LIGAND FREE ENERGY PREDICTED BY IDOCK:   -3.91 KCAL/MOL
REMARK 924 INTRA-LIGAND FREE ENERGY PREDICTED BY IDOCK:   -0.35 KCAL/MOL
REMARK 927      BINDING AFFINITY PREDICTED BY RF-SCORE:    0.00 PKD
ROOT
HETATM    1  N   UNL     1     -11.195   9.860  68.054  1.00  0.00    -0.521 N  
HETATM    2  H1  UNL     1     -10.559   9.064  68.107  1.00  0.00     0.000 HD 
HETATM    3  C   UNL     1     -11.782  10.408  69.146  1.00  0.00    -0.119 C  
HETATM    4  H2  UNL     1     -11.398  10.263  67.138  1.00  0.00     0.000 HD 
HETATM    5  O   UNL     1     -12.545  11.364  69.082  1.00  0.00    -0.255 OA 
ENDROOT
BRANCH   3   6
HETATM    6  N   UNL     1     -11.446   9.801  70.331  1.00  0.00    -0.269 N  
HETATM    7  H   UNL     1     -10.811  10.275  70.972  1.00  0.00     0.000 HD 
BRANCH   6   8
HETATM    8  N   UNL     1     -11.946   8.577  70.667  1.00  0.00    -0.486 NA 
HETATM    9  H   UNL     1     -12.882   8.310  70.360  1.00  0.00     0.000 HD 
BRANCH   8  10
HETATM   10  C   UNL     1     -11.238   7.750  71.375  1.00  0.00    -0.246 C  
HETATM   11  C   UNL     1     -11.083   7.720  72.855  1.00  0.00    -0.457 C  
HETATM   12  C   UNL     1     -10.345   6.781  73.460  1.00  0.00    -0.342 C  
HETATM   13  C   UNL     1      -9.643   5.733  72.724  1.00  0.00    -0.159 A  
HETATM   14  C   UNL     1      -8.901   4.766  73.415  1.00  0.00    -0.105 A  
HETATM   15  C   UNL     1      -8.223   3.762  72.719  1.00  0.00    -0.090 A  
HETATM   16  C   UNL     1      -8.278   3.712  71.328  1.00  0.00    -0.076 A  
HETATM   17  C   UNL     1      -9.014   4.668  70.629  1.00  0.00    -0.162 A  
HETATM   18  C   UNL     1      -9.694   5.673  71.329  1.00  0.00    -0.211 A  
HETATM   19  C   UNL     1     -10.474   6.682  70.587  1.00  0.00    -0.217 C  
HETATM   20  O   UNL     1     -10.516   6.666  69.363  1.00  0.00    -0.194 OA 
ENDBRANCH   8  10
ENDBRANCH   6   8
ENDBRANCH   3   6
TORSDOF 3
ENDMDL
MODEL      186
REMARK 921   NORMALIZED FREE ENERGY PREDICTED BY IDOCK:   -3.21 KCAL/MOL
REMARK 922        TOTAL FREE ENERGY PREDICTED BY IDOCK:   -4.25 KCAL/MOL
REMARK 923 INTER-LIGAND FREE ENERGY PREDICTED BY IDOCK:   -4.10 KCAL/MOL
REMARK 924 INTRA-LIGAND FREE ENERGY PREDICTED BY IDOCK:   -0.15 KCAL/MOL
REMARK 927      BINDING AFFINITY PREDICTED BY RF-SCORE:    0.00 PKD
ROOT
HETATM    1  N   UNL     1     -13.121  10.343  72.271  1.00  0.00    -0.529 N  
HETATM    2  H1  UNL     1     -12.304  10.748  72.729  1.00  0.00     0.000 HD 
HETATM    3  C   UNL     1     -13.408   9.019  72.314  1.00  0.00    -0.467 C  
HETATM    4  H2  UNL     1     -13.750  10.961  71.758  1.00  0.00     0.000 HD 
HETATM    5  O   UNL     1     -14.388   8.532  71.764  1.00  0.00    -0.430 OA 
ENDROOT
BRANCH   3   6
HETATM    6  N   UNL     1     -12.506   8.269  73.028  1.00  0.00    -0.420 N  
HETATM    7  H   UNL     1     -12.827   7.741  73.838  1.00  0.00     0.000 HD 
BRANCH   6   8
HETATM    8  N   UNL     1     -11.189   8.218  72.675  1.00  0.00    -0.376 NA 
HETATM    9  H   UNL     1     -10.538   8.911  73.045  1.00  0.00     0.000 HD 
BRANCH   8  10
HETATM   10  C   UNL     1     -10.761   7.293  71.870  1.00  0.00    -0.215 C  
HETATM   11  C   UNL     1     -11.552   6.500  70.890  1.00  0.00    -0.417 C  
HETATM   12  C   UNL     1     -10.971   5.597  70.091  1.00  0.00    -0.303 C  
HETATM   13  C   UNL     1      -9.536   5.324  70.122  1.00  0.00    -0.241 A  
HETATM   14  C   UNL     1      -8.982   4.380  69.247  1.00  0.00    -0.148 A  
HETATM   15  C   UNL     1      -7.612   4.108  69.273  1.00  0.00    -0.054 A  
HETATM   16  C   UNL     1      -6.780   4.775  70.171  1.00  0.00    -0.037 A  
HETATM   17  C   UNL     1      -7.320   5.717  71.046  1.00  0.00    -0.085 A  
HETATM   18  C   UNL     1      -8.694   5.988  71.018  1.00  0.00    -0.132 A  
HETATM   19  C   UNL     1      -9.262   6.987  71.943  1.00  0.00    -0.140 C  
HETATM   20  O   UNL     1      -8.550   7.567  72.753  1.00  0.00    -0.109 OA 
ENDBRANCH   8  10
ENDBRANCH   6   8
ENDBRANCH   3   6
TORSDOF 3
ENDMDL
MODEL      187
REMARK 921   NORMALIZED FREE ENERGY PREDICTED BY IDOCK:   -3.20 KCAL/MOL
REMARK 922        TOTAL FREE ENERGY PREDICTED BY IDOCK:   -4.24 KCAL/MOL
REMARK 923 INTER-LIGAND FREE ENERGY PREDICTED BY IDOCK:   -4.64 KCAL/MOL
REMARK 924 INTRA-LIGAND FREE ENERGY PREDICTED BY IDOCK:    0.40 KCAL/MOL
REMARK 927      BINDING AFFINITY PREDICTED BY RF-SCORE:    0.00 PKD
ROOT
HETATM    1  N   UNL     1      -9.513   7.813  68.906  1.00  0.00    -0.150 N  
HETATM    2  H1  UNL     1      -9.701   7.819  67.903  1.00  0.00     0.000 HD 
HETATM    3  C   UNL     1     -10.140   8.640  69.777  1.00  0.00    -0.199 C  
HETATM    4  H2  UNL     1      -8.823   7.155  69.270  1.00  0.00     0.000 HD 
HETATM    5  O   UNL     1      -9.915   8.633  70.981  1.00  0.00    -0.188 OA 
ENDROOT
BRANCH   3   6
HETATM    6  N   UNL     1     -11.052   9.485  69.196  1.00  0.00    -0.425 N  
HETATM    7  H   UNL     1     -11.375   9.296  68.247  1.00  0.00     0.000 HD 
BRANCH   6   8
HETATM    8  N   UNL     1     -11.536  10.574  69.862  1.00  0.00    -0.286 NA 
HETATM    9  H   UNL     1     -11.914  10.465  70.803  1.00  0.00     0.000 HD 
BRANCH   8  10
HETATM   10  C   UNL     1     -11.518  11.746  69.305  1.00  0.00    -0.306 C  
HETATM   11  C   UNL     1     -11.988  13.036  69.880  1.00  0.00    -0.381 C  
HETATM   12  C   UNL     1     -11.875  14.185  69.203  1.00  0.00    -0.380 C  
HETATM   13  C   UNL     1     -11.291  14.259  67.867  1.00  0.00    -0.320 A  
HETATM   14  C   UNL     1     -11.182  15.495  67.216  1.00  0.00    -0.226 A  
HETATM   15  C   UNL     1     -10.629  15.576  65.935  1.00  0.00    -0.350 A  
HETATM   16  C   UNL     1     -10.180  14.424  65.290  1.00  0.00    -0.416 A  
HETATM   17  C   UNL     1     -10.282  13.189  65.928  1.00  0.00    -0.294 A  
HETATM   18  C   UNL     1     -10.836  13.111  67.213  1.00  0.00    -0.270 A  
HETATM   19  C   UNL     1     -10.941  11.803  67.887  1.00  0.00    -0.221 C  
HETATM   20  O   UNL     1     -10.572  10.778  67.327  1.00  0.00    -0.225 OA 
ENDBRANCH   8  10
ENDBRANCH   6   8
ENDBRANCH   3   6
TORSDOF 3
ENDMDL
MODEL      188
REMARK 921   NORMALIZED FREE ENERGY PREDICTED BY IDOCK:   -3.20 KCAL/MOL
REMARK 922        TOTAL FREE ENERGY PREDICTED BY IDOCK:   -4.24 KCAL/MOL
REMARK 923 INTER-LIGAND FREE ENERGY PREDICTED BY IDOCK:   -4.03 KCAL/MOL
REMARK 924 INTRA-LIGAND FREE ENERGY PREDICTED BY IDOCK:   -0.21 KCAL/MOL
REMARK 927      BINDING AFFINITY PREDICTED BY RF-SCORE:    0.00 PKD
ROOT
HETATM    1  N   UNL     1     -11.146  10.843  70.362  1.00  0.00    -0.459 N  
HETATM    2  H1  UNL     1     -11.915  11.048  69.723  1.00  0.00     0.000 HD 
HETATM    3  C   UNL     1     -10.835   9.586  70.761  1.00  0.00    -0.318 C  
HETATM    4  H2  UNL     1     -10.587  11.619  70.718  1.00  0.00     0.000 HD 
HETATM    5  O   UNL     1      -9.912   9.340  71.528  1.00  0.00    -0.307 OA 
ENDROOT
BRANCH   3   6
HETATM    6  N   UNL     1     -11.640   8.610  70.229  1.00  0.00    -0.461 N  
HETATM    7  H   UNL     1     -12.580   8.853  69.917  1.00  0.00     0.000 HD 
BRANCH   6   8
HETATM    8  N   UNL     1     -11.208   7.321  70.109  1.00  0.00    -0.356 NA 
HETATM    9  H   UNL     1     -11.266   6.690  70.909  1.00  0.00     0.000 HD 
BRANCH   8  10
HETATM   10  C   UNL     1     -10.722   6.894  68.983  1.00  0.00    -0.230 C  
HETATM   11  C   UNL     1     -10.603   7.640  67.700  1.00  0.00    -0.294 C  
HETATM   12  C   UNL     1     -10.043   7.083  66.619  1.00  0.00    -0.219 C  
HETATM   13  C   UNL     1      -9.517   5.721  66.616  1.00  0.00    -0.161 A  
HETATM   14  C   UNL     1      -8.925   5.200  65.457  1.00  0.00    -0.156 A  
HETATM   15  C   UNL     1      -8.422   3.896  65.442  1.00  0.00    -0.109 A  
HETATM   16  C   UNL     1      -8.507   3.099  66.582  1.00  0.00    -0.108 A  
HETATM   17  C   UNL     1      -9.093   3.606  67.741  1.00  0.00    -0.193 A  
HETATM   18  C   UNL     1      -9.595   4.914  67.754  1.00  0.00    -0.184 A  
HETATM   19  C   UNL     1     -10.213   5.450  68.982  1.00  0.00    -0.221 C  
HETATM   20  O   UNL     1     -10.314   4.756  69.986  1.00  0.00    -0.249 OA 
ENDBRANCH   8  10
ENDBRANCH   6   8
ENDBRANCH   3   6
TORSDOF 3
ENDMDL
MODEL      189
REMARK 921   NORMALIZED FREE ENERGY PREDICTED BY IDOCK:   -3.17 KCAL/MOL
REMARK 922        TOTAL FREE ENERGY PREDICTED BY IDOCK:   -4.20 KCAL/MOL
REMARK 923 INTER-LIGAND FREE ENERGY PREDICTED BY IDOCK:   -3.85 KCAL/MOL
REMARK 924 INTRA-LIGAND FREE ENERGY PREDICTED BY IDOCK:   -0.35 KCAL/MOL
REMARK 927      BINDING AFFINITY PREDICTED BY RF-SCORE:    0.00 PKD
ROOT
HETATM    1  N   UNL     1     -12.903   7.605  70.736  1.00  0.00    -0.546 N  
HETATM    2  H1  UNL     1     -13.471   7.685  69.893  1.00  0.00     0.000 HD 
HETATM    3  C   UNL     1     -11.758   6.881  70.786  1.00  0.00    -0.369 C  
HETATM    4  H2  UNL     1     -13.209   8.090  71.580  1.00  0.00     0.000 HD 
HETATM    5  O   UNL     1     -11.075   6.784  71.799  1.00  0.00    -0.230 OA 
ENDROOT
BRANCH   3   6
HETATM    6  N   UNL     1     -11.426   6.267  69.604  1.00  0.00    -0.512 N  
HETATM    7  H   UNL     1     -12.097   5.640  69.161  1.00  0.00     0.000 HD 
BRANCH   6   8
HETATM    8  N   UNL     1     -10.217   6.480  69.009  1.00  0.00    -0.167 NA 
HETATM    9  H   UNL     1      -9.504   5.750  69.033  1.00  0.00     0.000 HD 
BRANCH   8  10
HETATM   10  C   UNL     1      -9.967   7.606  68.413  1.00  0.00    -0.176 C  
HETATM   11  C   UNL     1     -10.474   8.070  67.092  1.00  0.00    -0.408 C  
HETATM   12  C   UNL     1     -10.164   9.280  66.611  1.00  0.00    -0.323 C  
HETATM   13  C   UNL     1      -9.314  10.222  67.334  1.00  0.00    -0.163 A  
HETATM   14  C   UNL     1      -9.040  11.483  66.787  1.00  0.00    -0.184 A  
HETATM   15  C   UNL     1      -8.225  12.390  67.469  1.00  0.00    -0.173 A  
HETATM   16  C   UNL     1      -7.675  12.049  68.704  1.00  0.00    -0.099 A  
HETATM   17  C   UNL     1      -7.941  10.798  69.259  1.00  0.00    -0.110 A  
HETATM   18  C   UNL     1      -8.759   9.890  68.573  1.00  0.00    -0.121 A  
HETATM   19  C   UNL     1      -9.042   8.568  69.163  1.00  0.00    -0.146 C  
HETATM   20  O   UNL     1      -8.549   8.243  70.237  1.00  0.00    -0.123 OA 
ENDBRANCH   8  10
ENDBRANCH   6   8
ENDBRANCH   3   6
TORSDOF 3
ENDMDL
MODEL      190
REMARK 921   NORMALIZED FREE ENERGY PREDICTED BY IDOCK:   -3.16 KCAL/MOL
REMARK 922        TOTAL FREE ENERGY PREDICTED BY IDOCK:   -4.20 KCAL/MOL
REMARK 923 INTER-LIGAND FREE ENERGY PREDICTED BY IDOCK:   -3.72 KCAL/MOL
REMARK 924 INTRA-LIGAND FREE ENERGY PREDICTED BY IDOCK:   -0.48 KCAL/MOL
REMARK 927      BINDING AFFINITY PREDICTED BY RF-SCORE:    0.00 PKD
ROOT
HETATM    1  N   UNL     1      -6.621   7.131  64.785  1.00  0.00    -0.042 N  
HETATM    2  H1  UNL     1      -6.416   7.858  65.471  1.00  0.00     0.000 HD 
HETATM    3  C   UNL     1      -7.884   6.773  64.447  1.00  0.00    -0.113 C  
HETATM    4  H2  UNL     1      -5.842   6.651  64.334  1.00  0.00     0.000 HD 
HETATM    5  O   UNL     1      -8.131   5.899  63.625  1.00  0.00    -0.117 OA 
ENDROOT
BRANCH   3   6
HETATM    6  N   UNL     1      -8.864   7.475  65.104  1.00  0.00    -0.361 N  
HETATM    7  H   UNL     1      -9.777   7.044  65.246  1.00  0.00     0.000 HD 
BRANCH   6   8
HETATM    8  N   UNL     1      -8.641   8.738  65.569  1.00  0.00    -0.164 NA 
HETATM    9  H   UNL     1      -7.913   9.313  65.145  1.00  0.00     0.000 HD 
BRANCH   8  10
HETATM   10  C   UNL     1      -9.349   9.211  66.550  1.00  0.00    -0.190 C  
HETATM   11  C   UNL     1     -10.367  10.296  66.497  1.00  0.00    -0.276 C  
HETATM   12  C   UNL     1     -11.054  10.662  67.586  1.00  0.00    -0.385 C  
HETATM   13  C   UNL     1     -10.858  10.034  68.890  1.00  0.00    -0.250 A  
HETATM   14  C   UNL     1     -11.622  10.447  69.990  1.00  0.00    -0.378 A  
HETATM   15  C   UNL     1     -11.439   9.856  71.243  1.00  0.00    -0.435 A  
HETATM   16  C   UNL     1     -10.491   8.847  71.411  1.00  0.00    -0.375 A  
HETATM   17  C   UNL     1      -9.726   8.427  70.324  1.00  0.00    -0.178 A  
HETATM   18  C   UNL     1      -9.913   9.021  69.069  1.00  0.00    -0.191 A  
HETATM   19  C   UNL     1      -9.103   8.573  67.919  1.00  0.00    -0.140 C  
HETATM   20  O   UNL     1      -8.252   7.703  68.054  1.00  0.00    -0.121 OA 
ENDBRANCH   8  10
ENDBRANCH   6   8
ENDBRANCH   3   6
TORSDOF 3
ENDMDL
MODEL      191
REMARK 921   NORMALIZED FREE ENERGY PREDICTED BY IDOCK:   -3.13 KCAL/MOL
REMARK 922        TOTAL FREE ENERGY PREDICTED BY IDOCK:   -4.16 KCAL/MOL
REMARK 923 INTER-LIGAND FREE ENERGY PREDICTED BY IDOCK:   -3.75 KCAL/MOL
REMARK 924 INTRA-LIGAND FREE ENERGY PREDICTED BY IDOCK:   -0.42 KCAL/MOL
REMARK 927      BINDING AFFINITY PREDICTED BY RF-SCORE:    0.00 PKD
ROOT
HETATM    1  N   UNL     1      -8.518   6.450  64.545  1.00  0.00    -0.344 N  
HETATM    2  H1  UNL     1      -8.432   5.535  64.990  1.00  0.00     0.000 HD 
HETATM    3  C   UNL     1      -8.355   7.614  65.220  1.00  0.00    -0.115 C  
HETATM    4  H2  UNL     1      -8.738   6.490  63.550  1.00  0.00     0.000 HD 
HETATM    5  O   UNL     1      -8.459   8.712  64.687  1.00  0.00    -0.171 OA 
ENDROOT
BRANCH   3   6
HETATM    6  N   UNL     1      -8.060   7.458  66.551  1.00  0.00    -0.113 N  
HETATM    7  H   UNL     1      -7.509   8.172  67.028  1.00  0.00     0.000 HD 
BRANCH   6   8
HETATM    8  N   UNL     1      -8.488   6.367  67.249  1.00  0.00    -0.112 NA 
HETATM    9  H   UNL     1      -8.181   5.434  66.971  1.00  0.00     0.000 HD 
BRANCH   8  10
HETATM   10  C   UNL     1      -9.284   6.508  68.266  1.00  0.00    -0.116 C  
HETATM   11  C   UNL     1     -10.703   6.074  68.379  1.00  0.00    -0.351 C  
HETATM   12  C   UNL     1     -11.399   6.252  69.508  1.00  0.00    -0.475 C  
HETATM   13  C   UNL     1     -10.828   6.879  70.697  1.00  0.00    -0.280 A  
HETATM   14  C   UNL     1     -11.602   7.020  71.857  1.00  0.00    -0.320 A  
HETATM   15  C   UNL     1     -11.065   7.622  72.998  1.00  0.00    -0.437 A  
HETATM   16  C   UNL     1      -9.752   8.090  72.994  1.00  0.00    -0.348 A  
HETATM   17  C   UNL     1      -8.972   7.954  71.846  1.00  0.00    -0.180 A  
HETATM   18  C   UNL     1      -9.512   7.349  70.703  1.00  0.00    -0.164 A  
HETATM   19  C   UNL     1      -8.684   7.204  69.491  1.00  0.00    -0.134 C  
HETATM   20  O   UNL     1      -7.536   7.629  69.462  1.00  0.00    -0.087 OA 
ENDBRANCH   8  10
ENDBRANCH   6   8
ENDBRANCH   3   6
TORSDOF 3
ENDMDL
MODEL      192
REMARK 921   NORMALIZED FREE ENERGY PREDICTED BY IDOCK:   -3.11 KCAL/MOL
REMARK 922        TOTAL FREE ENERGY PREDICTED BY IDOCK:   -4.14 KCAL/MOL
REMARK 923 INTER-LIGAND FREE ENERGY PREDICTED BY IDOCK:   -3.93 KCAL/MOL
REMARK 924 INTRA-LIGAND FREE ENERGY PREDICTED BY IDOCK:   -0.20 KCAL/MOL
REMARK 927      BINDING AFFINITY PREDICTED BY RF-SCORE:    0.00 PKD
ROOT
HETATM    1  N   UNL     1      -9.871   9.268  70.099  1.00  0.00    -0.199 N  
HETATM    2  H1  UNL     1      -9.541   9.337  69.136  1.00  0.00     0.000 HD 
HETATM    3  C   UNL     1     -10.873  10.037  70.590  1.00  0.00    -0.297 C  
HETATM    4  H2  UNL     1      -9.429   8.590  70.720  1.00  0.00     0.000 HD 
HETATM    5  O   UNL     1     -11.270   9.955  71.746  1.00  0.00    -0.154 OA 
ENDROOT
BRANCH   3   6
HETATM    6  N   UNL     1     -11.407  10.916  69.681  1.00  0.00    -0.267 N  
HETATM    7  H   UNL     1     -11.465  11.906  69.917  1.00  0.00     0.000 HD 
BRANCH   6   8
HETATM    8  N   UNL     1     -11.863  10.491  68.467  1.00  0.00    -0.745 NA 
HETATM    9  H   UNL     1     -12.791  10.072  68.392  1.00  0.00     0.000 HD 
BRANCH   8  10
HETATM   10  C   UNL     1     -11.124  10.615  67.407  1.00  0.00    -0.272 C  
HETATM   11  C   UNL     1     -10.807  11.863  66.659  1.00  0.00    -0.315 C  
HETATM   12  C   UNL     1      -9.994  11.851  65.596  1.00  0.00    -0.269 C  
HETATM   13  C   UNL     1      -9.367  10.631  65.095  1.00  0.00    -0.254 A  
HETATM   14  C   UNL     1      -8.509  10.686  63.988  1.00  0.00    -0.056 A  
HETATM   15  C   UNL     1      -7.907   9.523  63.500  1.00  0.00    -0.134 A  
HETATM   16  C   UNL     1      -8.155   8.295  64.109  1.00  0.00    -0.136 A  
HETATM   17  C   UNL     1      -9.007   8.227  65.211  1.00  0.00    -0.007 A  
HETATM   18  C   UNL     1      -9.608   9.395  65.700  1.00  0.00    -0.345 A  
HETATM   19  C   UNL     1     -10.506   9.322  66.869  1.00  0.00    -0.214 C  
HETATM   20  O   UNL     1     -10.752   8.248  67.403  1.00  0.00    -0.270 OA 
ENDBRANCH   8  10
ENDBRANCH   6   8
ENDBRANCH   3   6
TORSDOF 3
ENDMDL
MODEL      193
REMARK 921   NORMALIZED FREE ENERGY PREDICTED BY IDOCK:   -3.11 KCAL/MOL
REMARK 922        TOTAL FREE ENERGY PREDICTED BY IDOCK:   -4.14 KCAL/MOL
REMARK 923 INTER-LIGAND FREE ENERGY PREDICTED BY IDOCK:   -3.75 KCAL/MOL
REMARK 924 INTRA-LIGAND FREE ENERGY PREDICTED BY IDOCK:   -0.39 KCAL/MOL
REMARK 927      BINDING AFFINITY PREDICTED BY RF-SCORE:    0.00 PKD
ROOT
HETATM    1  N   UNL     1     -13.152  10.164  70.825  1.00  0.00    -0.552 N  
HETATM    2  H1  UNL     1     -13.499  10.225  69.868  1.00  0.00     0.000 HD 
HETATM    3  C   UNL     1     -12.477   9.086  71.295  1.00  0.00    -0.289 C  
HETATM    4  H2  UNL     1     -13.319  10.947  71.457  1.00  0.00     0.000 HD 
HETATM    5  O   UNL     1     -12.060   9.012  72.445  1.00  0.00    -0.324 OA 
ENDROOT
BRANCH   3   6
HETATM    6  N   UNL     1     -12.299   8.085  70.373  1.00  0.00    -0.278 N  
HETATM    7  H   UNL     1     -13.112   7.691  69.900  1.00  0.00     0.000 HD 
BRANCH   6   8
HETATM    8  N   UNL     1     -11.056   7.608  70.076  1.00  0.00    -0.377 NA 
HETATM    9  H   UNL     1     -10.795   6.663  70.359  1.00  0.00     0.000 HD 
BRANCH   8  10
HETATM   10  C   UNL     1     -10.204   8.349  69.435  1.00  0.00    -0.208 C  
HETATM   11  C   UNL     1      -9.204   9.292  70.009  1.00  0.00    -0.231 C  
HETATM   12  C   UNL     1      -8.356   9.970  69.227  1.00  0.00    -0.154 C  
HETATM   13  C   UNL     1      -8.348   9.841  67.773  1.00  0.00    -0.114 A  
HETATM   14  C   UNL     1      -7.422  10.564  67.008  1.00  0.00    -0.100 A  
HETATM   15  C   UNL     1      -7.410  10.450  65.616  1.00  0.00    -0.148 A  
HETATM   16  C   UNL     1      -8.321   9.615  64.971  1.00  0.00    -0.146 A  
HETATM   17  C   UNL     1      -9.247   8.890  65.721  1.00  0.00    -0.283 A  
HETATM   18  C   UNL     1      -9.256   9.005  67.117  1.00  0.00    -0.164 A  
HETATM   19  C   UNL     1     -10.235   8.235  67.909  1.00  0.00    -0.220 C  
HETATM   20  O   UNL     1     -11.056   7.513  67.358  1.00  0.00    -0.159 OA 
ENDBRANCH   8  10
ENDBRANCH   6   8
ENDBRANCH   3   6
TORSDOF 3
ENDMDL
MODEL      194
REMARK 921   NORMALIZED FREE ENERGY PREDICTED BY IDOCK:   -3.11 KCAL/MOL
REMARK 922        TOTAL FREE ENERGY PREDICTED BY IDOCK:   -4.13 KCAL/MOL
REMARK 923 INTER-LIGAND FREE ENERGY PREDICTED BY IDOCK:   -3.78 KCAL/MOL
REMARK 924 INTRA-LIGAND FREE ENERGY PREDICTED BY IDOCK:   -0.35 KCAL/MOL
REMARK 927      BINDING AFFINITY PREDICTED BY RF-SCORE:    0.00 PKD
ROOT
HETATM    1  N   UNL     1     -13.016  13.998  65.403  1.00  0.00    -0.743 N  
HETATM    2  H1  UNL     1     -13.535  13.525  66.144  1.00  0.00     0.000 HD 
HETATM    3  C   UNL     1     -11.710  14.340  65.523  1.00  0.00    -0.353 C  
HETATM    4  H2  UNL     1     -13.500  14.223  64.534  1.00  0.00     0.000 HD 
HETATM    5  O   UNL     1     -11.086  14.907  64.635  1.00  0.00    -0.372 OA 
ENDROOT
BRANCH   3   6
HETATM    6  N   UNL     1     -11.144  13.994  66.725  1.00  0.00    -0.301 N  
HETATM    7  H   UNL     1     -10.919  14.724  67.400  1.00  0.00     0.000 HD 
BRANCH   6   8
HETATM    8  N   UNL     1     -10.877  12.692  67.035  1.00  0.00    -0.249 NA 
HETATM    9  H   UNL     1     -11.546  12.155  67.588  1.00  0.00     0.000 HD 
BRANCH   8  10
HETATM   10  C   UNL     1      -9.778  12.133  66.631  1.00  0.00    -0.219 C  
HETATM   11  C   UNL     1      -8.413  12.283  67.208  1.00  0.00    -0.181 C  
HETATM   12  C   UNL     1      -7.367  11.613  66.710  1.00  0.00    -0.083 C  
HETATM   13  C   UNL     1      -7.483  10.700  65.576  1.00  0.00    -0.063 A  
HETATM   14  C   UNL     1      -6.354  10.012  65.111  1.00  0.00    -0.114 A  
HETATM   15  C   UNL     1      -6.453   9.139  64.024  1.00  0.00    -0.088 A  
HETATM   16  C   UNL     1      -7.679   8.945  63.390  1.00  0.00    -0.124 A  
HETATM   17  C   UNL     1      -8.809   9.623  63.844  1.00  0.00    -0.255 A  
HETATM   18  C   UNL     1      -8.707  10.496  64.935  1.00  0.00    -0.192 A  
HETATM   19  C   UNL     1      -9.905  11.211  65.415  1.00  0.00    -0.242 C  
HETATM   20  O   UNL     1     -10.986  11.068  64.857  1.00  0.00    -0.203 OA 
ENDBRANCH   8  10
ENDBRANCH   6   8
ENDBRANCH   3   6
TORSDOF 3
ENDMDL
MODEL      195
REMARK 921   NORMALIZED FREE ENERGY PREDICTED BY IDOCK:   -3.09 KCAL/MOL
REMARK 922        TOTAL FREE ENERGY PREDICTED BY IDOCK:   -4.12 KCAL/MOL
REMARK 923 INTER-LIGAND FREE ENERGY PREDICTED BY IDOCK:   -3.80 KCAL/MOL
REMARK 924 INTRA-LIGAND FREE ENERGY PREDICTED BY IDOCK:   -0.31 KCAL/MOL
REMARK 927      BINDING AFFINITY PREDICTED BY RF-SCORE:    0.00 PKD
ROOT
HETATM    1  N   UNL     1     -11.339   4.809  73.562  1.00  0.00    -0.380 N  
HETATM    2  H1  UNL     1     -12.271   5.127  73.293  1.00  0.00     0.000 HD 
HETATM    3  C   UNL     1     -10.394   5.641  74.064  1.00  0.00    -0.279 C  
HETATM    4  H2  UNL     1     -11.108   3.822  73.449  1.00  0.00     0.000 HD 
HETATM    5  O   UNL     1      -9.276   5.260  74.388  1.00  0.00    -0.116 OA 
ENDROOT
BRANCH   3   6
HETATM    6  N   UNL     1     -10.798   6.948  74.182  1.00  0.00    -0.270 N  
HETATM    7  H   UNL     1     -10.793   7.392  75.100  1.00  0.00     0.000 HD 
BRANCH   6   8
HETATM    8  N   UNL     1     -11.207   7.664  73.095  1.00  0.00    -0.569 NA 
HETATM    9  H   UNL     1     -12.059   8.223  73.147  1.00  0.00     0.000 HD 
BRANCH   8  10
HETATM   10  C   UNL     1     -10.518   7.638  71.994  1.00  0.00    -0.213 C  
HETATM   11  C   UNL     1      -9.215   8.303  71.719  1.00  0.00    -0.261 C  
HETATM   12  C   UNL     1      -8.593   8.160  70.543  1.00  0.00    -0.130 C  
HETATM   13  C   UNL     1      -9.140   7.354  69.454  1.00  0.00    -0.139 A  
HETATM   14  C   UNL     1      -8.432   7.227  68.251  1.00  0.00    -0.124 A  
HETATM   15  C   UNL     1      -8.949   6.461  67.202  1.00  0.00    -0.109 A  
HETATM   16  C   UNL     1     -10.176   5.816  67.343  1.00  0.00    -0.243 A  
HETATM   17  C   UNL     1     -10.889   5.935  68.535  1.00  0.00    -0.323 A  
HETATM   18  C   UNL     1     -10.368   6.702  69.586  1.00  0.00    -0.226 A  
HETATM   19  C   UNL     1     -11.123   6.824  70.848  1.00  0.00    -0.277 C  
HETATM   20  O   UNL     1     -12.213   6.281  70.980  1.00  0.00    -0.146 OA 
ENDBRANCH   8  10
ENDBRANCH   6   8
ENDBRANCH   3   6
TORSDOF 3
ENDMDL
MODEL      196
REMARK 921   NORMALIZED FREE ENERGY PREDICTED BY IDOCK:   -3.08 KCAL/MOL
REMARK 922        TOTAL FREE ENERGY PREDICTED BY IDOCK:   -4.10 KCAL/MOL
REMARK 923 INTER-LIGAND FREE ENERGY PREDICTED BY IDOCK:   -3.77 KCAL/MOL
REMARK 924 INTRA-LIGAND FREE ENERGY PREDICTED BY IDOCK:   -0.33 KCAL/MOL
REMARK 927      BINDING AFFINITY PREDICTED BY RF-SCORE:    0.00 PKD
ROOT
HETATM    1  N   UNL     1      -6.610  11.943  69.973  1.00  0.00    -0.358 N  
HETATM    2  H1  UNL     1      -6.934  12.866  70.264  1.00  0.00     0.000 HD 
HETATM    3  C   UNL     1      -7.434  11.010  69.439  1.00  0.00    -0.072 C  
HETATM    4  H2  UNL     1      -5.623  11.713  70.090  1.00  0.00     0.000 HD 
HETATM    5  O   UNL     1      -7.045   9.901  69.090  1.00  0.00    -0.063 OA 
ENDROOT
BRANCH   3   6
HETATM    6  N   UNL     1      -8.741  11.412  69.319  1.00  0.00    -0.355 N  
HETATM    7  H   UNL     1      -9.367  11.318  70.118  1.00  0.00     0.000 HD 
BRANCH   6   8
HETATM    8  N   UNL     1      -9.217  11.935  68.153  1.00  0.00    -0.183 NA 
HETATM    9  H   UNL     1      -9.226  11.364  67.307  1.00  0.00     0.000 HD 
BRANCH   8  10
HETATM   10  C   UNL     1      -9.660  13.155  68.112  1.00  0.00    -0.227 C  
HETATM   11  C   UNL     1     -10.955  13.672  68.633  1.00  0.00    -0.290 C  
HETATM   12  C   UNL     1     -11.270  14.971  68.557  1.00  0.00    -0.298 C  
HETATM   13  C   UNL     1     -10.379  15.965  67.964  1.00  0.00    -0.262 A  
HETATM   14  C   UNL     1     -10.755  17.314  67.931  1.00  0.00    -0.351 A  
HETATM   15  C   UNL     1      -9.912  18.272  67.362  1.00  0.00    -0.344 A  
HETATM   16  C   UNL     1      -8.685  17.894  66.820  1.00  0.00    -0.269 A  
HETATM   17  C   UNL     1      -8.298  16.554  66.847  1.00  0.00    -0.245 A  
HETATM   18  C   UNL     1      -9.146  15.596  67.420  1.00  0.00    -0.203 A  
HETATM   19  C   UNL     1      -8.734  14.179  67.451  1.00  0.00    -0.210 C  
HETATM   20  O   UNL     1      -7.669  13.826  66.960  1.00  0.00    -0.045 OA 
ENDBRANCH   8  10
ENDBRANCH   6   8
ENDBRANCH   3   6
TORSDOF 3
ENDMDL
MODEL      197
REMARK 921   NORMALIZED FREE ENERGY PREDICTED BY IDOCK:   -3.07 KCAL/MOL
REMARK 922        TOTAL FREE ENERGY PREDICTED BY IDOCK:   -4.09 KCAL/MOL
REMARK 923 INTER-LIGAND FREE ENERGY PREDICTED BY IDOCK:   -3.66 KCAL/MOL
REMARK 924 INTRA-LIGAND FREE ENERGY PREDICTED BY IDOCK:   -0.43 KCAL/MOL
REMARK 927      BINDING AFFINITY PREDICTED BY RF-SCORE:    0.00 PKD
ROOT
HETATM    1  N   UNL     1      -9.467  14.672  69.168  1.00  0.00    -0.380 N  
HETATM    2  H1  UNL     1      -9.821  14.566  70.119  1.00  0.00     0.000 HD 
HETATM    3  C   UNL     1      -9.500  13.671  68.255  1.00  0.00    -0.213 C  
HETATM    4  H2  UNL     1      -9.070  15.570  68.891  1.00  0.00     0.000 HD 
HETATM    5  O   UNL     1      -9.075  13.797  67.113  1.00  0.00    -0.220 OA 
ENDROOT
BRANCH   3   6
HETATM    6  N   UNL     1     -10.054  12.503  68.718  1.00  0.00    -0.412 N  
HETATM    7  H   UNL     1     -11.068  12.393  68.711  1.00  0.00     0.000 HD 
BRANCH   6   8
HETATM    8  N   UNL     1      -9.274  11.486  69.188  1.00  0.00    -0.390 NA 
HETATM    9  H   UNL     1      -8.859  11.554  70.118  1.00  0.00     0.000 HD 
BRANCH   8  10
HETATM   10  C   UNL     1      -9.057  10.434  68.459  1.00  0.00    -0.145 C  
HETATM   11  C   UNL     1      -7.888  10.160  67.579  1.00  0.00    -0.102 C  
HETATM   12  C   UNL     1      -7.775   9.009  66.907  1.00  0.00    -0.098 C  
HETATM   13  C   UNL     1      -8.777   7.949  66.983  1.00  0.00    -0.132 A  
HETATM   14  C   UNL     1      -8.593   6.756  66.270  1.00  0.00    -0.141 A  
HETATM   15  C   UNL     1      -9.549   5.739  66.332  1.00  0.00    -0.175 A  
HETATM   16  C   UNL     1     -10.697   5.900  67.105  1.00  0.00    -0.387 A  
HETATM   17  C   UNL     1     -10.891   7.082  67.819  1.00  0.00    -0.276 A  
HETATM   18  C   UNL     1      -9.931   8.101  67.756  1.00  0.00    -0.230 A  
HETATM   19  C   UNL     1     -10.137   9.349  68.515  1.00  0.00    -0.187 C  
HETATM   20  O   UNL     1     -11.150   9.517  69.182  1.00  0.00    -0.171 OA 
ENDBRANCH   8  10
ENDBRANCH   6   8
ENDBRANCH   3   6
TORSDOF 3
ENDMDL
MODEL      198
REMARK 921   NORMALIZED FREE ENERGY PREDICTED BY IDOCK:   -3.07 KCAL/MOL
REMARK 922        TOTAL FREE ENERGY PREDICTED BY IDOCK:   -4.08 KCAL/MOL
REMARK 923 INTER-LIGAND FREE ENERGY PREDICTED BY IDOCK:   -4.09 KCAL/MOL
REMARK 924 INTRA-LIGAND FREE ENERGY PREDICTED BY IDOCK:    0.00 KCAL/MOL
REMARK 927      BINDING AFFINITY PREDICTED BY RF-SCORE:    0.00 PKD
ROOT
HETATM    1  N   UNL     1     -10.908  16.267  67.942  1.00  0.00    -0.334 N  
HETATM    2  H1  UNL     1     -10.613  16.096  66.980  1.00  0.00     0.000 HD 
HETATM    3  C   UNL     1     -10.213  15.818  69.015  1.00  0.00    -0.224 C  
HETATM    4  H2  UNL     1     -11.764  16.798  68.103  1.00  0.00     0.000 HD 
HETATM    5  O   UNL     1     -10.566  16.022  70.170  1.00  0.00    -0.306 OA 
ENDROOT
BRANCH   3   6
HETATM    6  N   UNL     1      -9.076  15.116  68.698  1.00  0.00    -0.187 N  
HETATM    7  H   UNL     1      -8.757  14.375  69.320  1.00  0.00     0.000 HD 
BRANCH   6   8
HETATM    8  N   UNL     1      -8.366  15.392  67.566  1.00  0.00    -0.163 NA 
HETATM    9  H   UNL     1      -8.175  14.648  66.893  1.00  0.00     0.000 HD 
BRANCH   8  10
HETATM   10  C   UNL     1      -7.931  16.594  67.340  1.00  0.00    -0.163 C  
HETATM   11  C   UNL     1      -8.130  17.420  66.117  1.00  0.00    -0.255 C  
HETATM   12  C   UNL     1      -7.653  18.668  66.033  1.00  0.00    -0.236 C  
HETATM   13  C   UNL     1      -6.911  19.304  67.118  1.00  0.00    -0.206 A  
HETATM   14  C   UNL     1      -6.453  20.621  66.978  1.00  0.00    -0.324 A  
HETATM   15  C   UNL     1      -5.738  21.237  68.009  1.00  0.00    -0.373 A  
HETATM   16  C   UNL     1      -5.472  20.545  69.189  1.00  0.00    -0.352 A  
HETATM   17  C   UNL     1      -5.922  19.234  69.340  1.00  0.00    -0.284 A  
HETATM   18  C   UNL     1      -6.640  18.620  68.306  1.00  0.00    -0.233 A  
HETATM   19  C   UNL     1      -7.118  17.233  68.469  1.00  0.00    -0.220 C  
HETATM   20  O   UNL     1      -6.875  16.603  69.491  1.00  0.00    -0.231 OA 
ENDBRANCH   8  10
ENDBRANCH   6   8
ENDBRANCH   3   6
TORSDOF 3
ENDMDL
MODEL      199
REMARK 921   NORMALIZED FREE ENERGY PREDICTED BY IDOCK:   -3.03 KCAL/MOL
REMARK 922        TOTAL FREE ENERGY PREDICTED BY IDOCK:   -4.04 KCAL/MOL
REMARK 923 INTER-LIGAND FREE ENERGY PREDICTED BY IDOCK:   -3.66 KCAL/MOL
REMARK 924 INTRA-LIGAND FREE ENERGY PREDICTED BY IDOCK:   -0.38 KCAL/MOL
REMARK 927      BINDING AFFINITY PREDICTED BY RF-SCORE:    0.00 PKD
ROOT
HETATM    1  N   UNL     1      -8.308   3.215  73.327  1.00  0.00    -0.073 N  
HETATM    2  H1  UNL     1      -7.659   3.884  72.911  1.00  0.00     0.000 HD 
HETATM    3  C   UNL     1      -9.650   3.402  73.339  1.00  0.00    -0.107 C  
HETATM    4  H2  UNL     1      -7.930   2.368  73.752  1.00  0.00     0.000 HD 
HETATM    5  O   UNL     1     -10.429   2.599  73.838  1.00  0.00    -0.124 OA 
ENDROOT
BRANCH   3   6
HETATM    6  N   UNL     1     -10.063   4.567  72.742  1.00  0.00    -0.159 N  
HETATM    7  H   UNL     1     -11.023   4.644  72.409  1.00  0.00     0.000 HD 
BRANCH   6   8
HETATM    8  N   UNL     1      -9.213   5.623  72.584  1.00  0.00    -0.138 NA 
HETATM    9  H   UNL     1      -8.371   5.686  73.157  1.00  0.00     0.000 HD 
BRANCH   8  10
HETATM   10  C   UNL     1      -9.470   6.547  71.709  1.00  0.00    -0.152 C  
HETATM   11  C   UNL     1      -8.856   6.725  70.364  1.00  0.00    -0.152 C  
HETATM   12  C   UNL     1      -9.245   7.709  69.544  1.00  0.00    -0.150 C  
HETATM   13  C   UNL     1     -10.284   8.670  69.903  1.00  0.00    -0.206 A  
HETATM   14  C   UNL     1     -10.662   9.668  68.994  1.00  0.00    -0.232 A  
HETATM   15  C   UNL     1     -11.652  10.595  69.329  1.00  0.00    -0.346 A  
HETATM   16  C   UNL     1     -12.275  10.537  70.575  1.00  0.00    -0.435 A  
HETATM   17  C   UNL     1     -11.908   9.549  71.488  1.00  0.00    -0.478 A  
HETATM   18  C   UNL     1     -10.916   8.620  71.148  1.00  0.00    -0.320 A  
HETATM   19  C   UNL     1     -10.531   7.574  72.115  1.00  0.00    -0.214 C  
HETATM   20  O   UNL     1     -11.052   7.521  73.222  1.00  0.00    -0.378 OA 
ENDBRANCH   8  10
ENDBRANCH   6   8
ENDBRANCH   3   6
TORSDOF 3
ENDMDL
MODEL      200
REMARK 921   NORMALIZED FREE ENERGY PREDICTED BY IDOCK:   -3.00 KCAL/MOL
REMARK 922        TOTAL FREE ENERGY PREDICTED BY IDOCK:   -4.00 KCAL/MOL
REMARK 923 INTER-LIGAND FREE ENERGY PREDICTED BY IDOCK:   -3.51 KCAL/MOL
REMARK 924 INTRA-LIGAND FREE ENERGY PREDICTED BY IDOCK:   -0.49 KCAL/MOL
REMARK 927      BINDING AFFINITY PREDICTED BY RF-SCORE:    0.00 PKD
ROOT
HETATM    1  N   UNL     1      -7.525   6.282  74.500  1.00  0.00    -0.096 N  
HETATM    2  H1  UNL     1      -8.129   5.991  75.269  1.00  0.00     0.000 HD 
HETATM    3  C   UNL     1      -7.501   5.649  73.302  1.00  0.00    -0.096 C  
HETATM    4  H2  UNL     1      -6.911   7.085  74.639  1.00  0.00     0.000 HD 
HETATM    5  O   UNL     1      -6.776   5.998  72.379  1.00  0.00    -0.065 OA 
ENDROOT
BRANCH   3   6
HETATM    6  N   UNL     1      -8.362   4.583  73.211  1.00  0.00    -0.099 N  
HETATM    7  H   UNL     1      -8.006   3.639  73.363  1.00  0.00     0.000 HD 
BRANCH   6   8
HETATM    8  N   UNL     1      -9.683   4.761  72.920  1.00  0.00    -0.137 NA 
HETATM    9  H   UNL     1     -10.388   4.587  73.636  1.00  0.00     0.000 HD 
BRANCH   8  10
HETATM   10  C   UNL     1     -10.048   5.151  71.736  1.00  0.00    -0.200 C  
HETATM   11  C   UNL     1     -10.887   6.329  71.383  1.00  0.00    -0.312 C  
HETATM   12  C   UNL     1     -11.157   6.636  70.109  1.00  0.00    -0.384 C  
HETATM   13  C   UNL     1     -10.657   5.850  68.984  1.00  0.00    -0.360 A  
HETATM   14  C   UNL     1     -10.957   6.234  67.670  1.00  0.00    -0.438 A  
HETATM   15  C   UNL     1     -10.487   5.485  66.588  1.00  0.00    -0.355 A  
HETATM   16  C   UNL     1      -9.713   4.347  66.805  1.00  0.00    -0.235 A  
HETATM   17  C   UNL     1      -9.407   3.955  68.107  1.00  0.00    -0.223 A  
HETATM   18  C   UNL     1      -9.879   4.708  69.191  1.00  0.00    -0.242 A  
HETATM   19  C   UNL     1      -9.551   4.293  70.569  1.00  0.00    -0.197 C  
HETATM   20  O   UNL     1      -8.891   3.284  70.778  1.00  0.00    -0.071 OA 
ENDBRANCH   8  10
ENDBRANCH   6   8
ENDBRANCH   3   6
TORSDOF 3
ENDMDL
MODEL      201
REMARK 921   NORMALIZED FREE ENERGY PREDICTED BY IDOCK:   -2.99 KCAL/MOL
REMARK 922        TOTAL FREE ENERGY PREDICTED BY IDOCK:   -4.00 KCAL/MOL
REMARK 923 INTER-LIGAND FREE ENERGY PREDICTED BY IDOCK:   -3.73 KCAL/MOL
REMARK 924 INTRA-LIGAND FREE ENERGY PREDICTED BY IDOCK:   -0.27 KCAL/MOL
REMARK 927      BINDING AFFINITY PREDICTED BY RF-SCORE:    0.00 PKD
ROOT
HETATM    1  N   UNL     1      -9.356   9.257  64.444  1.00  0.00    -0.404 N  
HETATM    2  H1  UNL     1      -8.751   8.480  64.177  1.00  0.00     0.000 HD 
HETATM    3  C   UNL     1      -9.926   9.359  65.669  1.00  0.00    -0.139 C  
HETATM    4  H2  UNL     1      -9.541   9.990  63.758  1.00  0.00     0.000 HD 
HETATM    5  O   UNL     1     -10.653  10.292  65.989  1.00  0.00    -0.157 OA 
ENDROOT
BRANCH   3   6
HETATM    6  N   UNL     1      -9.617   8.330  66.522  1.00  0.00    -0.228 N  
HETATM    7  H   UNL     1      -8.667   8.247  66.883  1.00  0.00     0.000 HD 
BRANCH   6   8
HETATM    8  N   UNL     1     -10.557   7.414  66.898  1.00  0.00    -0.447 NA 
HETATM    9  H   UNL     1     -11.321   7.182  66.263  1.00  0.00     0.000 HD 
BRANCH   8  10
HETATM   10  C   UNL     1     -10.485   6.838  68.060  1.00  0.00    -0.211 C  
HETATM   11  C   UNL     1     -10.993   7.348  69.363  1.00  0.00    -0.126 C  
HETATM   12  C   UNL     1     -10.883   6.628  70.485  1.00  0.00    -0.310 C  
HETATM   13  C   UNL     1     -10.263   5.306  70.516  1.00  0.00    -0.334 A  
HETATM   14  C   UNL     1     -10.194   4.591  71.720  1.00  0.00    -0.226 A  
HETATM   15  C   UNL     1      -9.598   3.327  71.760  1.00  0.00    -0.226 A  
HETATM   16  C   UNL     1      -9.065   2.765  70.602  1.00  0.00    -0.191 A  
HETATM   17  C   UNL     1      -9.128   3.466  69.399  1.00  0.00    -0.199 A  
HETATM   18  C   UNL     1      -9.727   4.732  69.360  1.00  0.00    -0.266 A  
HETATM   19  C   UNL     1      -9.795   5.472  68.085  1.00  0.00    -0.143 C  
HETATM   20  O   UNL     1      -9.312   5.002  67.062  1.00  0.00    -0.119 OA 
ENDBRANCH   8  10
ENDBRANCH   6   8
ENDBRANCH   3   6
TORSDOF 3
ENDMDL
MODEL      202
REMARK 921   NORMALIZED FREE ENERGY PREDICTED BY IDOCK:   -2.98 KCAL/MOL
REMARK 922        TOTAL FREE ENERGY PREDICTED BY IDOCK:   -3.99 KCAL/MOL
REMARK 923 INTER-LIGAND FREE ENERGY PREDICTED BY IDOCK:   -3.38 KCAL/MOL
REMARK 924 INTRA-LIGAND FREE ENERGY PREDICTED BY IDOCK:   -0.61 KCAL/MOL
REMARK 927      BINDING AFFINITY PREDICTED BY RF-SCORE:    0.00 PKD
ROOT
HETATM    1  N   UNL     1      -8.523   6.859  63.415  1.00  0.00    -0.329 N  
HETATM    2  H1  UNL     1      -9.175   6.366  64.027  1.00  0.00     0.000 HD 
HETATM    3  C   UNL     1      -8.188   8.160  63.592  1.00  0.00    -0.055 C  
HETATM    4  H2  UNL     1      -8.106   6.350  62.636  1.00  0.00     0.000 HD 
HETATM    5  O   UNL     1      -7.406   8.751  62.857  1.00  0.00    -0.094 OA 
ENDROOT
BRANCH   3   6
HETATM    6  N   UNL     1      -8.797   8.759  64.666  1.00  0.00    -0.407 N  
HETATM    7  H   UNL     1      -9.776   9.036  64.595  1.00  0.00     0.000 HD 
BRANCH   6   8
HETATM    8  N   UNL     1      -8.119   8.990  65.828  1.00  0.00    -0.106 NA 
HETATM    9  H   UNL     1      -7.125   9.219  65.798  1.00  0.00     0.000 HD 
BRANCH   8  10
HETATM   10  C   UNL     1      -8.731   8.919  66.971  1.00  0.00    -0.123 C  
HETATM   11  C   UNL     1      -9.031  10.032  67.914  1.00  0.00    -0.131 C  
HETATM   12  C   UNL     1      -9.707   9.821  69.049  1.00  0.00    -0.177 C  
HETATM   13  C   UNL     1     -10.194   8.502  69.444  1.00  0.00    -0.211 A  
HETATM   14  C   UNL     1     -10.913   8.347  70.637  1.00  0.00    -0.266 A  
HETATM   15  C   UNL     1     -11.379   7.089  71.026  1.00  0.00    -0.325 A  
HETATM   16  C   UNL     1     -11.131   5.972  70.230  1.00  0.00    -0.415 A  
HETATM   17  C   UNL     1     -10.417   6.113  69.041  1.00  0.00    -0.305 A  
HETATM   18  C   UNL     1      -9.952   7.376  68.653  1.00  0.00    -0.174 A  
HETATM   19  C   UNL     1      -9.199   7.524  67.392  1.00  0.00    -0.132 C  
HETATM   20  O   UNL     1      -8.954   6.550  66.692  1.00  0.00    -0.128 OA 
ENDBRANCH   8  10
ENDBRANCH   6   8
ENDBRANCH   3   6
TORSDOF 3
ENDMDL
MODEL      203
REMARK 921   NORMALIZED FREE ENERGY PREDICTED BY IDOCK:   -2.94 KCAL/MOL
REMARK 922        TOTAL FREE ENERGY PREDICTED BY IDOCK:   -3.94 KCAL/MOL
REMARK 923 INTER-LIGAND FREE ENERGY PREDICTED BY IDOCK:   -3.91 KCAL/MOL
REMARK 924 INTRA-LIGAND FREE ENERGY PREDICTED BY IDOCK:   -0.03 KCAL/MOL
REMARK 927      BINDING AFFINITY PREDICTED BY RF-SCORE:    0.00 PKD
ROOT
HETATM    1  N   UNL     1     -12.230  14.125  69.981  1.00  0.00    -0.341 N  
HETATM    2  H1  UNL     1     -12.383  13.603  69.118  1.00  0.00     0.000 HD 
HETATM    3  C   UNL     1     -11.987  15.458  70.000  1.00  0.00    -0.356 C  
HETATM    4  H2  UNL     1     -12.261  13.623  70.868  1.00  0.00     0.000 HD 
HETATM    5  O   UNL     1     -11.803  16.086  71.036  1.00  0.00    -0.395 OA 
ENDROOT
BRANCH   3   6
HETATM    6  N   UNL     1     -11.967  16.047  68.760  1.00  0.00    -0.426 N  
HETATM    7  H   UNL     1     -12.793  16.544  68.430  1.00  0.00     0.000 HD 
BRANCH   6   8
HETATM    8  N   UNL     1     -10.863  15.979  67.961  1.00  0.00    -0.324 NA 
HETATM    9  H   UNL     1     -10.328  16.825  67.762  1.00  0.00     0.000 HD 
BRANCH   8  10
HETATM   10  C   UNL     1     -10.489  14.844  67.453  1.00  0.00    -0.255 C  
HETATM   11  C   UNL     1     -11.307  13.890  66.655  1.00  0.00    -0.342 C  
HETATM   12  C   UNL     1     -10.779  12.765  66.157  1.00  0.00    -0.297 C  
HETATM   13  C   UNL     1      -9.381  12.393  66.358  1.00  0.00    -0.219 A  
HETATM   14  C   UNL     1      -8.881  11.211  65.795  1.00  0.00    -0.182 A  
HETATM   15  C   UNL     1      -7.546  10.845  65.985  1.00  0.00    -0.094 A  
HETATM   16  C   UNL     1      -6.697  11.653  66.739  1.00  0.00    -0.087 A  
HETATM   17  C   UNL     1      -7.182  12.832  67.303  1.00  0.00    -0.088 A  
HETATM   18  C   UNL     1      -8.521  13.197  67.110  1.00  0.00    -0.173 A  
HETATM   19  C   UNL     1      -9.032  14.447  67.706  1.00  0.00    -0.192 C  
HETATM   20  O   UNL     1      -8.306  15.158  68.389  1.00  0.00    -0.144 OA 
ENDBRANCH   8  10
ENDBRANCH   6   8
ENDBRANCH   3   6
TORSDOF 3
ENDMDL
MODEL      204
REMARK 921   NORMALIZED FREE ENERGY PREDICTED BY IDOCK:   -2.93 KCAL/MOL
REMARK 922        TOTAL FREE ENERGY PREDICTED BY IDOCK:   -3.92 KCAL/MOL
REMARK 923 INTER-LIGAND FREE ENERGY PREDICTED BY IDOCK:   -3.70 KCAL/MOL
REMARK 924 INTRA-LIGAND FREE ENERGY PREDICTED BY IDOCK:   -0.22 KCAL/MOL
REMARK 927      BINDING AFFINITY PREDICTED BY RF-SCORE:    0.00 PKD
ROOT
HETATM    1  N   UNL     1     -13.111   9.903  70.757  1.00  0.00    -0.578 N  
HETATM    2  H1  UNL     1     -12.247   9.838  70.218  1.00  0.00     0.000 HD 
HETATM    3  C   UNL     1     -13.366   9.121  71.834  1.00  0.00    -0.427 C  
HETATM    4  H2  UNL     1     -13.813  10.586  70.474  1.00  0.00     0.000 HD 
HETATM    5  O   UNL     1     -14.403   9.199  72.482  1.00  0.00    -0.529 OA 
ENDROOT
BRANCH   3   6
HETATM    6  N   UNL     1     -12.363   8.235  72.139  1.00  0.00    -0.345 N  
HETATM    7  H   UNL     1     -12.051   8.148  73.106  1.00  0.00     0.000 HD 
BRANCH   6   8
HETATM    8  N   UNL     1     -11.775   7.470  71.174  1.00  0.00    -0.285 NA 
HETATM    9  H   UNL     1     -12.352   6.884  70.570  1.00  0.00     0.000 HD 
BRANCH   8  10
HETATM   10  C   UNL     1     -10.486   7.483  71.021  1.00  0.00    -0.215 C  
HETATM   11  C   UNL     1      -9.521   8.510  71.501  1.00  0.00    -0.290 C  
HETATM   12  C   UNL     1      -8.204   8.377  71.304  1.00  0.00    -0.161 C  
HETATM   13  C   UNL     1      -7.622   7.231  70.611  1.00  0.00    -0.091 A  
HETATM   14  C   UNL     1      -6.232   7.139  70.451  1.00  0.00    -0.034 A  
HETATM   15  C   UNL     1      -5.666   6.048  69.786  1.00  0.00    -0.017 A  
HETATM   16  C   UNL     1      -6.480   5.040  69.272  1.00  0.00    -0.039 A  
HETATM   17  C   UNL     1      -7.863   5.120  69.425  1.00  0.00    -0.080 A  
HETATM   18  C   UNL     1      -8.428   6.214  70.094  1.00  0.00    -0.133 A  
HETATM   19  C   UNL     1      -9.893   6.296  70.257  1.00  0.00    -0.168 C  
HETATM   20  O   UNL     1     -10.624   5.430  69.793  1.00  0.00    -0.309 OA 
ENDBRANCH   8  10
ENDBRANCH   6   8
ENDBRANCH   3   6
TORSDOF 3
ENDMDL
MODEL      205
REMARK 921   NORMALIZED FREE ENERGY PREDICTED BY IDOCK:   -2.90 KCAL/MOL
REMARK 922        TOTAL FREE ENERGY PREDICTED BY IDOCK:   -3.89 KCAL/MOL
REMARK 923 INTER-LIGAND FREE ENERGY PREDICTED BY IDOCK:   -3.47 KCAL/MOL
REMARK 924 INTRA-LIGAND FREE ENERGY PREDICTED BY IDOCK:   -0.42 KCAL/MOL
REMARK 927      BINDING AFFINITY PREDICTED BY RF-SCORE:    0.00 PKD
ROOT
HETATM    1  N   UNL     1      -9.951  18.044  66.946  1.00  0.00    -0.323 N  
HETATM    2  H1  UNL     1      -9.439  17.925  66.071  1.00  0.00     0.000 HD 
HETATM    3  C   UNL     1     -10.061  17.061  67.873  1.00  0.00    -0.306 C  
HETATM    4  H2  UNL     1     -10.399  18.941  67.132  1.00  0.00     0.000 HD 
HETATM    5  O   UNL     1     -10.676  17.203  68.923  1.00  0.00    -0.323 OA 
ENDROOT
BRANCH   3   6
HETATM    6  N   UNL     1      -9.424  15.893  67.536  1.00  0.00    -0.218 N  
HETATM    7  H   UNL     1      -9.267  15.676  66.552  1.00  0.00     0.000 HD 
BRANCH   6   8
HETATM    8  N   UNL     1      -8.997  15.017  68.491  1.00  0.00    -0.179 NA 
HETATM    9  H   UNL     1      -8.883  15.333  69.454  1.00  0.00     0.000 HD 
BRANCH   8  10
HETATM   10  C   UNL     1      -8.735  13.784  68.180  1.00  0.00    -0.183 C  
HETATM   11  C   UNL     1      -7.402  13.124  68.116  1.00  0.00    -0.119 C  
HETATM   12  C   UNL     1      -7.279  11.826  67.815  1.00  0.00    -0.097 C  
HETATM   13  C   UNL     1      -8.428  10.970  67.530  1.00  0.00    -0.127 A  
HETATM   14  C   UNL     1      -8.237   9.612  67.240  1.00  0.00    -0.114 A  
HETATM   15  C   UNL     1      -9.329   8.787  66.962  1.00  0.00    -0.200 A  
HETATM   16  C   UNL     1     -10.622   9.307  66.968  1.00  0.00    -0.263 A  
HETATM   17  C   UNL     1     -10.825  10.656  67.256  1.00  0.00    -0.345 A  
HETATM   18  C   UNL     1      -9.728  11.482  67.536  1.00  0.00    -0.189 A  
HETATM   19  C   UNL     1      -9.945  12.908  67.842  1.00  0.00    -0.233 C  
HETATM   20  O   UNL     1     -11.072  13.387  67.832  1.00  0.00    -0.250 OA 
ENDBRANCH   8  10
ENDBRANCH   6   8
ENDBRANCH   3   6
TORSDOF 3
ENDMDL
MODEL      206
REMARK 921   NORMALIZED FREE ENERGY PREDICTED BY IDOCK:   -2.89 KCAL/MOL
REMARK 922        TOTAL FREE ENERGY PREDICTED BY IDOCK:   -3.88 KCAL/MOL
REMARK 923 INTER-LIGAND FREE ENERGY PREDICTED BY IDOCK:   -3.44 KCAL/MOL
REMARK 924 INTRA-LIGAND FREE ENERGY PREDICTED BY IDOCK:   -0.43 KCAL/MOL
REMARK 927      BINDING AFFINITY PREDICTED BY RF-SCORE:    0.00 PKD
ROOT
HETATM    1  N   UNL     1     -11.157   7.112  72.337  1.00  0.00    -0.253 N  
HETATM    2  H1  UNL     1     -12.153   7.334  72.353  1.00  0.00     0.000 HD 
HETATM    3  C   UNL     1     -10.205   8.026  72.032  1.00  0.00    -0.226 C  
HETATM    4  H2  UNL     1     -10.866   6.160  72.561  1.00  0.00     0.000 HD 
HETATM    5  O   UNL     1      -9.009   7.760  72.013  1.00  0.00    -0.122 OA 
ENDROOT
BRANCH   3   6
HETATM    6  N   UNL     1     -10.693   9.277  71.749  1.00  0.00    -0.337 N  
HETATM    7  H   UNL     1     -10.247  10.094  72.165  1.00  0.00     0.000 HD 
BRANCH   6   8
HETATM    8  N   UNL     1     -11.764   9.449  70.920  1.00  0.00    -0.294 NA 
HETATM    9  H   UNL     1     -12.673   9.067  71.181  1.00  0.00     0.000 HD 
BRANCH   8  10
HETATM   10  C   UNL     1     -11.631  10.097  69.802  1.00  0.00    -0.182 C  
HETATM   11  C   UNL     1     -11.886  11.542  69.551  1.00  0.00    -0.419 C  
HETATM   12  C   UNL     1     -11.671  12.089  68.348  1.00  0.00    -0.390 C  
HETATM   13  C   UNL     1     -11.180  11.320  67.208  1.00  0.00    -0.364 A  
HETATM   14  C   UNL     1     -10.957  11.954  65.978  1.00  0.00    -0.355 A  
HETATM   15  C   UNL     1     -10.491  11.226  64.879  1.00  0.00    -0.375 A  
HETATM   16  C   UNL     1     -10.245   9.859  64.996  1.00  0.00     0.044 A  
HETATM   17  C   UNL     1     -10.463   9.217  66.215  1.00  0.00    -0.084 A  
HETATM   18  C   UNL     1     -10.929   9.950  67.315  1.00  0.00    -0.187 A  
HETATM   19  C   UNL     1     -11.156   9.270  68.604  1.00  0.00     0.111 C  
HETATM   20  O   UNL     1     -10.966   8.065  68.719  1.00  0.00    -0.009 OA 
ENDBRANCH   8  10
ENDBRANCH   6   8
ENDBRANCH   3   6
TORSDOF 3
ENDMDL
MODEL      207
REMARK 921   NORMALIZED FREE ENERGY PREDICTED BY IDOCK:   -2.88 KCAL/MOL
REMARK 922        TOTAL FREE ENERGY PREDICTED BY IDOCK:   -3.87 KCAL/MOL
REMARK 923 INTER-LIGAND FREE ENERGY PREDICTED BY IDOCK:   -4.22 KCAL/MOL
REMARK 924 INTRA-LIGAND FREE ENERGY PREDICTED BY IDOCK:    0.35 KCAL/MOL
REMARK 927      BINDING AFFINITY PREDICTED BY RF-SCORE:    0.00 PKD
ROOT
HETATM    1  N   UNL     1      -7.022  12.277  66.926  1.00  0.00    -0.370 N  
HETATM    2  H1  UNL     1      -6.690  11.368  67.250  1.00  0.00     0.000 HD 
HETATM    3  C   UNL     1      -8.205  12.810  67.318  1.00  0.00    -0.181 C  
HETATM    4  H2  UNL     1      -6.438  12.809  66.280  1.00  0.00     0.000 HD 
HETATM    5  O   UNL     1      -8.605  13.901  66.929  1.00  0.00    -0.201 OA 
ENDROOT
BRANCH   3   6
HETATM    6  N   UNL     1      -8.918  12.024  68.189  1.00  0.00    -0.186 N  
HETATM    7  H   UNL     1      -9.850  12.318  68.479  1.00  0.00     0.000 HD 
BRANCH   6   8
HETATM    8  N   UNL     1      -8.403  10.857  68.673  1.00  0.00    -0.141 NA 
HETATM    9  H   UNL     1      -7.433  10.610  68.478  1.00  0.00     0.000 HD 
BRANCH   8  10
HETATM   10  C   UNL     1      -9.142  10.058  69.382  1.00  0.00    -0.215 C  
HETATM   11  C   UNL     1      -8.778   8.718  69.920  1.00  0.00    -0.135 C  
HETATM   12  C   UNL     1      -9.632   8.013  70.672  1.00  0.00    -0.172 C  
HETATM   13  C   UNL     1     -10.966   8.497  71.015  1.00  0.00    -0.296 A  
HETATM   14  C   UNL     1     -11.808   7.721  71.824  1.00  0.00    -0.328 A  
HETATM   15  C   UNL     1     -13.088   8.174  72.154  1.00  0.00    -0.267 A  
HETATM   16  C   UNL     1     -13.542   9.404  71.681  1.00  0.00    -0.437 A  
HETATM   17  C   UNL     1     -12.713  10.185  70.877  1.00  0.00    -0.448 A  
HETATM   18  C   UNL     1     -11.430   9.730  70.548  1.00  0.00    -0.370 A  
HETATM   19  C   UNL     1     -10.553  10.559  69.699  1.00  0.00    -0.242 C  
HETATM   20  O   UNL     1     -10.943  11.633  69.258  1.00  0.00    -0.232 OA 
ENDBRANCH   8  10
ENDBRANCH   6   8
ENDBRANCH   3   6
TORSDOF 3
ENDMDL
MODEL      208
REMARK 921   NORMALIZED FREE ENERGY PREDICTED BY IDOCK:   -2.87 KCAL/MOL
REMARK 922        TOTAL FREE ENERGY PREDICTED BY IDOCK:   -3.85 KCAL/MOL
REMARK 923 INTER-LIGAND FREE ENERGY PREDICTED BY IDOCK:   -3.62 KCAL/MOL
REMARK 924 INTRA-LIGAND FREE ENERGY PREDICTED BY IDOCK:   -0.23 KCAL/MOL
REMARK 927      BINDING AFFINITY PREDICTED BY RF-SCORE:    0.00 PKD
ROOT
HETATM    1  N   UNL     1     -12.155  14.819  67.645  1.00  0.00    -0.548 N  
HETATM    2  H1  UNL     1     -11.760  14.610  66.728  1.00  0.00     0.000 HD 
HETATM    3  C   UNL     1     -11.980  14.016  68.723  1.00  0.00    -0.347 C  
HETATM    4  H2  UNL     1     -12.707  15.670  67.756  1.00  0.00     0.000 HD 
HETATM    5  O   UNL     1     -12.455  14.267  69.824  1.00  0.00    -0.323 OA 
ENDROOT
BRANCH   3   6
HETATM    6  N   UNL     1     -11.222  12.899  68.477  1.00  0.00    -0.256 N  
HETATM    7  H   UNL     1     -11.485  12.012  68.906  1.00  0.00     0.000 HD 
BRANCH   6   8
HETATM    8  N   UNL     1     -10.123  12.951  67.669  1.00  0.00    -0.217 NA 
HETATM    9  H   UNL     1      -9.501  13.759  67.711  1.00  0.00     0.000 HD 
BRANCH   8  10
HETATM   10  C   UNL     1      -9.865  11.979  66.848  1.00  0.00    -0.204 C  
HETATM   11  C   UNL     1     -10.534  11.680  65.551  1.00  0.00    -0.321 C  
HETATM   12  C   UNL     1     -10.139  10.659  64.782  1.00  0.00    -0.412 C  
HETATM   13  C   UNL     1      -9.039   9.772  65.151  1.00  0.00    -0.270 A  
HETATM   14  C   UNL     1      -8.659   8.730  64.294  1.00  0.00    -0.093 A  
HETATM   15  C   UNL     1      -7.612   7.873  64.641  1.00  0.00    -0.109 A  
HETATM   16  C   UNL     1      -6.933   8.045  65.846  1.00  0.00    -0.057 A  
HETATM   17  C   UNL     1      -7.302   9.078  66.707  1.00  0.00    -0.086 A  
HETATM   18  C   UNL     1      -8.352   9.937  66.356  1.00  0.00    -0.125 A  
HETATM   19  C   UNL     1      -8.739  11.031  67.268  1.00  0.00    -0.129 C  
HETATM   20  O   UNL     1      -8.168  11.184  68.340  1.00  0.00    -0.129 OA 
ENDBRANCH   8  10
ENDBRANCH   6   8
ENDBRANCH   3   6
TORSDOF 3
ENDMDL
MODEL      209
REMARK 921   NORMALIZED FREE ENERGY PREDICTED BY IDOCK:   -2.86 KCAL/MOL
REMARK 922        TOTAL FREE ENERGY PREDICTED BY IDOCK:   -3.85 KCAL/MOL
REMARK 923 INTER-LIGAND FREE ENERGY PREDICTED BY IDOCK:   -3.49 KCAL/MOL
REMARK 924 INTRA-LIGAND FREE ENERGY PREDICTED BY IDOCK:   -0.36 KCAL/MOL
REMARK 927      BINDING AFFINITY PREDICTED BY RF-SCORE:    0.00 PKD
ROOT
HETATM    1  N   UNL     1     -10.262  11.378  69.083  1.00  0.00    -0.406 N  
HETATM    2  H1  UNL     1      -9.384  10.935  69.356  1.00  0.00     0.000 HD 
HETATM    3  C   UNL     1     -11.030  10.922  68.064  1.00  0.00    -0.265 C  
HETATM    4  H2  UNL     1     -10.575  12.200  69.599  1.00  0.00     0.000 HD 
HETATM    5  O   UNL     1     -12.084  11.454  67.736  1.00  0.00    -0.637 OA 
ENDROOT
BRANCH   3   6
HETATM    6  N   UNL     1     -10.529   9.811  67.433  1.00  0.00    -0.244 N  
HETATM    7  H   UNL     1     -10.580   9.748  66.416  1.00  0.00     0.000 HD 
BRANCH   6   8
HETATM    8  N   UNL     1      -9.963   8.789  68.138  1.00  0.00    -0.167 NA 
HETATM    9  H   UNL     1     -10.065   8.756  69.153  1.00  0.00     0.000 HD 
BRANCH   8  10
HETATM   10  C   UNL     1      -9.297   7.858  67.526  1.00  0.00    -0.143 C  
HETATM   11  C   UNL     1      -7.823   7.769  67.334  1.00  0.00    -0.118 C  
HETATM   12  C   UNL     1      -7.262   6.726  66.710  1.00  0.00    -0.076 C  
HETATM   13  C   UNL     1      -8.043   5.614  66.174  1.00  0.00    -0.108 A  
HETATM   14  C   UNL     1      -7.397   4.541  65.546  1.00  0.00    -0.080 A  
HETATM   15  C   UNL     1      -8.136   3.474  65.027  1.00  0.00    -0.090 A  
HETATM   16  C   UNL     1      -9.526   3.469  65.127  1.00  0.00    -0.158 A  
HETATM   17  C   UNL     1     -10.181   4.531  65.750  1.00  0.00    -0.289 A  
HETATM   18  C   UNL     1      -9.437   5.598  66.271  1.00  0.00    -0.171 A  
HETATM   19  C   UNL     1     -10.131   6.720  66.932  1.00  0.00    -0.202 C  
HETATM   20  O   UNL     1     -11.353   6.742  67.010  1.00  0.00    -0.337 OA 
ENDBRANCH   8  10
ENDBRANCH   6   8
ENDBRANCH   3   6
TORSDOF 3
ENDMDL
MODEL      210
REMARK 921   NORMALIZED FREE ENERGY PREDICTED BY IDOCK:   -2.85 KCAL/MOL
REMARK 922        TOTAL FREE ENERGY PREDICTED BY IDOCK:   -3.83 KCAL/MOL
REMARK 923 INTER-LIGAND FREE ENERGY PREDICTED BY IDOCK:   -3.65 KCAL/MOL
REMARK 924 INTRA-LIGAND FREE ENERGY PREDICTED BY IDOCK:   -0.19 KCAL/MOL
REMARK 927      BINDING AFFINITY PREDICTED BY RF-SCORE:    0.00 PKD
ROOT
HETATM    1  N   UNL     1      -9.890  11.277  67.137  1.00  0.00    -0.188 N  
HETATM    2  H1  UNL     1      -9.114  10.772  67.565  1.00  0.00     0.000 HD 
HETATM    3  C   UNL     1     -11.188  11.020  67.432  1.00  0.00    -0.285 C  
HETATM    4  H2  UNL     1      -9.681  12.009  66.457  1.00  0.00     0.000 HD 
HETATM    5  O   UNL     1     -12.120  11.627  66.918  1.00  0.00    -0.512 OA 
ENDROOT
BRANCH   3   6
HETATM    6  N   UNL     1     -11.369  10.023  68.357  1.00  0.00    -0.521 N  
HETATM    7  H   UNL     1     -11.850  10.234  69.231  1.00  0.00     0.000 HD 
BRANCH   6   8
HETATM    8  N   UNL     1     -10.918   8.755  68.131  1.00  0.00    -0.466 NA 
HETATM    9  H   UNL     1     -11.316   8.204  67.369  1.00  0.00     0.000 HD 
BRANCH   8  10
HETATM   10  C   UNL     1      -9.988   8.245  68.879  1.00  0.00    -0.186 C  
HETATM   11  C   UNL     1      -8.522   8.502  68.813  1.00  0.00    -0.123 C  
HETATM   12  C   UNL     1      -7.675   7.932  69.677  1.00  0.00    -0.103 C  
HETATM   13  C   UNL     1      -8.116   7.027  70.735  1.00  0.00    -0.113 A  
HETATM   14  C   UNL     1      -7.181   6.476  71.622  1.00  0.00    -0.086 A  
HETATM   15  C   UNL     1      -7.593   5.605  72.635  1.00  0.00    -0.098 A  
HETATM   16  C   UNL     1      -8.940   5.275  72.772  1.00  0.00    -0.122 A  
HETATM   17  C   UNL     1      -9.879   5.817  71.896  1.00  0.00    -0.195 A  
HETATM   18  C   UNL     1      -9.464   6.691  70.882  1.00  0.00    -0.169 A  
HETATM   19  C   UNL     1     -10.460   7.265  69.957  1.00  0.00    -0.224 C  
HETATM   20  O   UNL     1     -11.644   6.970  70.049  1.00  0.00    -0.254 OA 
ENDBRANCH   8  10
ENDBRANCH   6   8
ENDBRANCH   3   6
TORSDOF 3
ENDMDL
MODEL      211
REMARK 921   NORMALIZED FREE ENERGY PREDICTED BY IDOCK:   -2.85 KCAL/MOL
REMARK 922        TOTAL FREE ENERGY PREDICTED BY IDOCK:   -3.83 KCAL/MOL
REMARK 923 INTER-LIGAND FREE ENERGY PREDICTED BY IDOCK:   -3.36 KCAL/MOL
REMARK 924 INTRA-LIGAND FREE ENERGY PREDICTED BY IDOCK:   -0.47 KCAL/MOL
REMARK 927      BINDING AFFINITY PREDICTED BY RF-SCORE:    0.00 PKD
ROOT
HETATM    1  N   UNL     1     -10.403  13.339  63.955  1.00  0.00    -0.608 N  
HETATM    2  H1  UNL     1      -9.523  13.572  63.494  1.00  0.00     0.000 HD 
HETATM    3  C   UNL     1     -10.468  12.578  65.075  1.00  0.00    -0.297 C  
HETATM    4  H2  UNL     1     -11.272  13.694  63.556  1.00  0.00     0.000 HD 
HETATM    5  O   UNL     1     -11.524  12.297  65.629  1.00  0.00    -0.340 OA 
ENDROOT
BRANCH   3   6
HETATM    6  N   UNL     1      -9.248  12.149  65.537  1.00  0.00    -0.434 N  
HETATM    7  H   UNL     1      -8.826  12.616  66.339  1.00  0.00     0.000 HD 
BRANCH   6   8
HETATM    8  N   UNL     1      -8.590  11.111  64.945  1.00  0.00    -0.377 NA 
HETATM    9  H   UNL     1      -8.542  11.056  63.927  1.00  0.00     0.000 HD 
BRANCH   8  10
HETATM   10  C   UNL     1      -8.026  10.192  65.669  1.00  0.00    -0.147 C  
HETATM   11  C   UNL     1      -6.571   9.984  65.905  1.00  0.00    -0.098 C  
HETATM   12  C   UNL     1      -6.127   9.012  66.710  1.00  0.00    -0.061 C  
HETATM   13  C   UNL     1      -7.023   8.094  67.407  1.00  0.00    -0.075 A  
HETATM   14  C   UNL     1      -6.499   7.107  68.253  1.00  0.00    -0.044 A  
HETATM   15  C   UNL     1      -7.348   6.221  68.921  1.00  0.00    -0.086 A  
HETATM   16  C   UNL     1      -8.729   6.309  68.751  1.00  0.00    -0.121 A  
HETATM   17  C   UNL     1      -9.263   7.287  67.912  1.00  0.00    -0.131 A  
HETATM   18  C   UNL     1      -8.409   8.175  67.245  1.00  0.00    -0.121 A  
HETATM   19  C   UNL     1      -8.976   9.210  66.360  1.00  0.00    -0.149 C  
HETATM   20  O   UNL     1     -10.185   9.289  66.182  1.00  0.00    -0.273 OA 
ENDBRANCH   8  10
ENDBRANCH   6   8
ENDBRANCH   3   6
TORSDOF 3
ENDMDL
MODEL      212
REMARK 921   NORMALIZED FREE ENERGY PREDICTED BY IDOCK:   -2.81 KCAL/MOL
REMARK 922        TOTAL FREE ENERGY PREDICTED BY IDOCK:   -3.79 KCAL/MOL
REMARK 923 INTER-LIGAND FREE ENERGY PREDICTED BY IDOCK:   -3.59 KCAL/MOL
REMARK 924 INTRA-LIGAND FREE ENERGY PREDICTED BY IDOCK:   -0.20 KCAL/MOL
REMARK 927      BINDING AFFINITY PREDICTED BY RF-SCORE:    0.00 PKD
ROOT
HETATM    1  N   UNL     1      -8.193   5.469  68.814  1.00  0.00    -0.101 N  
HETATM    2  H1  UNL     1      -8.505   4.899  68.026  1.00  0.00     0.000 HD 
HETATM    3  C   UNL     1      -8.855   6.576  69.229  1.00  0.00    -0.132 C  
HETATM    4  H2  UNL     1      -7.346   5.192  69.311  1.00  0.00     0.000 HD 
HETATM    5  O   UNL     1      -8.481   7.259  70.174  1.00  0.00    -0.135 OA 
ENDROOT
BRANCH   3   6
HETATM    6  N   UNL     1      -9.982   6.866  68.501  1.00  0.00    -0.144 N  
HETATM    7  H   UNL     1     -10.078   6.491  67.558  1.00  0.00     0.000 HD 
BRANCH   6   8
HETATM    8  N   UNL     1     -10.977   7.645  69.016  1.00  0.00    -0.425 NA 
HETATM    9  H   UNL     1     -11.755   7.212  69.513  1.00  0.00     0.000 HD 
BRANCH   8  10
HETATM   10  C   UNL     1     -10.939   8.936  68.875  1.00  0.00     0.080 C  
HETATM   11  C   UNL     1     -11.197   9.973  69.911  1.00  0.00    -0.327 C  
HETATM   12  C   UNL     1     -11.086  11.278  69.634  1.00  0.00    -0.273 C  
HETATM   13  C   UNL     1     -10.711  11.776  68.313  1.00  0.00    -0.246 A  
HETATM   14  C   UNL     1     -10.593  13.154  68.090  1.00  0.00    -0.257 A  
HETATM   15  C   UNL     1     -10.239  13.640  66.829  1.00  0.00    -0.268 A  
HETATM   16  C   UNL     1     -10.001  12.757  65.777  1.00  0.00    -0.259 A  
HETATM   17  C   UNL     1     -10.115  11.383  65.987  1.00  0.00    -0.275 A  
HETATM   18  C   UNL     1     -10.468  10.898  67.254  1.00  0.00    -0.275 A  
HETATM   19  C   UNL     1     -10.586   9.444  67.474  1.00  0.00    -0.267 C  
HETATM   20  O   UNL     1     -10.401   8.654  66.557  1.00  0.00    -0.282 OA 
ENDBRANCH   8  10
ENDBRANCH   6   8
ENDBRANCH   3   6
TORSDOF 3
ENDMDL
MODEL      213
REMARK 921   NORMALIZED FREE ENERGY PREDICTED BY IDOCK:   -2.81 KCAL/MOL
REMARK 922        TOTAL FREE ENERGY PREDICTED BY IDOCK:   -3.78 KCAL/MOL
REMARK 923 INTER-LIGAND FREE ENERGY PREDICTED BY IDOCK:   -3.21 KCAL/MOL
REMARK 924 INTRA-LIGAND FREE ENERGY PREDICTED BY IDOCK:   -0.57 KCAL/MOL
REMARK 927      BINDING AFFINITY PREDICTED BY RF-SCORE:    0.00 PKD
ROOT
HETATM    1  N   UNL     1      -8.776  10.504  64.618  1.00  0.00    -0.186 N  
HETATM    2  H1  UNL     1      -8.058   9.985  65.125  1.00  0.00     0.000 HD 
HETATM    3  C   UNL     1      -9.763  11.193  65.240  1.00  0.00    -0.241 C  
HETATM    4  H2  UNL     1      -8.749  10.504  63.598  1.00  0.00     0.000 HD 
HETATM    5  O   UNL     1     -10.624  11.817  64.631  1.00  0.00    -0.278 OA 
ENDROOT
BRANCH   3   6
HETATM    6  N   UNL     1      -9.714  11.137  66.610  1.00  0.00    -0.192 N  
HETATM    7  H   UNL     1     -10.516  11.455  67.153  1.00  0.00     0.000 HD 
BRANCH   6   8
HETATM    8  N   UNL     1      -8.612  10.663  67.261  1.00  0.00    -0.126 NA 
HETATM    9  H   UNL     1      -7.680  10.917  66.932  1.00  0.00     0.000 HD 
BRANCH   8  10
HETATM   10  C   UNL     1      -8.743   9.890  68.297  1.00  0.00    -0.119 C  
HETATM   11  C   UNL     1      -8.347  10.177  69.704  1.00  0.00    -0.174 C  
HETATM   12  C   UNL     1      -8.576   9.298  70.686  1.00  0.00    -0.270 C  
HETATM   13  C   UNL     1      -9.221   8.007  70.456  1.00  0.00    -0.154 A  
HETATM   14  C   UNL     1      -9.451   7.136  71.529  1.00  0.00    -0.161 A  
HETATM   15  C   UNL     1     -10.063   5.898  71.318  1.00  0.00    -0.245 A  
HETATM   16  C   UNL     1     -10.450   5.515  70.035  1.00  0.00    -0.373 A  
HETATM   17  C   UNL     1     -10.227   6.374  68.959  1.00  0.00    -0.216 A  
HETATM   18  C   UNL     1      -9.614   7.616  69.173  1.00  0.00    -0.155 A  
HETATM   19  C   UNL     1      -9.382   8.524  68.034  1.00  0.00    -0.136 C  
HETATM   20  O   UNL     1      -9.696   8.195  66.897  1.00  0.00    -0.186 OA 
ENDBRANCH   8  10
ENDBRANCH   6   8
ENDBRANCH   3   6
TORSDOF 3
ENDMDL
MODEL      214
REMARK 921   NORMALIZED FREE ENERGY PREDICTED BY IDOCK:   -2.80 KCAL/MOL
REMARK 922        TOTAL FREE ENERGY PREDICTED BY IDOCK:   -3.78 KCAL/MOL
REMARK 923 INTER-LIGAND FREE ENERGY PREDICTED BY IDOCK:   -3.35 KCAL/MOL
REMARK 924 INTRA-LIGAND FREE ENERGY PREDICTED BY IDOCK:   -0.43 KCAL/MOL
REMARK 927      BINDING AFFINITY PREDICTED BY RF-SCORE:    0.00 PKD
ROOT
HETATM    1  N   UNL     1     -12.139   6.207  72.512  1.00  0.00    -0.537 N  
HETATM    2  H1  UNL     1     -12.569   7.109  72.718  1.00  0.00     0.000 HD 
HETATM    3  C   UNL     1     -11.090   6.068  71.665  1.00  0.00    -0.275 C  
HETATM    4  H2  UNL     1     -12.516   5.372  72.962  1.00  0.00     0.000 HD 
HETATM    5  O   UNL     1     -10.574   4.985  71.417  1.00  0.00    -0.183 OA 
ENDROOT
BRANCH   3   6
HETATM    6  N   UNL     1     -10.653   7.245  71.111  1.00  0.00    -0.222 N  
HETATM    7  H   UNL     1     -11.301   8.028  71.024  1.00  0.00     0.000 HD 
BRANCH   6   8
HETATM    8  N   UNL     1      -9.369   7.389  70.673  1.00  0.00    -0.161 NA 
HETATM    9  H   UNL     1      -8.639   6.770  71.030  1.00  0.00     0.000 HD 
BRANCH   8  10
HETATM   10  C   UNL     1      -9.069   8.308  69.807  1.00  0.00    -0.147 C  
HETATM   11  C   UNL     1      -8.234   9.523  70.020  1.00  0.00    -0.181 C  
HETATM   12  C   UNL     1      -7.974  10.374  69.020  1.00  0.00    -0.131 C  
HETATM   13  C   UNL     1      -8.484  10.180  67.665  1.00  0.00    -0.118 A  
HETATM   14  C   UNL     1      -8.161  11.097  66.656  1.00  0.00    -0.159 A  
HETATM   15  C   UNL     1      -8.647  10.922  65.357  1.00  0.00    -0.123 A  
HETATM   16  C   UNL     1      -9.460   9.832  65.053  1.00  0.00    -0.337 A  
HETATM   17  C   UNL     1      -9.788   8.912  66.049  1.00  0.00    -0.277 A  
HETATM   18  C   UNL     1      -9.298   9.089  67.350  1.00  0.00    -0.167 A  
HETATM   19  C   UNL     1      -9.644   8.114  68.402  1.00  0.00    -0.147 C  
HETATM   20  O   UNL     1     -10.375   7.162  68.157  1.00  0.00    -0.180 OA 
ENDBRANCH   8  10
ENDBRANCH   6   8
ENDBRANCH   3   6
TORSDOF 3
ENDMDL
MODEL      215
REMARK 921   NORMALIZED FREE ENERGY PREDICTED BY IDOCK:   -2.80 KCAL/MOL
REMARK 922        TOTAL FREE ENERGY PREDICTED BY IDOCK:   -3.77 KCAL/MOL
REMARK 923 INTER-LIGAND FREE ENERGY PREDICTED BY IDOCK:   -3.52 KCAL/MOL
REMARK 924 INTRA-LIGAND FREE ENERGY PREDICTED BY IDOCK:   -0.25 KCAL/MOL
REMARK 927      BINDING AFFINITY PREDICTED BY RF-SCORE:    0.00 PKD
ROOT
HETATM    1  N   UNL     1      -7.043  11.803  68.632  1.00  0.00    -0.095 N  
HETATM    2  H1  UNL     1      -7.794  11.700  69.315  1.00  0.00     0.000 HD 
HETATM    3  C   UNL     1      -6.722  12.991  68.066  1.00  0.00    -0.114 C  
HETATM    4  H2  UNL     1      -6.511  10.975  68.363  1.00  0.00     0.000 HD 
HETATM    5  O   UNL     1      -5.820  13.116  67.245  1.00  0.00    -0.343 OA 
ENDROOT
BRANCH   3   6
HETATM    6  N   UNL     1      -7.491  14.046  68.492  1.00  0.00    -0.118 N  
HETATM    7  H   UNL     1      -8.503  13.936  68.545  1.00  0.00     0.000 HD 
BRANCH   6   8
HETATM    8  N   UNL     1      -6.927  15.237  68.845  1.00  0.00    -0.118 NA 
HETATM    9  H   UNL     1      -6.281  15.278  69.634  1.00  0.00     0.000 HD 
BRANCH   8  10
HETATM   10  C   UNL     1      -7.209  16.319  68.184  1.00  0.00    -0.142 C  
HETATM   11  C   UNL     1      -8.394  17.204  68.349  1.00  0.00    -0.251 C  
HETATM   12  C   UNL     1      -8.541  18.317  67.619  1.00  0.00    -0.261 C  
HETATM   13  C   UNL     1      -7.564  18.738  66.618  1.00  0.00    -0.259 A  
HETATM   14  C   UNL     1      -7.763  19.924  65.898  1.00  0.00    -0.327 A  
HETATM   15  C   UNL     1      -6.837  20.334  64.936  1.00  0.00    -0.231 A  
HETATM   16  C   UNL     1      -5.703  19.564  64.681  1.00  0.00    -0.282 A  
HETATM   17  C   UNL     1      -5.493  18.383  65.391  1.00  0.00    -0.225 A  
HETATM   18  C   UNL     1      -6.423  17.975  66.357  1.00  0.00    -0.251 A  
HETATM   19  C   UNL     1      -6.197  16.726  67.109  1.00  0.00    -0.181 C  
HETATM   20  O   UNL     1      -5.218  16.027  66.883  1.00  0.00    -0.322 OA 
ENDBRANCH   8  10
ENDBRANCH   6   8
ENDBRANCH   3   6
TORSDOF 3
ENDMDL
MODEL      216
REMARK 921   NORMALIZED FREE ENERGY PREDICTED BY IDOCK:   -2.77 KCAL/MOL
REMARK 922        TOTAL FREE ENERGY PREDICTED BY IDOCK:   -3.74 KCAL/MOL
REMARK 923 INTER-LIGAND FREE ENERGY PREDICTED BY IDOCK:   -3.35 KCAL/MOL
REMARK 924 INTRA-LIGAND FREE ENERGY PREDICTED BY IDOCK:   -0.39 KCAL/MOL
REMARK 927      BINDING AFFINITY PREDICTED BY RF-SCORE:    0.00 PKD
ROOT
HETATM    1  N   UNL     1      -7.494  11.826  69.217  1.00  0.00    -0.337 N  
HETATM    2  H1  UNL     1      -7.846  11.899  68.262  1.00  0.00     0.000 HD 
HETATM    3  C   UNL     1      -6.829  10.737  69.674  1.00  0.00    -0.133 C  
HETATM    4  H2  UNL     1      -7.650  12.606  69.856  1.00  0.00     0.000 HD 
HETATM    5  O   UNL     1      -6.406  10.648  70.820  1.00  0.00    -0.324 OA 
ENDROOT
BRANCH   3   6
HETATM    6  N   UNL     1      -6.667   9.743  68.741  1.00  0.00    -0.050 N  
HETATM    7  H   UNL     1      -5.736   9.554  68.369  1.00  0.00     0.000 HD 
BRANCH   6   8
HETATM    8  N   UNL     1      -7.725   9.002  68.303  1.00  0.00    -0.095 NA 
HETATM    9  H   UNL     1      -8.067   9.120  67.349  1.00  0.00     0.000 HD 
BRANCH   8  10
HETATM   10  C   UNL     1      -8.302   8.148  69.093  1.00  0.00    -0.131 C  
HETATM   11  C   UNL     1      -7.715   6.912  69.682  1.00  0.00    -0.110 C  
HETATM   12  C   UNL     1      -8.417   6.137  70.517  1.00  0.00    -0.137 C  
HETATM   13  C   UNL     1      -9.792   6.439  70.907  1.00  0.00    -0.204 A  
HETATM   14  C   UNL     1     -10.469   5.598  71.801  1.00  0.00    -0.284 A  
HETATM   15  C   UNL     1     -11.786   5.876  72.176  1.00  0.00    -0.287 A  
HETATM   16  C   UNL     1     -12.441   6.994  71.663  1.00  0.00    -0.413 A  
HETATM   17  C   UNL     1     -11.778   7.838  70.774  1.00  0.00    -0.242 A  
HETATM   18  C   UNL     1     -10.457   7.558  70.400  1.00  0.00    -0.227 A  
HETATM   19  C   UNL     1      -9.756   8.454  69.460  1.00  0.00    -0.177 C  
HETATM   20  O   UNL     1     -10.324   9.429  68.983  1.00  0.00    -0.198 OA 
ENDBRANCH   8  10
ENDBRANCH   6   8
ENDBRANCH   3   6
TORSDOF 3
ENDMDL
MODEL      217
REMARK 921   NORMALIZED FREE ENERGY PREDICTED BY IDOCK:   -2.76 KCAL/MOL
REMARK 922        TOTAL FREE ENERGY PREDICTED BY IDOCK:   -3.72 KCAL/MOL
REMARK 923 INTER-LIGAND FREE ENERGY PREDICTED BY IDOCK:   -3.29 KCAL/MOL
REMARK 924 INTRA-LIGAND FREE ENERGY PREDICTED BY IDOCK:   -0.44 KCAL/MOL
REMARK 927      BINDING AFFINITY PREDICTED BY RF-SCORE:    0.00 PKD
ROOT
HETATM    1  N   UNL     1     -11.448  11.576  69.203  1.00  0.00    -0.268 N  
HETATM    2  H1  UNL     1     -11.395  11.598  70.222  1.00  0.00     0.000 HD 
HETATM    3  C   UNL     1     -11.514  10.423  68.495  1.00  0.00    -0.162 C  
HETATM    4  H2  UNL     1     -11.452  12.461  68.695  1.00  0.00     0.000 HD 
HETATM    5  O   UNL     1     -11.577  10.396  67.272  1.00  0.00    -0.240 OA 
ENDROOT
BRANCH   3   6
HETATM    6  N   UNL     1     -11.506   9.286  69.265  1.00  0.00    -0.368 N  
HETATM    7  H   UNL     1     -12.371   8.760  69.388  1.00  0.00     0.000 HD 
BRANCH   6   8
HETATM    8  N   UNL     1     -10.364   8.848  69.870  1.00  0.00    -0.200 NA 
HETATM    9  H   UNL     1      -9.735   9.518  70.312  1.00  0.00     0.000 HD 
BRANCH   8  10
HETATM   10  C   UNL     1     -10.074   7.582  69.886  1.00  0.00    -0.193 C  
HETATM   11  C   UNL     1      -9.970   6.686  71.070  1.00  0.00    -0.200 C  
HETATM   12  C   UNL     1      -9.697   5.383  70.937  1.00  0.00    -0.237 C  
HETATM   13  C   UNL     1      -9.483   4.750  69.638  1.00  0.00    -0.223 A  
HETATM   14  C   UNL     1      -9.219   3.375  69.562  1.00  0.00    -0.225 A  
HETATM   15  C   UNL     1      -9.008   2.762  68.324  1.00  0.00    -0.194 A  
HETATM   16  C   UNL     1      -9.056   3.513  67.151  1.00  0.00    -0.191 A  
HETATM   17  C   UNL     1      -9.318   4.881  67.214  1.00  0.00    -0.142 A  
HETATM   18  C   UNL     1      -9.531   5.493  68.456  1.00  0.00    -0.150 A  
HETATM   19  C   UNL     1      -9.810   6.941  68.521  1.00  0.00    -0.144 C  
HETATM   20  O   UNL     1      -9.835   7.620  67.502  1.00  0.00    -0.147 OA 
ENDBRANCH   8  10
ENDBRANCH   6   8
ENDBRANCH   3   6
TORSDOF 3
ENDMDL
MODEL      218
REMARK 921   NORMALIZED FREE ENERGY PREDICTED BY IDOCK:   -2.76 KCAL/MOL
REMARK 922        TOTAL FREE ENERGY PREDICTED BY IDOCK:   -3.72 KCAL/MOL
REMARK 923 INTER-LIGAND FREE ENERGY PREDICTED BY IDOCK:   -3.51 KCAL/MOL
REMARK 924 INTRA-LIGAND FREE ENERGY PREDICTED BY IDOCK:   -0.21 KCAL/MOL
REMARK 927      BINDING AFFINITY PREDICTED BY RF-SCORE:    0.00 PKD
ROOT
HETATM    1  N   UNL     1      -8.318  12.433  68.908  1.00  0.00    -0.344 N  
HETATM    2  H1  UNL     1      -9.206  12.745  69.301  1.00  0.00     0.000 HD 
HETATM    3  C   UNL     1      -8.184  11.271  68.223  1.00  0.00    -0.143 C  
HETATM    4  H2  UNL     1      -7.494  13.021  69.035  1.00  0.00     0.000 HD 
HETATM    5  O   UNL     1      -7.118  10.896  67.751  1.00  0.00    -0.079 OA 
ENDROOT
BRANCH   3   6
HETATM    6  N   UNL     1      -9.346  10.551  68.102  1.00  0.00    -0.145 N  
HETATM    7  H   UNL     1      -9.581  10.129  67.204  1.00  0.00     0.000 HD 
BRANCH   6   8
HETATM    8  N   UNL     1     -10.193  10.388  69.159  1.00  0.00    -0.210 NA 
HETATM    9  H   UNL     1     -10.870  11.117  69.384  1.00  0.00     0.000 HD 
BRANCH   8  10
HETATM   10  C   UNL     1     -10.141   9.310  69.882  1.00  0.00    -0.209 C  
HETATM   11  C   UNL     1     -10.211   9.203  71.365  1.00  0.00    -0.402 C  
HETATM   12  C   UNL     1     -10.182   8.015  71.981  1.00  0.00    -0.288 C  
HETATM   13  C   UNL     1     -10.080   6.752  71.255  1.00  0.00    -0.203 A  
HETATM   14  C   UNL     1     -10.074   5.538  71.956  1.00  0.00    -0.233 A  
HETATM   15  C   UNL     1      -9.972   4.325  71.270  1.00  0.00    -0.230 A  
HETATM   16  C   UNL     1      -9.874   4.309  69.880  1.00  0.00    -0.267 A  
HETATM   17  C   UNL     1      -9.880   5.511  69.172  1.00  0.00    -0.227 A  
HETATM   18  C   UNL     1      -9.983   6.726  69.862  1.00  0.00    -0.184 A  
HETATM   19  C   UNL     1      -9.992   7.996  69.110  1.00  0.00    -0.188 C  
HETATM   20  O   UNL     1      -9.885   8.002  67.890  1.00  0.00    -0.155 OA 
ENDBRANCH   8  10
ENDBRANCH   6   8
ENDBRANCH   3   6
TORSDOF 3
ENDMDL
MODEL      219
REMARK 921   NORMALIZED FREE ENERGY PREDICTED BY IDOCK:   -2.76 KCAL/MOL
REMARK 922        TOTAL FREE ENERGY PREDICTED BY IDOCK:   -3.72 KCAL/MOL
REMARK 923 INTER-LIGAND FREE ENERGY PREDICTED BY IDOCK:   -3.49 KCAL/MOL
REMARK 924 INTRA-LIGAND FREE ENERGY PREDICTED BY IDOCK:   -0.23 KCAL/MOL
REMARK 927      BINDING AFFINITY PREDICTED BY RF-SCORE:    0.00 PKD
ROOT
HETATM    1  N   UNL     1      -6.382   4.054  74.026  1.00  0.00    -0.039 N  
HETATM    2  H1  UNL     1      -6.081   5.025  74.107  1.00  0.00     0.000 HD 
HETATM    3  C   UNL     1      -7.248   3.628  73.074  1.00  0.00    -0.054 C  
HETATM    4  H2  UNL     1      -6.015   3.372  74.691  1.00  0.00     0.000 HD 
HETATM    5  O   UNL     1      -7.609   2.462  72.977  1.00  0.00    -0.040 OA 
ENDROOT
BRANCH   3   6
HETATM    6  N   UNL     1      -7.684   4.616  72.226  1.00  0.00    -0.087 N  
HETATM    7  H   UNL     1      -7.627   4.470  71.218  1.00  0.00     0.000 HD 
BRANCH   6   8
HETATM    8  N   UNL     1      -8.192   5.788  72.705  1.00  0.00    -0.112 NA 
HETATM    9  H   UNL     1      -7.588   6.428  73.222  1.00  0.00     0.000 HD 
BRANCH   8  10
HETATM   10  C   UNL     1      -9.438   6.093  72.507  1.00  0.00    -0.143 C  
HETATM   11  C   UNL     1     -10.610   5.175  72.495  1.00  0.00    -0.275 C  
HETATM   12  C   UNL     1     -11.854   5.634  72.314  1.00  0.00    -0.145 C  
HETATM   13  C   UNL     1     -12.152   7.050  72.115  1.00  0.00    -0.281 A  
HETATM   14  C   UNL     1     -13.478   7.472  71.949  1.00  0.00    -0.308 A  
HETATM   15  C   UNL     1     -13.772   8.824  71.753  1.00  0.00    -0.461 A  
HETATM   16  C   UNL     1     -12.747   9.768  71.720  1.00  0.00    -0.519 A  
HETATM   17  C   UNL     1     -11.424   9.361  71.884  1.00  0.00    -0.308 A  
HETATM   18  C   UNL     1     -11.132   8.004  72.082  1.00  0.00    -0.372 A  
HETATM   19  C   UNL     1      -9.731   7.575  72.258  1.00  0.00    -0.160 C  
HETATM   20  O   UNL     1      -8.816   8.388  72.210  1.00  0.00    -0.189 OA 
ENDBRANCH   8  10
ENDBRANCH   6   8
ENDBRANCH   3   6
TORSDOF 3
ENDMDL
MODEL      220
REMARK 921   NORMALIZED FREE ENERGY PREDICTED BY IDOCK:   -2.75 KCAL/MOL
REMARK 922        TOTAL FREE ENERGY PREDICTED BY IDOCK:   -3.71 KCAL/MOL
REMARK 923 INTER-LIGAND FREE ENERGY PREDICTED BY IDOCK:   -3.34 KCAL/MOL
REMARK 924 INTRA-LIGAND FREE ENERGY PREDICTED BY IDOCK:   -0.37 KCAL/MOL
REMARK 927      BINDING AFFINITY PREDICTED BY RF-SCORE:    0.00 PKD
ROOT
HETATM    1  N   UNL     1      -6.882  13.406  69.746  1.00  0.00    -0.339 N  
HETATM    2  H1  UNL     1      -7.653  13.668  69.130  1.00  0.00     0.000 HD 
HETATM    3  C   UNL     1      -6.440  12.130  69.868  1.00  0.00    -0.009 C  
HETATM    4  H2  UNL     1      -6.424  14.135  70.293  1.00  0.00     0.000 HD 
HETATM    5  O   UNL     1      -5.515  11.815  70.607  1.00  0.00    -0.130 OA 
ENDROOT
BRANCH   3   6
HETATM    6  N   UNL     1      -7.116  11.222  69.092  1.00  0.00    -0.116 N  
HETATM    7  H   UNL     1      -6.609  10.434  68.689  1.00  0.00     0.000 HD 
BRANCH   6   8
HETATM    8  N   UNL     1      -8.452  11.352  68.849  1.00  0.00    -0.344 NA 
HETATM    9  H   UNL     1      -9.109  11.380  69.629  1.00  0.00     0.000 HD 
BRANCH   8  10
HETATM   10  C   UNL     1      -8.892  11.441  67.630  1.00  0.00    -0.139 C  
HETATM   11  C   UNL     1      -9.748  12.510  67.046  1.00  0.00    -0.213 C  
HETATM   12  C   UNL     1     -10.100  12.495  65.755  1.00  0.00    -0.278 C  
HETATM   13  C   UNL     1      -9.678  11.442  64.835  1.00  0.00    -0.283 A  
HETATM   14  C   UNL     1     -10.063  11.491  63.488  1.00  0.00    -0.446 A  
HETATM   15  C   UNL     1      -9.669  10.486  62.601  1.00  0.00    -0.214 A  
HETATM   16  C   UNL     1      -8.888   9.422  63.048  1.00  0.00    -0.209 A  
HETATM   17  C   UNL     1      -8.498   9.362  64.385  1.00  0.00    -0.196 A  
HETATM   18  C   UNL     1      -8.894  10.372  65.273  1.00  0.00    -0.203 A  
HETATM   19  C   UNL     1      -8.478  10.308  66.687  1.00  0.00    -0.124 C  
HETATM   20  O   UNL     1      -7.810   9.370  67.102  1.00  0.00    -0.098 OA 
ENDBRANCH   8  10
ENDBRANCH   6   8
ENDBRANCH   3   6
TORSDOF 3
ENDMDL
MODEL      221
REMARK 921   NORMALIZED FREE ENERGY PREDICTED BY IDOCK:   -2.73 KCAL/MOL
REMARK 922        TOTAL FREE ENERGY PREDICTED BY IDOCK:   -3.70 KCAL/MOL
REMARK 923 INTER-LIGAND FREE ENERGY PREDICTED BY IDOCK:   -3.26 KCAL/MOL
REMARK 924 INTRA-LIGAND FREE ENERGY PREDICTED BY IDOCK:   -0.43 KCAL/MOL
REMARK 927      BINDING AFFINITY PREDICTED BY RF-SCORE:    0.00 PKD
ROOT
HETATM    1  N   UNL     1      -8.437   7.034  64.404  1.00  0.00    -0.339 N  
HETATM    2  H1  UNL     1      -9.414   6.747  64.468  1.00  0.00     0.000 HD 
HETATM    3  C   UNL     1      -7.970   8.179  64.957  1.00  0.00    -0.139 C  
HETATM    4  H2  UNL     1      -7.784   6.433  63.901  1.00  0.00     0.000 HD 
HETATM    5  O   UNL     1      -6.797   8.525  64.880  1.00  0.00    -0.070 OA 
ENDROOT
BRANCH   3   6
HETATM    6  N   UNL     1      -8.922   8.919  65.614  1.00  0.00    -0.193 N  
HETATM    7  H   UNL     1      -9.848   9.022  65.200  1.00  0.00     0.000 HD 
BRANCH   6   8
HETATM    8  N   UNL     1      -8.654   9.518  66.811  1.00  0.00    -0.127 NA 
HETATM    9  H   UNL     1      -8.456   8.945  67.631  1.00  0.00     0.000 HD 
BRANCH   8  10
HETATM   10  C   UNL     1      -8.649  10.812  66.910  1.00  0.00    -0.132 C  
HETATM   11  C   UNL     1      -7.490  11.700  67.204  1.00  0.00    -0.146 C  
HETATM   12  C   UNL     1      -7.623  13.031  67.241  1.00  0.00    -0.097 C  
HETATM   13  C   UNL     1      -8.897  13.704  67.002  1.00  0.00    -0.233 A  
HETATM   14  C   UNL     1      -8.968  15.103  67.036  1.00  0.00    -0.255 A  
HETATM   15  C   UNL     1     -10.183  15.757  66.813  1.00  0.00    -0.284 A  
HETATM   16  C   UNL     1     -11.339  15.021  66.555  1.00  0.00    -0.280 A  
HETATM   17  C   UNL     1     -11.280  13.629  66.518  1.00  0.00    -0.321 A  
HETATM   18  C   UNL     1     -10.060  12.976  66.741  1.00  0.00    -0.247 A  
HETATM   19  C   UNL     1     -10.000  11.502  66.699  1.00  0.00    -0.207 C  
HETATM   20  O   UNL     1     -11.009  10.840  66.495  1.00  0.00    -0.192 OA 
ENDBRANCH   8  10
ENDBRANCH   6   8
ENDBRANCH   3   6
TORSDOF 3
ENDMDL
MODEL      222
REMARK 921   NORMALIZED FREE ENERGY PREDICTED BY IDOCK:   -2.70 KCAL/MOL
REMARK 922        TOTAL FREE ENERGY PREDICTED BY IDOCK:   -3.65 KCAL/MOL
REMARK 923 INTER-LIGAND FREE ENERGY PREDICTED BY IDOCK:   -3.28 KCAL/MOL
REMARK 924 INTRA-LIGAND FREE ENERGY PREDICTED BY IDOCK:   -0.37 KCAL/MOL
REMARK 927      BINDING AFFINITY PREDICTED BY RF-SCORE:    0.00 PKD
ROOT
HETATM    1  N   UNL     1      -9.841  11.831  69.182  1.00  0.00    -0.403 N  
HETATM    2  H1  UNL     1      -8.965  11.330  69.330  1.00  0.00     0.000 HD 
HETATM    3  C   UNL     1     -10.780  11.426  68.293  1.00  0.00    -0.204 C  
HETATM    4  H2  UNL     1     -10.019  12.674  69.729  1.00  0.00     0.000 HD 
HETATM    5  O   UNL     1     -11.832  12.028  68.116  1.00  0.00    -0.393 OA 
ENDROOT
BRANCH   3   6
HETATM    6  N   UNL     1     -10.452  10.282  67.608  1.00  0.00    -0.220 N  
HETATM    7  H   UNL     1     -10.595  10.245  66.599  1.00  0.00     0.000 HD 
BRANCH   6   8
HETATM    8  N   UNL     1      -9.941   9.193  68.252  1.00  0.00    -0.168 NA 
HETATM    9  H   UNL     1      -9.527   9.299  69.178  1.00  0.00     0.000 HD 
BRANCH   8  10
HETATM   10  C   UNL     1      -9.976   8.022  67.691  1.00  0.00    -0.180 C  
HETATM   11  C   UNL     1     -10.883   6.886  68.012  1.00  0.00    -0.266 C  
HETATM   12  C   UNL     1     -10.835   5.739  67.323  1.00  0.00    -0.290 C  
HETATM   13  C   UNL     1      -9.901   5.518  66.222  1.00  0.00    -0.173 A  
HETATM   14  C   UNL     1      -9.911   4.302  65.526  1.00  0.00    -0.233 A  
HETATM   15  C   UNL     1      -9.018   4.079  64.475  1.00  0.00    -0.137 A  
HETATM   16  C   UNL     1      -8.106   5.067  64.107  1.00  0.00    -0.119 A  
HETATM   17  C   UNL     1      -8.087   6.281  64.792  1.00  0.00    -0.127 A  
HETATM   18  C   UNL     1      -8.984   6.502  65.845  1.00  0.00    -0.103 A  
HETATM   19  C   UNL     1      -8.963   7.789  66.567  1.00  0.00    -0.161 C  
HETATM   20  O   UNL     1      -8.155   8.660  66.271  1.00  0.00    -0.100 OA 
ENDBRANCH   8  10
ENDBRANCH   6   8
ENDBRANCH   3   6
TORSDOF 3
ENDMDL
MODEL      223
REMARK 921   NORMALIZED FREE ENERGY PREDICTED BY IDOCK:   -2.69 KCAL/MOL
REMARK 922        TOTAL FREE ENERGY PREDICTED BY IDOCK:   -3.64 KCAL/MOL
REMARK 923 INTER-LIGAND FREE ENERGY PREDICTED BY IDOCK:   -3.25 KCAL/MOL
REMARK 924 INTRA-LIGAND FREE ENERGY PREDICTED BY IDOCK:   -0.40 KCAL/MOL
REMARK 927      BINDING AFFINITY PREDICTED BY RF-SCORE:    0.00 PKD
ROOT
HETATM    1  N   UNL     1     -11.987   9.709  70.379  1.00  0.00    -0.444 N  
HETATM    2  H1  UNL     1     -11.473   8.983  69.879  1.00  0.00     0.000 HD 
HETATM    3  C   UNL     1     -11.787  11.032  70.165  1.00  0.00    -0.357 C  
HETATM    4  H2  UNL     1     -12.683   9.427  71.070  1.00  0.00     0.000 HD 
HETATM    5  O   UNL     1     -12.404  11.904  70.765  1.00  0.00    -0.374 OA 
ENDROOT
BRANCH   3   6
HETATM    6  N   UNL     1     -10.836  11.312  69.216  1.00  0.00    -0.299 N  
HETATM    7  H   UNL     1     -11.105  11.817  68.372  1.00  0.00     0.000 HD 
BRANCH   6   8
HETATM    8  N   UNL     1      -9.536  10.929  69.380  1.00  0.00    -0.426 NA 
HETATM    9  H   UNL     1      -9.024  11.218  70.214  1.00  0.00     0.000 HD 
BRANCH   8  10
HETATM   10  C   UNL     1      -8.948  10.200  68.481  1.00  0.00    -0.127 C  
HETATM   11  C   UNL     1      -8.281   8.882  68.671  1.00  0.00    -0.116 C  
HETATM   12  C   UNL     1      -7.743   8.218  67.641  1.00  0.00    -0.099 C  
HETATM   13  C   UNL     1      -7.767   8.730  66.273  1.00  0.00    -0.098 A  
HETATM   14  C   UNL     1      -7.203   7.979  65.233  1.00  0.00    -0.064 A  
HETATM   15  C   UNL     1      -7.217   8.462  63.922  1.00  0.00    -0.094 A  
HETATM   16  C   UNL     1      -7.792   9.699  63.635  1.00  0.00    -0.138 A  
HETATM   17  C   UNL     1      -8.357  10.455  64.661  1.00  0.00    -0.155 A  
HETATM   18  C   UNL     1      -8.343   9.968  65.975  1.00  0.00    -0.126 A  
HETATM   19  C   UNL     1      -8.943  10.768  67.060  1.00  0.00    -0.141 C  
HETATM   20  O   UNL     1      -9.434  11.866  66.829  1.00  0.00    -0.191 OA 
ENDBRANCH   8  10
ENDBRANCH   6   8
ENDBRANCH   3   6
TORSDOF 3
ENDMDL
MODEL      224
REMARK 921   NORMALIZED FREE ENERGY PREDICTED BY IDOCK:   -2.68 KCAL/MOL
REMARK 922        TOTAL FREE ENERGY PREDICTED BY IDOCK:   -3.63 KCAL/MOL
REMARK 923 INTER-LIGAND FREE ENERGY PREDICTED BY IDOCK:   -3.11 KCAL/MOL
REMARK 924 INTRA-LIGAND FREE ENERGY PREDICTED BY IDOCK:   -0.52 KCAL/MOL
REMARK 927      BINDING AFFINITY PREDICTED BY RF-SCORE:    0.00 PKD
ROOT
HETATM    1  N   UNL     1      -6.807  11.803  69.740  1.00  0.00    -0.348 N  
HETATM    2  H1  UNL     1      -6.929  12.715  69.298  1.00  0.00     0.000 HD 
HETATM    3  C   UNL     1      -7.760  10.840  69.714  1.00  0.00     0.081 C  
HETATM    4  H2  UNL     1      -5.930  11.607  70.222  1.00  0.00     0.000 HD 
HETATM    5  O   UNL     1      -7.615   9.745  70.244  1.00  0.00    -0.153 OA 
ENDROOT
BRANCH   3   6
HETATM    6  N   UNL     1      -8.903  11.195  69.041  1.00  0.00    -0.365 N  
HETATM    7  H   UNL     1      -9.711  11.526  69.568  1.00  0.00     0.000 HD 
BRANCH   6   8
HETATM    8  N   UNL     1      -8.979  11.112  67.681  1.00  0.00    -0.139 NA 
HETATM    9  H   UNL     1      -9.162  11.952  67.132  1.00  0.00     0.000 HD 
BRANCH   8  10
HETATM   10  C   UNL     1      -8.821   9.971  67.083  1.00  0.00    -0.135 C  
HETATM   11  C   UNL     1      -7.702   9.556  66.192  1.00  0.00    -0.101 C  
HETATM   12  C   UNL     1      -7.646   8.326  65.668  1.00  0.00    -0.083 C  
HETATM   13  C   UNL     1      -8.666   7.312  65.924  1.00  0.00    -0.150 A  
HETATM   14  C   UNL     1      -8.543   6.035  65.362  1.00  0.00    -0.127 A  
HETATM   15  C   UNL     1      -9.515   5.059  65.597  1.00  0.00    -0.153 A  
HETATM   16  C   UNL     1     -10.621   5.349  66.396  1.00  0.00    -0.322 A  
HETATM   17  C   UNL     1     -10.754   6.616  66.961  1.00  0.00    -0.437 A  
HETATM   18  C   UNL     1      -9.777   7.592  66.724  1.00  0.00    -0.283 A  
HETATM   19  C   UNL     1      -9.919   8.932  67.326  1.00  0.00    -0.216 C  
HETATM   20  O   UNL     1     -10.894   9.210  68.013  1.00  0.00    -0.185 OA 
ENDBRANCH   8  10
ENDBRANCH   6   8
ENDBRANCH   3   6
TORSDOF 3
ENDMDL
MODEL      225
REMARK 921   NORMALIZED FREE ENERGY PREDICTED BY IDOCK:   -2.67 KCAL/MOL
REMARK 922        TOTAL FREE ENERGY PREDICTED BY IDOCK:   -3.62 KCAL/MOL
REMARK 923 INTER-LIGAND FREE ENERGY PREDICTED BY IDOCK:   -3.47 KCAL/MOL
REMARK 924 INTRA-LIGAND FREE ENERGY PREDICTED BY IDOCK:   -0.15 KCAL/MOL
REMARK 927      BINDING AFFINITY PREDICTED BY RF-SCORE:    0.00 PKD
ROOT
HETATM    1  N   UNL     1      -9.296  14.345  69.047  1.00  0.00    -0.390 N  
HETATM    2  H1  UNL     1     -10.263  14.576  69.276  1.00  0.00     0.000 HD 
HETATM    3  C   UNL     1      -8.944  13.204  68.407  1.00  0.00    -0.128 C  
HETATM    4  H2  UNL     1      -8.561  15.002  69.310  1.00  0.00     0.000 HD 
HETATM    5  O   UNL     1      -7.783  12.926  68.131  1.00  0.00    -0.117 OA 
ENDROOT
BRANCH   3   6
HETATM    6  N   UNL     1     -10.000  12.385  68.091  1.00  0.00    -0.211 N  
HETATM    7  H   UNL     1     -10.153  12.120  67.119  1.00  0.00     0.000 HD 
BRANCH   6   8
HETATM    8  N   UNL     1     -10.849  11.921  69.053  1.00  0.00    -0.315 NA 
HETATM    9  H   UNL     1     -11.661  12.477  69.324  1.00  0.00     0.000 HD 
BRANCH   8  10
HETATM   10  C   UNL     1     -10.630  10.777  69.626  1.00  0.00    -0.175 C  
HETATM   11  C   UNL     1      -9.315  10.159  69.954  1.00  0.00    -0.134 C  
HETATM   12  C   UNL     1      -9.236   8.981  70.584  1.00  0.00    -0.279 C  
HETATM   13  C   UNL     1     -10.415   8.222  70.990  1.00  0.00    -0.241 A  
HETATM   14  C   UNL     1     -10.268   7.002  71.664  1.00  0.00    -0.208 A  
HETATM   15  C   UNL     1     -11.390   6.266  72.052  1.00  0.00    -0.348 A  
HETATM   16  C   UNL     1     -12.671   6.738  71.770  1.00  0.00    -0.342 A  
HETATM   17  C   UNL     1     -12.831   7.951  71.101  1.00  0.00    -0.156 A  
HETATM   18  C   UNL     1     -11.704   8.688  70.714  1.00  0.00    -0.239 A  
HETATM   19  C   UNL     1     -11.875   9.972  70.008  1.00  0.00    -0.126 C  
HETATM   20  O   UNL     1     -12.992  10.391  69.734  1.00  0.00    -0.059 OA 
ENDBRANCH   8  10
ENDBRANCH   6   8
ENDBRANCH   3   6
TORSDOF 3
ENDMDL
MODEL      226
REMARK 921   NORMALIZED FREE ENERGY PREDICTED BY IDOCK:   -2.66 KCAL/MOL
REMARK 922        TOTAL FREE ENERGY PREDICTED BY IDOCK:   -3.61 KCAL/MOL
REMARK 923 INTER-LIGAND FREE ENERGY PREDICTED BY IDOCK:   -3.31 KCAL/MOL
REMARK 924 INTRA-LIGAND FREE ENERGY PREDICTED BY IDOCK:   -0.30 KCAL/MOL
REMARK 927      BINDING AFFINITY PREDICTED BY RF-SCORE:    0.00 PKD
ROOT
HETATM    1  N   UNL     1      -5.437   9.092  72.985  1.00  0.00    -0.089 N  
HETATM    2  H1  UNL     1      -5.639   9.568  73.865  1.00  0.00     0.000 HD 
HETATM    3  C   UNL     1      -6.298   8.220  72.406  1.00  0.00    -0.073 C  
HETATM    4  H2  UNL     1      -4.549   9.281  72.520  1.00  0.00     0.000 HD 
HETATM    5  O   UNL     1      -6.056   7.649  71.350  1.00  0.00    -0.035 OA 
ENDROOT
BRANCH   3   6
HETATM    6  N   UNL     1      -7.466   8.034  73.103  1.00  0.00    -0.125 N  
HETATM    7  H   UNL     1      -7.468   7.426  73.922  1.00  0.00     0.000 HD 
BRANCH   6   8
HETATM    8  N   UNL     1      -8.625   8.645  72.721  1.00  0.00    -0.409 NA 
HETATM    9  H   UNL     1      -9.195   9.129  73.415  1.00  0.00     0.000 HD 
BRANCH   8  10
HETATM   10  C   UNL     1      -9.005   8.615  71.480  1.00  0.00    -0.234 C  
HETATM   11  C   UNL     1      -8.898   9.700  70.467  1.00  0.00    -0.169 C  
HETATM   12  C   UNL     1      -9.301   9.518  69.203  1.00  0.00    -0.163 C  
HETATM   13  C   UNL     1      -9.869   8.259  68.730  1.00  0.00    -0.179 A  
HETATM   14  C   UNL     1     -10.255   8.122  67.390  1.00  0.00    -0.327 A  
HETATM   15  C   UNL     1     -10.804   6.923  66.929  1.00  0.00    -0.380 A  
HETATM   16  C   UNL     1     -10.975   5.848  67.800  1.00  0.00    -0.245 A  
HETATM   17  C   UNL     1     -10.595   5.972  69.136  1.00  0.00    -0.362 A  
HETATM   18  C   UNL     1     -10.043   7.175  69.595  1.00  0.00    -0.196 A  
HETATM   19  C   UNL     1      -9.639   7.303  71.008  1.00  0.00    -0.158 C  
HETATM   20  O   UNL     1      -9.801   6.376  71.793  1.00  0.00    -0.164 OA 
ENDBRANCH   8  10
ENDBRANCH   6   8
ENDBRANCH   3   6
TORSDOF 3
ENDMDL
MODEL      227
REMARK 921   NORMALIZED FREE ENERGY PREDICTED BY IDOCK:   -2.65 KCAL/MOL
REMARK 922        TOTAL FREE ENERGY PREDICTED BY IDOCK:   -3.59 KCAL/MOL
REMARK 923 INTER-LIGAND FREE ENERGY PREDICTED BY IDOCK:   -3.54 KCAL/MOL
REMARK 924 INTRA-LIGAND FREE ENERGY PREDICTED BY IDOCK:   -0.05 KCAL/MOL
REMARK 927      BINDING AFFINITY PREDICTED BY RF-SCORE:    0.00 PKD
ROOT
HETATM    1  N   UNL     1      -8.698   4.911  68.512  1.00  0.00    -0.097 N  
HETATM    2  H1  UNL     1      -9.188   4.452  67.744  1.00  0.00     0.000 HD 
HETATM    3  C   UNL     1      -9.342   5.538  69.526  1.00  0.00    -0.130 C  
HETATM    4  H2  UNL     1      -7.677   4.899  68.517  1.00  0.00     0.000 HD 
HETATM    5  O   UNL     1      -8.754   6.090  70.448  1.00  0.00    -0.140 OA 
ENDROOT
BRANCH   3   6
HETATM    6  N   UNL     1     -10.711   5.500  69.434  1.00  0.00    -0.285 N  
HETATM    7  H   UNL     1     -11.200   4.623  69.613  1.00  0.00     0.000 HD 
BRANCH   6   8
HETATM    8  N   UNL     1     -11.431   6.611  69.106  1.00  0.00    -0.618 NA 
HETATM    9  H   UNL     1     -12.393   6.707  69.433  1.00  0.00     0.000 HD 
BRANCH   8  10
HETATM   10  C   UNL     1     -10.899   7.548  68.381  1.00  0.00     0.018 C  
HETATM   11  C   UNL     1     -10.441   7.456  66.967  1.00  0.00    -0.404 C  
HETATM   12  C   UNL     1      -9.942   8.519  66.325  1.00  0.00    -0.251 C  
HETATM   13  C   UNL     1      -9.808   9.830  66.955  1.00  0.00    -0.256 A  
HETATM   14  C   UNL     1      -9.295  10.910  66.224  1.00  0.00    -0.203 A  
HETATM   15  C   UNL     1      -9.158  12.167  66.819  1.00  0.00    -0.205 A  
HETATM   16  C   UNL     1      -9.532  12.359  68.148  1.00  0.00    -0.214 A  
HETATM   17  C   UNL     1     -10.044  11.292  68.885  1.00  0.00    -0.185 A  
HETATM   18  C   UNL     1     -10.181  10.033  68.286  1.00  0.00    -0.200 A  
HETATM   19  C   UNL     1     -10.726   8.906  69.066  1.00  0.00    -0.126 C  
HETATM   20  O   UNL     1     -11.039   9.051  70.241  1.00  0.00    -0.244 OA 
ENDBRANCH   8  10
ENDBRANCH   6   8
ENDBRANCH   3   6
TORSDOF 3
ENDMDL
MODEL      228
REMARK 921   NORMALIZED FREE ENERGY PREDICTED BY IDOCK:   -2.63 KCAL/MOL
REMARK 922        TOTAL FREE ENERGY PREDICTED BY IDOCK:   -3.57 KCAL/MOL
REMARK 923 INTER-LIGAND FREE ENERGY PREDICTED BY IDOCK:   -3.12 KCAL/MOL
REMARK 924 INTRA-LIGAND FREE ENERGY PREDICTED BY IDOCK:   -0.45 KCAL/MOL
REMARK 927      BINDING AFFINITY PREDICTED BY RF-SCORE:    0.00 PKD
ROOT
HETATM    1  N   UNL     1      -5.619   6.903  73.495  1.00  0.00    -0.046 N  
HETATM    2  H1  UNL     1      -5.972   6.807  74.447  1.00  0.00     0.000 HD 
HETATM    3  C   UNL     1      -5.645   5.889  72.595  1.00  0.00    -0.031 C  
HETATM    4  H2  UNL     1      -5.229   7.800  73.207  1.00  0.00     0.000 HD 
HETATM    5  O   UNL     1      -5.220   6.004  71.452  1.00  0.00    -0.016 OA 
ENDROOT
BRANCH   3   6
HETATM    6  N   UNL     1      -6.189   4.724  73.074  1.00  0.00    -0.035 N  
HETATM    7  H   UNL     1      -5.624   3.875  73.083  1.00  0.00     0.000 HD 
BRANCH   6   8
HETATM    8  N   UNL     1      -7.472   4.678  73.538  1.00  0.00    -0.081 NA 
HETATM    9  H   UNL     1      -7.659   4.326  74.477  1.00  0.00     0.000 HD 
BRANCH   8  10
HETATM   10  C   UNL     1      -8.455   5.081  72.791  1.00  0.00    -0.116 C  
HETATM   11  C   UNL     1      -8.932   4.484  71.513  1.00  0.00    -0.164 C  
HETATM   12  C   UNL     1      -9.989   4.983  70.861  1.00  0.00    -0.286 C  
HETATM   13  C   UNL     1     -10.742   6.137  71.346  1.00  0.00    -0.308 A  
HETATM   14  C   UNL     1     -11.852   6.602  70.629  1.00  0.00    -0.443 A  
HETATM   15  C   UNL     1     -12.577   7.707  71.082  1.00  0.00    -0.257 A  
HETATM   16  C   UNL     1     -12.201   8.360  72.255  1.00  0.00    -0.449 A  
HETATM   17  C   UNL     1     -11.099   7.906  72.978  1.00  0.00    -0.379 A  
HETATM   18  C   UNL     1     -10.375   6.797  72.521  1.00  0.00    -0.222 A  
HETATM   19  C   UNL     1      -9.210   6.316  73.289  1.00  0.00    -0.131 C  
HETATM   20  O   UNL     1      -8.852   6.890  74.310  1.00  0.00    -0.160 OA 
ENDBRANCH   8  10
ENDBRANCH   6   8
ENDBRANCH   3   6
TORSDOF 3
ENDMDL
MODEL      229
REMARK 921   NORMALIZED FREE ENERGY PREDICTED BY IDOCK:   -2.61 KCAL/MOL
REMARK 922        TOTAL FREE ENERGY PREDICTED BY IDOCK:   -3.54 KCAL/MOL
REMARK 923 INTER-LIGAND FREE ENERGY PREDICTED BY IDOCK:   -3.15 KCAL/MOL
REMARK 924 INTRA-LIGAND FREE ENERGY PREDICTED BY IDOCK:   -0.40 KCAL/MOL
REMARK 927      BINDING AFFINITY PREDICTED BY RF-SCORE:    0.00 PKD
ROOT
HETATM    1  N   UNL     1      -8.719   4.626  72.749  1.00  0.00    -0.113 N  
HETATM    2  H1  UNL     1      -7.941   5.187  72.401  1.00  0.00     0.000 HD 
HETATM    3  C   UNL     1     -10.000   4.813  72.348  1.00  0.00    -0.174 C  
HETATM    4  H2  UNL     1      -8.524   3.890  73.429  1.00  0.00     0.000 HD 
HETATM    5  O   UNL     1     -10.933   4.139  72.766  1.00  0.00    -0.128 OA 
ENDROOT
BRANCH   3   6
HETATM    6  N   UNL     1     -10.162   5.822  71.431  1.00  0.00    -0.208 N  
HETATM    7  H   UNL     1     -11.059   5.927  70.957  1.00  0.00     0.000 HD 
BRANCH   6   8
HETATM    8  N   UNL     1      -9.147   6.686  71.140  1.00  0.00    -0.152 NA 
HETATM    9  H   UNL     1      -8.335   6.740  71.757  1.00  0.00     0.000 HD 
BRANCH   8  10
HETATM   10  C   UNL     1      -9.208   7.439  70.085  1.00  0.00    -0.151 C  
HETATM   11  C   UNL     1      -8.347   7.378  68.871  1.00  0.00    -0.129 C  
HETATM   12  C   UNL     1      -8.546   8.199  67.833  1.00  0.00    -0.132 C  
HETATM   13  C   UNL     1      -9.606   9.204  67.813  1.00  0.00    -0.173 A  
HETATM   14  C   UNL     1      -9.777  10.023  66.688  1.00  0.00    -0.246 A  
HETATM   15  C   UNL     1     -10.785  10.990  66.662  1.00  0.00    -0.305 A  
HETATM   16  C   UNL     1     -11.632  11.151  67.757  1.00  0.00    -0.303 A  
HETATM   17  C   UNL     1     -11.473  10.343  68.882  1.00  0.00    -0.251 A  
HETATM   18  C   UNL     1     -10.462   9.372  68.905  1.00  0.00    -0.236 A  
HETATM   19  C   UNL     1     -10.296   8.516  70.095  1.00  0.00    -0.207 C  
HETATM   20  O   UNL     1     -11.017   8.658  71.075  1.00  0.00    -0.239 OA 
ENDBRANCH   8  10
ENDBRANCH   6   8
ENDBRANCH   3   6
TORSDOF 3
ENDMDL
MODEL      230
REMARK 921   NORMALIZED FREE ENERGY PREDICTED BY IDOCK:   -2.60 KCAL/MOL
REMARK 922        TOTAL FREE ENERGY PREDICTED BY IDOCK:   -3.54 KCAL/MOL
REMARK 923 INTER-LIGAND FREE ENERGY PREDICTED BY IDOCK:   -3.10 KCAL/MOL
REMARK 924 INTRA-LIGAND FREE ENERGY PREDICTED BY IDOCK:   -0.43 KCAL/MOL
REMARK 927      BINDING AFFINITY PREDICTED BY RF-SCORE:    0.00 PKD
ROOT
HETATM    1  N   UNL     1      -8.197   3.451  73.850  1.00  0.00    -0.074 N  
HETATM    2  H1  UNL     1      -7.605   4.135  73.378  1.00  0.00     0.000 HD 
HETATM    3  C   UNL     1      -9.547   3.561  73.906  1.00  0.00    -0.095 C  
HETATM    4  H2  UNL     1      -7.755   2.650  74.300  1.00  0.00     0.000 HD 
HETATM    5  O   UNL     1     -10.258   2.741  74.474  1.00  0.00    -0.129 OA 
ENDROOT
BRANCH   3   6
HETATM    6  N   UNL     1     -10.050   4.669  73.271  1.00  0.00    -0.154 N  
HETATM    7  H   UNL     1     -11.033   4.689  73.003  1.00  0.00     0.000 HD 
BRANCH   6   8
HETATM    8  N   UNL     1      -9.259   5.746  72.990  1.00  0.00    -0.140 NA 
HETATM    9  H   UNL     1      -8.390   5.884  73.506  1.00  0.00     0.000 HD 
BRANCH   8  10
HETATM   10  C   UNL     1      -9.607   6.594  72.071  1.00  0.00    -0.148 C  
HETATM   11  C   UNL     1      -9.885   8.048  72.231  1.00  0.00    -0.301 C  
HETATM   12  C   UNL     1     -10.201   8.817  71.182  1.00  0.00    -0.316 C  
HETATM   13  C   UNL     1     -10.297   8.296  69.821  1.00  0.00    -0.216 A  
HETATM   14  C   UNL     1     -10.613   9.156  68.761  1.00  0.00    -0.208 A  
HETATM   15  C   UNL     1     -10.711   8.666  67.456  1.00  0.00    -0.209 A  
HETATM   16  C   UNL     1     -10.496   7.314  67.196  1.00  0.00    -0.394 A  
HETATM   17  C   UNL     1     -10.181   6.448  68.243  1.00  0.00    -0.197 A  
HETATM   18  C   UNL     1     -10.081   6.942  69.550  1.00  0.00    -0.183 A  
HETATM   19  C   UNL     1      -9.745   6.025  70.656  1.00  0.00    -0.174 C  
HETATM   20  O   UNL     1      -9.574   4.831  70.449  1.00  0.00    -0.162 OA 
ENDBRANCH   8  10
ENDBRANCH   6   8
ENDBRANCH   3   6
TORSDOF 3
ENDMDL
MODEL      231
REMARK 921   NORMALIZED FREE ENERGY PREDICTED BY IDOCK:   -2.60 KCAL/MOL
REMARK 922        TOTAL FREE ENERGY PREDICTED BY IDOCK:   -3.53 KCAL/MOL
REMARK 923 INTER-LIGAND FREE ENERGY PREDICTED BY IDOCK:   -3.13 KCAL/MOL
REMARK 924 INTRA-LIGAND FREE ENERGY PREDICTED BY IDOCK:   -0.40 KCAL/MOL
REMARK 927      BINDING AFFINITY PREDICTED BY RF-SCORE:    0.00 PKD
ROOT
HETATM    1  N   UNL     1      -7.624   6.571  64.157  1.00  0.00    -0.093 N  
HETATM    2  H1  UNL     1      -7.920   7.415  64.647  1.00  0.00     0.000 HD 
HETATM    3  C   UNL     1      -7.537   5.361  64.762  1.00  0.00    -0.084 C  
HETATM    4  H2  UNL     1      -7.384   6.639  63.168  1.00  0.00     0.000 HD 
HETATM    5  O   UNL     1      -7.182   4.347  64.173  1.00  0.00    -0.053 OA 
ENDROOT
BRANCH   3   6
HETATM    6  N   UNL     1      -7.883   5.368  66.090  1.00  0.00    -0.102 N  
HETATM    7  H   UNL     1      -7.554   6.125  66.688  1.00  0.00     0.000 HD 
BRANCH   6   8
HETATM    8  N   UNL     1      -8.659   4.382  66.626  1.00  0.00    -0.111 NA 
HETATM    9  H   UNL     1      -8.900   3.565  66.064  1.00  0.00     0.000 HD 
BRANCH   8  10
HETATM   10  C   UNL     1      -9.092   4.476  67.846  1.00  0.00    -0.123 C  
HETATM   11  C   UNL     1      -8.829   3.549  68.981  1.00  0.00    -0.159 C  
HETATM   12  C   UNL     1      -9.312   3.790  70.205  1.00  0.00    -0.238 C  
HETATM   13  C   UNL     1     -10.124   4.964  70.516  1.00  0.00    -0.312 A  
HETATM   14  C   UNL     1     -10.586   5.172  71.823  1.00  0.00    -0.238 A  
HETATM   15  C   UNL     1     -11.368   6.289  72.129  1.00  0.00    -0.343 A  
HETATM   16  C   UNL     1     -11.698   7.209  71.136  1.00  0.00    -0.350 A  
HETATM   17  C   UNL     1     -11.244   7.013  69.832  1.00  0.00    -0.286 A  
HETATM   18  C   UNL     1     -10.459   5.893  69.528  1.00  0.00    -0.346 A  
HETATM   19  C   UNL     1      -9.977   5.689  68.148  1.00  0.00    -0.147 C  
HETATM   20  O   UNL     1     -10.275   6.475  67.258  1.00  0.00    -0.147 OA 
ENDBRANCH   8  10
ENDBRANCH   6   8
ENDBRANCH   3   6
TORSDOF 3
ENDMDL
MODEL      232
REMARK 921   NORMALIZED FREE ENERGY PREDICTED BY IDOCK:   -2.55 KCAL/MOL
REMARK 922        TOTAL FREE ENERGY PREDICTED BY IDOCK:   -3.48 KCAL/MOL
REMARK 923 INTER-LIGAND FREE ENERGY PREDICTED BY IDOCK:   -3.23 KCAL/MOL
REMARK 924 INTRA-LIGAND FREE ENERGY PREDICTED BY IDOCK:   -0.25 KCAL/MOL
REMARK 927      BINDING AFFINITY PREDICTED BY RF-SCORE:    0.00 PKD
ROOT
HETATM    1  N   UNL     1     -13.304   9.425  71.087  1.00  0.00    -0.545 N  
HETATM    2  H1  UNL     1     -13.045   8.518  70.699  1.00  0.00     0.000 HD 
HETATM    3  C   UNL     1     -12.700  10.582  70.720  1.00  0.00    -0.381 C  
HETATM    4  H2  UNL     1     -14.050   9.464  71.782  1.00  0.00     0.000 HD 
HETATM    5  O   UNL     1     -13.011  11.672  71.186  1.00  0.00    -0.328 OA 
ENDROOT
BRANCH   3   6
HETATM    6  N   UNL     1     -11.712  10.429  69.780  1.00  0.00    -0.365 N  
HETATM    7  H   UNL     1     -11.967  10.339  68.797  1.00  0.00     0.000 HD 
BRANCH   6   8
HETATM    8  N   UNL     1     -10.395  10.396  70.135  1.00  0.00    -0.438 NA 
HETATM    9  H   UNL     1      -9.966  11.214  70.569  1.00  0.00     0.000 HD 
BRANCH   8  10
HETATM   10  C   UNL     1      -9.684   9.331  69.922  1.00  0.00    -0.201 C  
HETATM   11  C   UNL     1     -10.119   7.910  70.022  1.00  0.00    -0.199 C  
HETATM   12  C   UNL     1      -9.285   6.903  69.737  1.00  0.00    -0.147 C  
HETATM   13  C   UNL     1      -7.903   7.119  69.313  1.00  0.00    -0.117 A  
HETATM   14  C   UNL     1      -7.083   6.024  69.010  1.00  0.00    -0.073 A  
HETATM   15  C   UNL     1      -5.759   6.219  68.608  1.00  0.00    -0.016 A  
HETATM   16  C   UNL     1      -5.240   7.508  68.507  1.00  0.00    -0.025 A  
HETATM   17  C   UNL     1      -6.046   8.606  68.806  1.00  0.00    -0.045 A  
HETATM   18  C   UNL     1      -7.374   8.407  69.207  1.00  0.00    -0.071 A  
HETATM   19  C   UNL     1      -8.226   9.570  69.520  1.00  0.00    -0.134 C  
HETATM   20  O   UNL     1      -7.780  10.709  69.457  1.00  0.00    -0.149 OA 
ENDBRANCH   8  10
ENDBRANCH   6   8
ENDBRANCH   3   6
TORSDOF 3
ENDMDL
MODEL      233
REMARK 921   NORMALIZED FREE ENERGY PREDICTED BY IDOCK:   -2.52 KCAL/MOL
REMARK 922        TOTAL FREE ENERGY PREDICTED BY IDOCK:   -3.45 KCAL/MOL
REMARK 923 INTER-LIGAND FREE ENERGY PREDICTED BY IDOCK:   -2.92 KCAL/MOL
REMARK 924 INTRA-LIGAND FREE ENERGY PREDICTED BY IDOCK:   -0.52 KCAL/MOL
REMARK 927      BINDING AFFINITY PREDICTED BY RF-SCORE:    0.00 PKD
ROOT
HETATM    1  N   UNL     1      -8.257   8.490  68.842  1.00  0.00    -0.116 N  
HETATM    2  H1  UNL     1      -8.071   8.001  67.966  1.00  0.00     0.000 HD 
HETATM    3  C   UNL     1      -7.689   9.680  69.157  1.00  0.00    -0.087 C  
HETATM    4  H2  UNL     1      -8.900   8.065  69.512  1.00  0.00     0.000 HD 
HETATM    5  O   UNL     1      -7.913  10.267  70.208  1.00  0.00    -0.122 OA 
ENDROOT
BRANCH   3   6
HETATM    6  N   UNL     1      -6.843  10.172  68.195  1.00  0.00    -0.066 N  
HETATM    7  H   UNL     1      -5.863  10.330  68.425  1.00  0.00     0.000 HD 
BRANCH   6   8
HETATM    8  N   UNL     1      -7.289  10.455  66.936  1.00  0.00    -0.103 NA 
HETATM    9  H   UNL     1      -6.846  10.013  66.130  1.00  0.00     0.000 HD 
BRANCH   8  10
HETATM   10  C   UNL     1      -8.272  11.285  66.758  1.00  0.00    -0.158 C  
HETATM   11  C   UNL     1      -9.632  10.986  66.233  1.00  0.00    -0.231 C  
HETATM   12  C   UNL     1     -10.567  11.938  66.136  1.00  0.00    -0.295 C  
HETATM   13  C   UNL     1     -10.327  13.324  66.531  1.00  0.00    -0.285 A  
HETATM   14  C   UNL     1     -11.353  14.273  66.424  1.00  0.00    -0.346 A  
HETATM   15  C   UNL     1     -11.131  15.601  66.795  1.00  0.00    -0.169 A  
HETATM   16  C   UNL     1      -9.884  15.997  67.276  1.00  0.00    -0.236 A  
HETATM   17  C   UNL     1      -8.855  15.062  67.387  1.00  0.00    -0.202 A  
HETATM   18  C   UNL     1      -9.081  13.730  67.016  1.00  0.00    -0.253 A  
HETATM   19  C   UNL     1      -7.992  12.742  67.137  1.00  0.00    -0.108 C  
HETATM   20  O   UNL     1      -6.884  13.076  67.537  1.00  0.00    -0.146 OA 
ENDBRANCH   8  10
ENDBRANCH   6   8
ENDBRANCH   3   6
TORSDOF 3
ENDMDL
MODEL      234
REMARK 921   NORMALIZED FREE ENERGY PREDICTED BY IDOCK:   -2.51 KCAL/MOL
REMARK 922        TOTAL FREE ENERGY PREDICTED BY IDOCK:   -3.44 KCAL/MOL
REMARK 923 INTER-LIGAND FREE ENERGY PREDICTED BY IDOCK:   -3.22 KCAL/MOL
REMARK 924 INTRA-LIGAND FREE ENERGY PREDICTED BY IDOCK:   -0.22 KCAL/MOL
REMARK 927      BINDING AFFINITY PREDICTED BY RF-SCORE:    0.00 PKD
ROOT
HETATM    1  N   UNL     1      -5.932  15.054  71.613  1.00  0.00     0.346 N  
HETATM    2  H1  UNL     1      -6.160  15.884  72.161  1.00  0.00     0.000 HD 
HETATM    3  C   UNL     1      -5.512  15.115  70.326  1.00  0.00    -0.127 C  
HETATM    4  H2  UNL     1      -6.024  14.138  72.053  1.00  0.00     0.000 HD 
HETATM    5  O   UNL     1      -5.238  14.118  69.668  1.00  0.00    -0.090 OA 
ENDROOT
BRANCH   3   6
HETATM    6  N   UNL     1      -5.417  16.388  69.823  1.00  0.00    -0.148 N  
HETATM    7  H   UNL     1      -5.060  17.135  70.418  1.00  0.00     0.000 HD 
BRANCH   6   8
HETATM    8  N   UNL     1      -5.791  16.675  68.542  1.00  0.00    -0.123 NA 
HETATM    9  H   UNL     1      -5.340  16.194  67.763  1.00  0.00     0.000 HD 
BRANCH   8  10
HETATM   10  C   UNL     1      -6.716  17.556  68.310  1.00  0.00    -0.197 C  
HETATM   11  C   UNL     1      -6.817  18.936  68.858  1.00  0.00    -0.329 C  
HETATM   12  C   UNL     1      -7.813  19.757  68.501  1.00  0.00    -0.310 C  
HETATM   13  C   UNL     1      -8.861  19.364  67.563  1.00  0.00    -0.352 A  
HETATM   14  C   UNL     1      -9.868  20.275  67.214  1.00  0.00    -0.593 A  
HETATM   15  C   UNL     1     -10.877  19.908  66.320  1.00  0.00    -0.317 A  
HETATM   16  C   UNL     1     -10.894  18.629  65.767  1.00  0.00    -0.093 A  
HETATM   17  C   UNL     1      -9.898  17.714  66.106  1.00  0.00    -0.253 A  
HETATM   18  C   UNL     1      -8.886  18.085  67.001  1.00  0.00    -0.259 A  
HETATM   19  C   UNL     1      -7.831  17.117  67.357  1.00  0.00    -0.172 C  
HETATM   20  O   UNL     1      -7.842  15.982  66.897  1.00  0.00    -0.203 OA 
ENDBRANCH   8  10
ENDBRANCH   6   8
ENDBRANCH   3   6
TORSDOF 3
ENDMDL
MODEL      235
REMARK 921   NORMALIZED FREE ENERGY PREDICTED BY IDOCK:   -2.50 KCAL/MOL
REMARK 922        TOTAL FREE ENERGY PREDICTED BY IDOCK:   -3.42 KCAL/MOL
REMARK 923 INTER-LIGAND FREE ENERGY PREDICTED BY IDOCK:   -2.76 KCAL/MOL
REMARK 924 INTRA-LIGAND FREE ENERGY PREDICTED BY IDOCK:   -0.66 KCAL/MOL
REMARK 927      BINDING AFFINITY PREDICTED BY RF-SCORE:    0.00 PKD
ROOT
HETATM    1  N   UNL     1      -6.266  12.912  69.697  1.00  0.00    -0.149 N  
HETATM    2  H1  UNL     1      -6.432  13.052  68.700  1.00  0.00     0.000 HD 
HETATM    3  C   UNL     1      -5.853  11.729  70.214  1.00  0.00    -0.163 C  
HETATM    4  H2  UNL     1      -6.418  13.695  70.332  1.00  0.00     0.000 HD 
HETATM    5  O   UNL     1      -5.655  11.560  71.412  1.00  0.00    -0.364 OA 
ENDROOT
BRANCH   3   6
HETATM    6  N   UNL     1      -5.674  10.737  69.283  1.00  0.00    -0.041 N  
HETATM    7  H   UNL     1      -4.772  10.647  68.817  1.00  0.00     0.000 HD 
BRANCH   6   8
HETATM    8  N   UNL     1      -6.679   9.870  68.968  1.00  0.00    -0.052 NA 
HETATM    9  H   UNL     1      -7.123   9.320  69.704  1.00  0.00     0.000 HD 
BRANCH   8  10
HETATM   10  C   UNL     1      -7.074   9.740  67.738  1.00  0.00    -0.087 C  
HETATM   11  C   UNL     1      -6.660   8.702  66.753  1.00  0.00    -0.061 C  
HETATM   12  C   UNL     1      -7.179   8.665  65.520  1.00  0.00    -0.084 C  
HETATM   13  C   UNL     1      -8.173   9.627  65.053  1.00  0.00    -0.137 A  
HETATM   14  C   UNL     1      -8.693   9.525  63.755  1.00  0.00    -0.237 A  
HETATM   15  C   UNL     1      -9.642  10.443  63.297  1.00  0.00    -0.353 A  
HETATM   16  C   UNL     1     -10.080  11.473  64.128  1.00  0.00    -0.354 A  
HETATM   17  C   UNL     1      -9.571  11.585  65.421  1.00  0.00    -0.249 A  
HETATM   18  C   UNL     1      -8.621  10.662  65.878  1.00  0.00    -0.177 A  
HETATM   19  C   UNL     1      -8.084  10.780  67.248  1.00  0.00    -0.117 C  
HETATM   20  O   UNL     1      -8.442  11.691  67.984  1.00  0.00    -0.137 OA 
ENDBRANCH   8  10
ENDBRANCH   6   8
ENDBRANCH   3   6
TORSDOF 3
ENDMDL
MODEL      236
REMARK 921   NORMALIZED FREE ENERGY PREDICTED BY IDOCK:   -2.50 KCAL/MOL
REMARK 922        TOTAL FREE ENERGY PREDICTED BY IDOCK:   -3.42 KCAL/MOL
REMARK 923 INTER-LIGAND FREE ENERGY PREDICTED BY IDOCK:   -3.23 KCAL/MOL
REMARK 924 INTRA-LIGAND FREE ENERGY PREDICTED BY IDOCK:   -0.19 KCAL/MOL
REMARK 927      BINDING AFFINITY PREDICTED BY RF-SCORE:    0.00 PKD
ROOT
HETATM    1  N   UNL     1      -7.754   5.574  73.061  1.00  0.00    -0.097 N  
HETATM    2  H1  UNL     1      -8.628   5.316  72.602  1.00  0.00     0.000 HD 
HETATM    3  C   UNL     1      -6.873   6.453  72.524  1.00  0.00    -0.069 C  
HETATM    4  H2  UNL     1      -7.532   5.152  73.963  1.00  0.00     0.000 HD 
HETATM    5  O   UNL     1      -5.823   6.763  73.073  1.00  0.00    -0.042 OA 
ENDROOT
BRANCH   3   6
HETATM    6  N   UNL     1      -7.259   6.970  71.312  1.00  0.00    -0.074 N  
HETATM    7  H   UNL     1      -6.547   7.228  70.629  1.00  0.00     0.000 HD 
BRANCH   6   8
HETATM    8  N   UNL     1      -8.577   7.144  71.003  1.00  0.00    -0.132 NA 
HETATM    9  H   UNL     1      -9.281   6.537  71.423  1.00  0.00     0.000 HD 
BRANCH   8  10
HETATM   10  C   UNL     1      -8.940   8.079  70.178  1.00  0.00    -0.150 C  
HETATM   11  C   UNL     1      -8.476   8.289  68.778  1.00  0.00    -0.125 C  
HETATM   12  C   UNL     1      -8.965   9.279  68.023  1.00  0.00    -0.128 C  
HETATM   13  C   UNL     1      -9.975  10.217  68.507  1.00  0.00    -0.177 A  
HETATM   14  C   UNL     1     -10.462  11.222  67.662  1.00  0.00    -0.225 A  
HETATM   15  C   UNL     1     -11.425  12.127  68.117  1.00  0.00    -0.375 A  
HETATM   16  C   UNL     1     -11.910  12.039  69.421  1.00  0.00    -0.384 A  
HETATM   17  C   UNL     1     -11.433  11.042  70.272  1.00  0.00    -0.363 A  
HETATM   18  C   UNL     1     -10.469  10.135  69.812  1.00  0.00    -0.301 A  
HETATM   19  C   UNL     1      -9.967   9.080  70.713  1.00  0.00    -0.245 C  
HETATM   20  O   UNL     1     -10.366   9.001  71.868  1.00  0.00    -0.341 OA 
ENDBRANCH   8  10
ENDBRANCH   6   8
ENDBRANCH   3   6
TORSDOF 3
ENDMDL
MODEL      237
REMARK 921   NORMALIZED FREE ENERGY PREDICTED BY IDOCK:   -2.45 KCAL/MOL
REMARK 922        TOTAL FREE ENERGY PREDICTED BY IDOCK:   -3.36 KCAL/MOL
REMARK 923 INTER-LIGAND FREE ENERGY PREDICTED BY IDOCK:   -2.92 KCAL/MOL
REMARK 924 INTRA-LIGAND FREE ENERGY PREDICTED BY IDOCK:   -0.45 KCAL/MOL
REMARK 927      BINDING AFFINITY PREDICTED BY RF-SCORE:    0.00 PKD
ROOT
HETATM    1  N   UNL     1      -8.398  10.485  69.708  1.00  0.00    -0.379 N  
HETATM    2  H1  UNL     1      -8.126   9.729  70.336  1.00  0.00     0.000 HD 
HETATM    3  C   UNL     1      -9.666  10.648  69.257  1.00  0.00    -0.160 C  
HETATM    4  H2  UNL     1      -7.685  11.149  69.405  1.00  0.00     0.000 HD 
HETATM    5  O   UNL     1      -9.993  11.556  68.502  1.00  0.00    -0.196 OA 
ENDROOT
BRANCH   3   6
HETATM    6  N   UNL     1     -10.554   9.709  69.720  1.00  0.00    -0.227 N  
HETATM    7  H   UNL     1     -11.407   9.526  69.193  1.00  0.00     0.000 HD 
BRANCH   6   8
HETATM    8  N   UNL     1     -10.317   9.015  70.871  1.00  0.00    -0.233 NA 
HETATM    9  H   UNL     1     -10.265   9.512  71.761  1.00  0.00     0.000 HD 
BRANCH   8  10
HETATM   10  C   UNL     1     -10.155   7.727  70.840  1.00  0.00    -0.187 C  
HETATM   11  C   UNL     1     -11.166   6.690  70.496  1.00  0.00    -0.388 C  
HETATM   12  C   UNL     1     -10.851   5.390  70.469  1.00  0.00    -0.200 C  
HETATM   13  C   UNL     1      -9.510   4.897  70.772  1.00  0.00    -0.232 A  
HETATM   14  C   UNL     1      -9.235   3.524  70.708  1.00  0.00    -0.204 A  
HETATM   15  C   UNL     1      -7.957   3.042  71.001  1.00  0.00    -0.056 A  
HETATM   16  C   UNL     1      -6.940   3.924  71.361  1.00  0.00    -0.032 A  
HETATM   17  C   UNL     1      -7.200   5.292  71.428  1.00  0.00    -0.074 A  
HETATM   18  C   UNL     1      -8.483   5.773  71.133  1.00  0.00    -0.128 A  
HETATM   19  C   UNL     1      -8.756   7.221  71.201  1.00  0.00    -0.135 C  
HETATM   20  O   UNL     1      -7.880   8.009  71.537  1.00  0.00    -0.087 OA 
ENDBRANCH   8  10
ENDBRANCH   6   8
ENDBRANCH   3   6
TORSDOF 3
ENDMDL
MODEL      238
REMARK 921   NORMALIZED FREE ENERGY PREDICTED BY IDOCK:   -2.43 KCAL/MOL
REMARK 922        TOTAL FREE ENERGY PREDICTED BY IDOCK:   -3.34 KCAL/MOL
REMARK 923 INTER-LIGAND FREE ENERGY PREDICTED BY IDOCK:   -3.84 KCAL/MOL
REMARK 924 INTRA-LIGAND FREE ENERGY PREDICTED BY IDOCK:    0.50 KCAL/MOL
REMARK 927      BINDING AFFINITY PREDICTED BY RF-SCORE:    0.00 PKD
ROOT
HETATM    1  N   UNL     1     -10.580  16.297  65.361  1.00  0.00    -0.387 N  
HETATM    2  H1  UNL     1     -11.406  15.758  65.100  1.00  0.00     0.000 HD 
HETATM    3  C   UNL     1      -9.413  15.718  65.735  1.00  0.00    -0.299 C  
HETATM    4  H2  UNL     1     -10.634  17.315  65.341  1.00  0.00     0.000 HD 
HETATM    5  O   UNL     1      -8.421  16.364  66.049  1.00  0.00    -0.347 OA 
ENDROOT
BRANCH   3   6
HETATM    6  N   UNL     1      -9.436  14.346  65.729  1.00  0.00    -0.533 N  
HETATM    7  H   UNL     1      -9.484  13.851  64.839  1.00  0.00     0.000 HD 
BRANCH   6   8
HETATM    8  N   UNL     1      -9.396  13.631  66.890  1.00  0.00    -0.250 NA 
HETATM    9  H   UNL     1      -9.165  12.637  66.867  1.00  0.00     0.000 HD 
BRANCH   8  10
HETATM   10  C   UNL     1      -9.649  14.208  68.026  1.00  0.00    -0.218 C  
HETATM   11  C   UNL     1      -8.789  15.167  68.772  1.00  0.00    -0.196 C  
HETATM   12  C   UNL     1      -9.194  15.718  69.923  1.00  0.00     0.140 C  
HETATM   13  C   UNL     1     -10.491  15.422  70.526  1.00  0.00    -0.140 A  
HETATM   14  C   UNL     1     -10.868  16.045  71.723  1.00  0.00     0.659 A  
HETATM   15  C   UNL     1     -12.104  15.765  72.310  1.00  0.00    -0.574 A  
HETATM   16  C   UNL     1     -12.978  14.860  71.709  1.00  0.00    -0.417 A  
HETATM   17  C   UNL     1     -12.615  14.234  70.517  1.00  0.00    -0.418 A  
HETATM   18  C   UNL     1     -11.375  14.518  69.930  1.00  0.00    -0.288 A  
HETATM   19  C   UNL     1     -10.994  13.856  68.667  1.00  0.00    -0.261 C  
HETATM   20  O   UNL     1     -11.740  13.043  68.137  1.00  0.00    -0.313 OA 
ENDBRANCH   8  10
ENDBRANCH   6   8
ENDBRANCH   3   6
TORSDOF 3
ENDMDL
MODEL      239
REMARK 921   NORMALIZED FREE ENERGY PREDICTED BY IDOCK:   -2.40 KCAL/MOL
REMARK 922        TOTAL FREE ENERGY PREDICTED BY IDOCK:   -3.31 KCAL/MOL
REMARK 923 INTER-LIGAND FREE ENERGY PREDICTED BY IDOCK:   -2.89 KCAL/MOL
REMARK 924 INTRA-LIGAND FREE ENERGY PREDICTED BY IDOCK:   -0.41 KCAL/MOL
REMARK 927      BINDING AFFINITY PREDICTED BY RF-SCORE:    0.00 PKD
ROOT
HETATM    1  N   UNL     1     -10.284   7.832  66.550  1.00  0.00    -0.482 N  
HETATM    2  H1  UNL     1     -10.819   7.206  67.152  1.00  0.00     0.000 HD 
HETATM    3  C   UNL     1     -10.342   9.182  66.656  1.00  0.00    -0.218 C  
HETATM    4  H2  UNL     1      -9.679   7.425  65.837  1.00  0.00     0.000 HD 
HETATM    5  O   UNL     1      -9.700   9.934  65.933  1.00  0.00    -0.222 OA 
ENDROOT
BRANCH   3   6
HETATM    6  N   UNL     1     -11.180   9.635  67.645  1.00  0.00    -0.430 N  
HETATM    7  H   UNL     1     -12.183   9.469  67.565  1.00  0.00     0.000 HD 
BRANCH   6   8
HETATM    8  N   UNL     1     -10.697  10.303  68.732  1.00  0.00    -0.207 NA 
HETATM    9  H   UNL     1     -11.248  11.052  69.152  1.00  0.00     0.000 HD 
BRANCH   8  10
HETATM   10  C   UNL     1      -9.541   9.992  69.234  1.00  0.00    -0.216 C  
HETATM   11  C   UNL     1      -8.283  10.787  69.186  1.00  0.00    -0.124 C  
HETATM   12  C   UNL     1      -7.164  10.359  69.783  1.00  0.00    -0.155 C  
HETATM   13  C   UNL     1      -7.093   9.097  70.513  1.00  0.00    -0.088 A  
HETATM   14  C   UNL     1      -5.896   8.711  71.133  1.00  0.00    -0.038 A  
HETATM   15  C   UNL     1      -5.817   7.503  71.831  1.00  0.00    -0.036 A  
HETATM   16  C   UNL     1      -6.929   6.667  71.916  1.00  0.00    -0.071 A  
HETATM   17  C   UNL     1      -8.125   7.040  71.303  1.00  0.00    -0.108 A  
HETATM   18  C   UNL     1      -8.202   8.252  70.606  1.00  0.00    -0.112 A  
HETATM   19  C   UNL     1      -9.469   8.646  69.961  1.00  0.00    -0.166 C  
HETATM   20  O   UNL     1     -10.450   7.914  70.007  1.00  0.00    -0.220 OA 
ENDBRANCH   8  10
ENDBRANCH   6   8
ENDBRANCH   3   6
TORSDOF 3
ENDMDL
MODEL      240
REMARK 921   NORMALIZED FREE ENERGY PREDICTED BY IDOCK:   -2.35 KCAL/MOL
REMARK 922        TOTAL FREE ENERGY PREDICTED BY IDOCK:   -3.24 KCAL/MOL
REMARK 923 INTER-LIGAND FREE ENERGY PREDICTED BY IDOCK:   -3.03 KCAL/MOL
REMARK 924 INTRA-LIGAND FREE ENERGY PREDICTED BY IDOCK:   -0.21 KCAL/MOL
REMARK 927      BINDING AFFINITY PREDICTED BY RF-SCORE:    0.00 PKD
ROOT
HETATM    1  N   UNL     1      -9.208  10.512  69.280  1.00  0.00    -0.312 N  
HETATM    2  H1  UNL     1      -9.719  11.068  68.593  1.00  0.00     0.000 HD 
HETATM    3  C   UNL     1      -9.636   9.300  69.711  1.00  0.00    -0.190 C  
HETATM    4  H2  UNL     1      -8.338  10.885  69.659  1.00  0.00     0.000 HD 
HETATM    5  O   UNL     1      -9.023   8.633  70.535  1.00  0.00    -0.144 OA 
ENDROOT
BRANCH   3   6
HETATM    6  N   UNL     1     -10.813   8.882  69.142  1.00  0.00    -0.407 N  
HETATM    7  H   UNL     1     -11.698   9.163  69.564  1.00  0.00     0.000 HD 
BRANCH   6   8
HETATM    8  N   UNL     1     -10.822   8.099  68.025  1.00  0.00    -0.464 NA 
HETATM    9  H   UNL     1     -11.672   7.597  67.765  1.00  0.00     0.000 HD 
BRANCH   8  10
HETATM   10  C   UNL     1      -9.756   7.988  67.292  1.00  0.00    -0.177 C  
HETATM   11  C   UNL     1      -8.753   6.888  67.304  1.00  0.00    -0.119 C  
HETATM   12  C   UNL     1      -7.713   6.883  66.462  1.00  0.00    -0.101 C  
HETATM   13  C   UNL     1      -7.486   7.943  65.482  1.00  0.00    -0.079 A  
HETATM   14  C   UNL     1      -6.389   7.873  64.613  1.00  0.00    -0.048 A  
HETATM   15  C   UNL     1      -6.160   8.883  63.676  1.00  0.00    -0.080 A  
HETATM   16  C   UNL     1      -7.023   9.975  63.596  1.00  0.00    -0.128 A  
HETATM   17  C   UNL     1      -8.119  10.056  64.455  1.00  0.00    -0.156 A  
HETATM   18  C   UNL     1      -8.346   9.040  65.393  1.00  0.00    -0.151 A  
HETATM   19  C   UNL     1      -9.508   9.127  66.299  1.00  0.00    -0.237 C  
HETATM   20  O   UNL     1     -10.264  10.089  66.258  1.00  0.00    -0.241 OA 
ENDBRANCH   8  10
ENDBRANCH   6   8
ENDBRANCH   3   6
TORSDOF 3
ENDMDL
MODEL      241
REMARK 921   NORMALIZED FREE ENERGY PREDICTED BY IDOCK:   -2.33 KCAL/MOL
REMARK 922        TOTAL FREE ENERGY PREDICTED BY IDOCK:   -3.22 KCAL/MOL
REMARK 923 INTER-LIGAND FREE ENERGY PREDICTED BY IDOCK:   -2.98 KCAL/MOL
REMARK 924 INTRA-LIGAND FREE ENERGY PREDICTED BY IDOCK:   -0.24 KCAL/MOL
REMARK 927      BINDING AFFINITY PREDICTED BY RF-SCORE:    0.00 PKD
ROOT
HETATM    1  N   UNL     1      -6.624  15.625  69.322  1.00  0.00    -0.141 N  
HETATM    2  H1  UNL     1      -7.481  15.710  69.870  1.00  0.00     0.000 HD 
HETATM    3  C   UNL     1      -6.534  14.848  68.215  1.00  0.00    -0.118 C  
HETATM    4  H2  UNL     1      -5.800  16.146  69.620  1.00  0.00     0.000 HD 
HETATM    5  O   UNL     1      -5.506  14.745  67.556  1.00  0.00    -0.337 OA 
ENDROOT
BRANCH   3   6
HETATM    6  N   UNL     1      -7.694  14.189  67.892  1.00  0.00    -0.140 N  
HETATM    7  H   UNL     1      -8.260  14.525  67.114  1.00  0.00     0.000 HD 
BRANCH   6   8
HETATM    8  N   UNL     1      -8.104  13.092  68.593  1.00  0.00    -0.319 NA 
HETATM    9  H   UNL     1      -8.371  13.187  69.573  1.00  0.00     0.000 HD 
BRANCH   8  10
HETATM   10  C   UNL     1      -8.156  11.928  68.019  1.00  0.00    -0.151 C  
HETATM   11  C   UNL     1      -7.144  11.310  67.119  1.00  0.00    -0.125 C  
HETATM   12  C   UNL     1      -7.311  10.078  66.623  1.00  0.00    -0.103 C  
HETATM   13  C   UNL     1      -8.483   9.259  66.923  1.00  0.00    -0.128 A  
HETATM   14  C   UNL     1      -8.592   7.968  66.389  1.00  0.00    -0.155 A  
HETATM   15  C   UNL     1      -9.711   7.178  66.666  1.00  0.00    -0.233 A  
HETATM   16  C   UNL     1     -10.733   7.669  67.477  1.00  0.00    -0.280 A  
HETATM   17  C   UNL     1     -10.636   8.952  68.014  1.00  0.00    -0.226 A  
HETATM   18  C   UNL     1      -9.512   9.741  67.736  1.00  0.00    -0.152 A  
HETATM   19  C   UNL     1      -9.409  11.097  68.308  1.00  0.00    -0.176 C  
HETATM   20  O   UNL     1     -10.308  11.552  69.005  1.00  0.00    -0.194 OA 
ENDBRANCH   8  10
ENDBRANCH   6   8
ENDBRANCH   3   6
TORSDOF 3
ENDMDL
MODEL      242
REMARK 921   NORMALIZED FREE ENERGY PREDICTED BY IDOCK:   -2.31 KCAL/MOL
REMARK 922        TOTAL FREE ENERGY PREDICTED BY IDOCK:   -3.20 KCAL/MOL
REMARK 923 INTER-LIGAND FREE ENERGY PREDICTED BY IDOCK:   -2.94 KCAL/MOL
REMARK 924 INTRA-LIGAND FREE ENERGY PREDICTED BY IDOCK:   -0.26 KCAL/MOL
REMARK 927      BINDING AFFINITY PREDICTED BY RF-SCORE:    0.00 PKD
ROOT
HETATM    1  N   UNL     1      -6.088  14.087  69.532  1.00  0.00    -0.102 N  
HETATM    2  H1  UNL     1      -6.469  14.562  68.713  1.00  0.00     0.000 HD 
HETATM    3  C   UNL     1      -6.296  12.772  69.782  1.00  0.00    -0.065 C  
HETATM    4  H2  UNL     1      -5.524  14.626  70.190  1.00  0.00     0.000 HD 
HETATM    5  O   UNL     1      -5.838  12.201  70.765  1.00  0.00    -0.295 OA 
ENDROOT
BRANCH   3   6
HETATM    6  N   UNL     1      -7.063  12.132  68.840  1.00  0.00    -0.142 N  
HETATM    7  H   UNL     1      -7.884  12.603  68.461  1.00  0.00     0.000 HD 
BRANCH   6   8
HETATM    8  N   UNL     1      -6.748  10.879  68.402  1.00  0.00    -0.058 NA 
HETATM    9  H   UNL     1      -5.773  10.578  68.386  1.00  0.00     0.000 HD 
BRANCH   8  10
HETATM   10  C   UNL     1      -7.681  10.069  68.004  1.00  0.00    -0.089 C  
HETATM   11  C   UNL     1      -8.400  10.076  66.701  1.00  0.00    -0.125 C  
HETATM   12  C   UNL     1      -9.322   9.151  66.407  1.00  0.00    -0.261 C  
HETATM   13  C   UNL     1      -9.688   8.081  67.331  1.00  0.00    -0.216 A  
HETATM   14  C   UNL     1     -10.647   7.129  66.959  1.00  0.00    -0.413 A  
HETATM   15  C   UNL     1     -11.008   6.104  67.837  1.00  0.00    -0.399 A  
HETATM   16  C   UNL     1     -10.416   6.018  69.096  1.00  0.00    -0.321 A  
HETATM   17  C   UNL     1      -9.459   6.959  69.478  1.00  0.00    -0.146 A  
HETATM   18  C   UNL     1      -9.099   7.985  68.594  1.00  0.00    -0.140 A  
HETATM   19  C   UNL     1      -8.085   8.977  68.999  1.00  0.00    -0.107 C  
HETATM   20  O   UNL     1      -7.570   8.929  70.109  1.00  0.00    -0.061 OA 
ENDBRANCH   8  10
ENDBRANCH   6   8
ENDBRANCH   3   6
TORSDOF 3
ENDMDL
MODEL      243
REMARK 921   NORMALIZED FREE ENERGY PREDICTED BY IDOCK:   -2.27 KCAL/MOL
REMARK 922        TOTAL FREE ENERGY PREDICTED BY IDOCK:   -3.15 KCAL/MOL
REMARK 923 INTER-LIGAND FREE ENERGY PREDICTED BY IDOCK:   -2.81 KCAL/MOL
REMARK 924 INTRA-LIGAND FREE ENERGY PREDICTED BY IDOCK:   -0.35 KCAL/MOL
REMARK 927      BINDING AFFINITY PREDICTED BY RF-SCORE:    0.00 PKD
ROOT
HETATM    1  N   UNL     1      -7.112  12.629  69.171  1.00  0.00    -0.281 N  
HETATM    2  H1  UNL     1      -7.269  12.841  68.185  1.00  0.00     0.000 HD 
HETATM    3  C   UNL     1      -6.713  11.410  69.607  1.00  0.00    -0.105 C  
HETATM    4  H2  UNL     1      -7.261  13.368  69.858  1.00  0.00     0.000 HD 
HETATM    5  O   UNL     1      -6.525  11.155  70.791  1.00  0.00    -0.282 OA 
ENDROOT
BRANCH   3   6
HETATM    6  N   UNL     1      -6.536  10.484  68.609  1.00  0.00    -0.051 N  
HETATM    7  H   UNL     1      -5.615  10.377  68.185  1.00  0.00     0.000 HD 
BRANCH   6   8
HETATM    8  N   UNL     1      -7.567   9.704  68.174  1.00  0.00    -0.082 NA 
HETATM    9  H   UNL     1      -7.650   9.479  67.182  1.00  0.00     0.000 HD 
BRANCH   8  10
HETATM   10  C   UNL     1      -8.444   9.246  69.015  1.00  0.00    -0.132 C  
HETATM   11  C   UNL     1      -9.782   9.816  69.338  1.00  0.00    -0.214 C  
HETATM   12  C   UNL     1     -10.605   9.215  70.205  1.00  0.00    -0.258 C  
HETATM   13  C   UNL     1     -10.259   7.974  70.892  1.00  0.00    -0.213 A  
HETATM   14  C   UNL     1     -11.172   7.382  71.775  1.00  0.00    -0.277 A  
HETATM   15  C   UNL     1     -10.848   6.197  72.441  1.00  0.00    -0.281 A  
HETATM   16  C   UNL     1      -9.611   5.591  72.233  1.00  0.00    -0.173 A  
HETATM   17  C   UNL     1      -8.694   6.170  71.356  1.00  0.00    -0.135 A  
HETATM   18  C   UNL     1      -9.022   7.358  70.689  1.00  0.00    -0.155 A  
HETATM   19  C   UNL     1      -8.051   7.967  69.760  1.00  0.00    -0.115 C  
HETATM   20  O   UNL     1      -6.951   7.460  69.582  1.00  0.00    -0.051 OA 
ENDBRANCH   8  10
ENDBRANCH   6   8
ENDBRANCH   3   6
TORSDOF 3
ENDMDL
MODEL      244
REMARK 921   NORMALIZED FREE ENERGY PREDICTED BY IDOCK:   -2.27 KCAL/MOL
REMARK 922        TOTAL FREE ENERGY PREDICTED BY IDOCK:   -3.15 KCAL/MOL
REMARK 923 INTER-LIGAND FREE ENERGY PREDICTED BY IDOCK:   -3.00 KCAL/MOL
REMARK 924 INTRA-LIGAND FREE ENERGY PREDICTED BY IDOCK:   -0.15 KCAL/MOL
REMARK 927      BINDING AFFINITY PREDICTED BY RF-SCORE:    0.00 PKD
ROOT
HETATM    1  N   UNL     1      -8.665  11.077  64.229  1.00  0.00    -0.374 N  
HETATM    2  H1  UNL     1      -8.147  10.698  65.023  1.00  0.00     0.000 HD 
HETATM    3  C   UNL     1     -10.007  11.259  64.245  1.00  0.00    -0.297 C  
HETATM    4  H2  UNL     1      -8.149  11.330  63.386  1.00  0.00     0.000 HD 
HETATM    5  O   UNL     1     -10.629  11.713  63.292  1.00  0.00    -0.380 OA 
ENDROOT
BRANCH   3   6
HETATM    6  N   UNL     1     -10.612  10.893  65.421  1.00  0.00    -0.216 N  
HETATM    7  H   UNL     1     -11.624  10.764  65.444  1.00  0.00     0.000 HD 
BRANCH   6   8
HETATM    8  N   UNL     1      -9.887  10.697  66.561  1.00  0.00    -0.197 NA 
HETATM    9  H   UNL     1      -9.508  11.499  67.064  1.00  0.00     0.000 HD 
BRANCH   8  10
HETATM   10  C   UNL     1      -9.677   9.496  67.007  1.00  0.00    -0.176 C  
HETATM   11  C   UNL     1     -10.534   8.292  66.824  1.00  0.00    -0.313 C  
HETATM   12  C   UNL     1     -10.174   7.099  67.311  1.00  0.00    -0.315 C  
HETATM   13  C   UNL     1      -8.932   6.890  68.051  1.00  0.00    -0.121 A  
HETATM   14  C   UNL     1      -8.601   5.612  68.520  1.00  0.00    -0.107 A  
HETATM   15  C   UNL     1      -7.417   5.403  69.232  1.00  0.00    -0.073 A  
HETATM   16  C   UNL     1      -6.553   6.467  69.485  1.00  0.00    -0.048 A  
HETATM   17  C   UNL     1      -6.871   7.743  69.022  1.00  0.00    -0.057 A  
HETATM   18  C   UNL     1      -8.058   7.950  68.307  1.00  0.00    -0.123 A  
HETATM   19  C   UNL     1      -8.392   9.301  67.817  1.00  0.00    -0.116 C  
HETATM   20  O   UNL     1      -7.654  10.251  68.047  1.00  0.00    -0.087 OA 
ENDBRANCH   8  10
ENDBRANCH   6   8
ENDBRANCH   3   6
TORSDOF 3
ENDMDL
MODEL      245
REMARK 921   NORMALIZED FREE ENERGY PREDICTED BY IDOCK:   -2.26 KCAL/MOL
REMARK 922        TOTAL FREE ENERGY PREDICTED BY IDOCK:   -3.14 KCAL/MOL
REMARK 923 INTER-LIGAND FREE ENERGY PREDICTED BY IDOCK:   -2.74 KCAL/MOL
REMARK 924 INTRA-LIGAND FREE ENERGY PREDICTED BY IDOCK:   -0.40 KCAL/MOL
REMARK 927      BINDING AFFINITY PREDICTED BY RF-SCORE:    0.00 PKD
ROOT
HETATM    1  N   UNL     1      -7.861   7.014  73.841  1.00  0.00    -0.104 N  
HETATM    2  H1  UNL     1      -8.547   6.270  73.712  1.00  0.00     0.000 HD 
HETATM    3  C   UNL     1      -7.267   7.655  72.806  1.00  0.00    -0.077 C  
HETATM    4  H2  UNL     1      -7.611   7.288  74.792  1.00  0.00     0.000 HD 
HETATM    5  O   UNL     1      -6.444   8.549  72.960  1.00  0.00    -0.100 OA 
ENDROOT
BRANCH   3   6
HETATM    6  N   UNL     1      -7.669   7.220  71.567  1.00  0.00    -0.087 N  
HETATM    7  H   UNL     1      -6.975   6.855  70.916  1.00  0.00     0.000 HD 
BRANCH   6   8
HETATM    8  N   UNL     1      -8.980   7.268  71.190  1.00  0.00    -0.147 NA 
HETATM    9  H   UNL     1      -9.680   6.751  71.723  1.00  0.00     0.000 HD 
BRANCH   8  10
HETATM   10  C   UNL     1      -9.341   7.967  70.157  1.00  0.00    -0.156 C  
HETATM   11  C   UNL     1     -10.309   9.097  70.115  1.00  0.00    -0.244 C  
HETATM   12  C   UNL     1     -10.562   9.757  68.979  1.00  0.00    -0.238 C  
HETATM   13  C   UNL     1      -9.918   9.422  67.712  1.00  0.00    -0.228 A  
HETATM   14  C   UNL     1     -10.209  10.163  66.558  1.00  0.00    -0.288 A  
HETATM   15  C   UNL     1      -9.601   9.848  65.340  1.00  0.00    -0.350 A  
HETATM   16  C   UNL     1      -8.698   8.790  65.260  1.00  0.00    -0.216 A  
HETATM   17  C   UNL     1      -8.399   8.045  66.400  1.00  0.00    -0.124 A  
HETATM   18  C   UNL     1      -9.009   8.365  67.621  1.00  0.00    -0.141 A  
HETATM   19  C   UNL     1      -8.690   7.578  68.827  1.00  0.00    -0.128 C  
HETATM   20  O   UNL     1      -7.914   6.631  68.770  1.00  0.00    -0.115 OA 
ENDBRANCH   8  10
ENDBRANCH   6   8
ENDBRANCH   3   6
TORSDOF 3
ENDMDL
MODEL      246
REMARK 921   NORMALIZED FREE ENERGY PREDICTED BY IDOCK:   -2.24 KCAL/MOL
REMARK 922        TOTAL FREE ENERGY PREDICTED BY IDOCK:   -3.11 KCAL/MOL
REMARK 923 INTER-LIGAND FREE ENERGY PREDICTED BY IDOCK:   -2.67 KCAL/MOL
REMARK 924 INTRA-LIGAND FREE ENERGY PREDICTED BY IDOCK:   -0.44 KCAL/MOL
REMARK 927      BINDING AFFINITY PREDICTED BY RF-SCORE:    0.00 PKD
ROOT
HETATM    1  N   UNL     1     -11.387   6.985  71.417  1.00  0.00    -0.255 N  
HETATM    2  H1  UNL     1     -12.180   7.546  71.105  1.00  0.00     0.000 HD 
HETATM    3  C   UNL     1     -10.103   7.408  71.321  1.00  0.00    -0.188 C  
HETATM    4  H2  UNL     1     -11.567   6.064  71.818  1.00  0.00     0.000 HD 
HETATM    5  O   UNL     1      -9.150   6.735  71.695  1.00  0.00    -0.144 OA 
ENDROOT
BRANCH   3   6
HETATM    6  N   UNL     1      -9.960   8.658  70.771  1.00  0.00    -0.187 N  
HETATM    7  H   UNL     1      -9.507   9.393  71.313  1.00  0.00     0.000 HD 
BRANCH   6   8
HETATM    8  N   UNL     1     -10.414   8.936  69.515  1.00  0.00    -0.223 NA 
HETATM    9  H   UNL     1     -11.300   9.427  69.392  1.00  0.00     0.000 HD 
BRANCH   8  10
HETATM   10  C   UNL     1      -9.724   8.579  68.474  1.00  0.00    -0.163 C  
HETATM   11  C   UNL     1      -8.638   9.339  67.795  1.00  0.00    -0.117 C  
HETATM   12  C   UNL     1      -7.982   8.830  66.746  1.00  0.00    -0.097 C  
HETATM   13  C   UNL     1      -8.278   7.511  66.193  1.00  0.00    -0.125 A  
HETATM   14  C   UNL     1      -7.543   7.025  65.104  1.00  0.00    -0.102 A  
HETATM   15  C   UNL     1      -7.822   5.767  64.565  1.00  0.00    -0.113 A  
HETATM   16  C   UNL     1      -8.837   4.980  65.106  1.00  0.00    -0.153 A  
HETATM   17  C   UNL     1      -9.576   5.453  66.191  1.00  0.00    -0.169 A  
HETATM   18  C   UNL     1      -9.293   6.715  66.730  1.00  0.00    -0.184 A  
HETATM   19  C   UNL     1     -10.074   7.212  67.879  1.00  0.00    -0.173 C  
HETATM   20  O   UNL     1     -10.984   6.544  68.354  1.00  0.00    -0.277 OA 
ENDBRANCH   8  10
ENDBRANCH   6   8
ENDBRANCH   3   6
TORSDOF 3
ENDMDL
MODEL      247
REMARK 921   NORMALIZED FREE ENERGY PREDICTED BY IDOCK:   -2.19 KCAL/MOL
REMARK 922        TOTAL FREE ENERGY PREDICTED BY IDOCK:   -3.05 KCAL/MOL
REMARK 923 INTER-LIGAND FREE ENERGY PREDICTED BY IDOCK:   -3.03 KCAL/MOL
REMARK 924 INTRA-LIGAND FREE ENERGY PREDICTED BY IDOCK:   -0.02 KCAL/MOL
REMARK 927      BINDING AFFINITY PREDICTED BY RF-SCORE:    0.00 PKD
ROOT
HETATM    1  N   UNL     1      -5.923  13.639  69.455  1.00  0.00    -0.093 N  
HETATM    2  H1  UNL     1      -6.238  14.206  68.667  1.00  0.00     0.000 HD 
HETATM    3  C   UNL     1      -5.855  12.286  69.406  1.00  0.00    -0.092 C  
HETATM    4  H2  UNL     1      -5.645  14.110  70.316  1.00  0.00     0.000 HD 
HETATM    5  O   UNL     1      -5.477  11.605  70.351  1.00  0.00    -0.105 OA 
ENDROOT
BRANCH   3   6
HETATM    6  N   UNL     1      -6.245  11.744  68.207  1.00  0.00    -0.049 N  
HETATM    7  H   UNL     1      -5.536  11.478  67.525  1.00  0.00     0.000 HD 
BRANCH   6   8
HETATM    8  N   UNL     1      -7.564  11.555  67.909  1.00  0.00    -0.107 NA 
HETATM    9  H   UNL     1      -8.049  12.223  67.309  1.00  0.00     0.000 HD 
BRANCH   8  10
HETATM   10  C   UNL     1      -8.204  10.532  68.387  1.00  0.00    -0.121 C  
HETATM   11  C   UNL     1      -8.420  10.178  69.817  1.00  0.00    -0.147 C  
HETATM   12  C   UNL     1      -9.137   9.104  70.169  1.00  0.00    -0.229 C  
HETATM   13  C   UNL     1      -9.753   8.211  69.192  1.00  0.00    -0.163 A  
HETATM   14  C   UNL     1     -10.509   7.112  69.623  1.00  0.00    -0.241 A  
HETATM   15  C   UNL     1     -11.098   6.249  68.695  1.00  0.00    -0.409 A  
HETATM   16  C   UNL     1     -10.938   6.472  67.329  1.00  0.00    -0.475 A  
HETATM   17  C   UNL     1     -10.188   7.561  66.887  1.00  0.00    -0.359 A  
HETATM   18  C   UNL     1      -9.600   8.426  67.820  1.00  0.00    -0.185 A  
HETATM   19  C   UNL     1      -8.809   9.580  67.350  1.00  0.00    -0.128 C  
HETATM   20  O   UNL     1      -8.640   9.779  66.154  1.00  0.00    -0.125 OA 
ENDBRANCH   8  10
ENDBRANCH   6   8
ENDBRANCH   3   6
TORSDOF 3
ENDMDL
MODEL      248
REMARK 921   NORMALIZED FREE ENERGY PREDICTED BY IDOCK:   -2.19 KCAL/MOL
REMARK 922        TOTAL FREE ENERGY PREDICTED BY IDOCK:   -3.05 KCAL/MOL
REMARK 923 INTER-LIGAND FREE ENERGY PREDICTED BY IDOCK:   -3.10 KCAL/MOL
REMARK 924 INTRA-LIGAND FREE ENERGY PREDICTED BY IDOCK:    0.05 KCAL/MOL
REMARK 927      BINDING AFFINITY PREDICTED BY RF-SCORE:    0.00 PKD
ROOT
HETATM    1  N   UNL     1      -7.987   3.305  65.272  1.00  0.00    -0.082 N  
HETATM    2  H1  UNL     1      -7.541   4.216  65.161  1.00  0.00     0.000 HD 
HETATM    3  C   UNL     1      -8.506   2.878  66.449  1.00  0.00    -0.105 C  
HETATM    4  H2  UNL     1      -8.046   2.689  64.461  1.00  0.00     0.000 HD 
HETATM    5  O   UNL     1      -9.042   1.785  66.582  1.00  0.00    -0.114 OA 
ENDROOT
BRANCH   3   6
HETATM    6  N   UNL     1      -8.382   3.777  67.479  1.00  0.00    -0.093 N  
HETATM    7  H   UNL     1      -7.736   3.576  68.242  1.00  0.00     0.000 HD 
BRANCH   6   8
HETATM    8  N   UNL     1      -9.107   4.933  67.502  1.00  0.00    -0.115 NA 
HETATM    9  H   UNL     1      -9.203   5.489  66.652  1.00  0.00     0.000 HD 
BRANCH   8  10
HETATM   10  C   UNL     1      -9.675   5.330  68.601  1.00  0.00    -0.145 C  
HETATM   11  C   UNL     1     -10.930   6.118  68.744  1.00  0.00    -0.421 C  
HETATM   12  C   UNL     1     -11.424   6.429  69.948  1.00  0.00    -0.483 C  
HETATM   13  C   UNL     1     -10.778   6.027  71.195  1.00  0.00    -0.323 A  
HETATM   14  C   UNL     1     -11.355   6.366  72.426  1.00  0.00    -0.324 A  
HETATM   15  C   UNL     1     -10.743   5.990  73.624  1.00  0.00    -0.240 A  
HETATM   16  C   UNL     1      -9.548   5.272  73.606  1.00  0.00    -0.140 A  
HETATM   17  C   UNL     1      -8.965   4.927  72.388  1.00  0.00    -0.140 A  
HETATM   18  C   UNL     1      -9.582   5.305  71.188  1.00  0.00    -0.218 A  
HETATM   19  C   UNL     1      -8.964   4.937  69.899  1.00  0.00    -0.099 C  
HETATM   20  O   UNL     1      -7.904   4.325  69.865  1.00  0.00    -0.053 OA 
ENDBRANCH   8  10
ENDBRANCH   6   8
ENDBRANCH   3   6
TORSDOF 3
ENDMDL
MODEL      249
REMARK 921   NORMALIZED FREE ENERGY PREDICTED BY IDOCK:   -2.18 KCAL/MOL
REMARK 922        TOTAL FREE ENERGY PREDICTED BY IDOCK:   -3.04 KCAL/MOL
REMARK 923 INTER-LIGAND FREE ENERGY PREDICTED BY IDOCK:   -2.84 KCAL/MOL
REMARK 924 INTRA-LIGAND FREE ENERGY PREDICTED BY IDOCK:   -0.20 KCAL/MOL
REMARK 927      BINDING AFFINITY PREDICTED BY RF-SCORE:    0.00 PKD
ROOT
HETATM    1  N   UNL     1      -9.839   4.447  63.920  1.00  0.00    -0.351 N  
HETATM    2  H1  UNL     1      -9.880   5.465  63.975  1.00  0.00     0.000 HD 
HETATM    3  C   UNL     1      -9.234   3.683  64.862  1.00  0.00    -0.147 C  
HETATM    4  H2  UNL     1     -10.274   3.984  63.122  1.00  0.00     0.000 HD 
HETATM    5  O   UNL     1      -9.185   2.461  64.796  1.00  0.00    -0.136 OA 
ENDROOT
BRANCH   3   6
HETATM    6  N   UNL     1      -8.682   4.395  65.897  1.00  0.00    -0.117 N  
HETATM    7  H   UNL     1      -7.680   4.325  66.074  1.00  0.00     0.000 HD 
BRANCH   6   8
HETATM    8  N   UNL     1      -9.447   5.195  66.695  1.00  0.00    -0.135 NA 
HETATM    9  H   UNL     1     -10.313   4.833  67.095  1.00  0.00     0.000 HD 
BRANCH   8  10
HETATM   10  C   UNL     1      -9.080   6.415  66.947  1.00  0.00    -0.133 C  
HETATM   11  C   UNL     1      -7.694   6.956  67.004  1.00  0.00    -0.103 C  
HETATM   12  C   UNL     1      -7.460   8.252  67.240  1.00  0.00    -0.089 C  
HETATM   13  C   UNL     1      -8.532   9.220  67.460  1.00  0.00    -0.115 A  
HETATM   14  C   UNL     1      -8.225  10.569  67.684  1.00  0.00    -0.111 A  
HETATM   15  C   UNL     1      -9.243  11.501  67.900  1.00  0.00    -0.168 A  
HETATM   16  C   UNL     1     -10.577  11.098  67.895  1.00  0.00    -0.235 A  
HETATM   17  C   UNL     1     -10.895   9.759  67.672  1.00  0.00    -0.301 A  
HETATM   18  C   UNL     1      -9.873   8.826  67.455  1.00  0.00    -0.232 A  
HETATM   19  C   UNL     1     -10.212   7.410  67.217  1.00  0.00    -0.260 C  
HETATM   20  O   UNL     1     -11.377   7.034  67.231  1.00  0.00    -0.207 OA 
ENDBRANCH   8  10
ENDBRANCH   6   8
ENDBRANCH   3   6
TORSDOF 3
ENDMDL
MODEL      250
REMARK 921   NORMALIZED FREE ENERGY PREDICTED BY IDOCK:   -2.08 KCAL/MOL
REMARK 922        TOTAL FREE ENERGY PREDICTED BY IDOCK:   -2.93 KCAL/MOL
REMARK 923 INTER-LIGAND FREE ENERGY PREDICTED BY IDOCK:   -2.89 KCAL/MOL
REMARK 924 INTRA-LIGAND FREE ENERGY PREDICTED BY IDOCK:   -0.04 KCAL/MOL
REMARK 927      BINDING AFFINITY PREDICTED BY RF-SCORE:    0.00 PKD
ROOT
HETATM    1  N   UNL     1      -5.759   8.226  73.276  1.00  0.00    -0.057 N  
HETATM    2  H1  UNL     1      -5.673   7.990  74.265  1.00  0.00     0.000 HD 
HETATM    3  C   UNL     1      -5.743   7.293  72.293  1.00  0.00    -0.037 C  
HETATM    4  H2  UNL     1      -5.862   9.207  73.015  1.00  0.00     0.000 HD 
HETATM    5  O   UNL     1      -5.847   7.576  71.105  1.00  0.00    -0.035 OA 
ENDROOT
BRANCH   3   6
HETATM    6  N   UNL     1      -5.604   6.003  72.741  1.00  0.00    -0.035 N  
HETATM    7  H   UNL     1      -4.678   5.576  72.753  1.00  0.00     0.000 HD 
BRANCH   6   8
HETATM    8  N   UNL     1      -6.680   5.282  73.170  1.00  0.00    -0.073 NA 
HETATM    9  H   UNL     1      -6.541   4.352  73.568  1.00  0.00     0.000 HD 
BRANCH   8  10
HETATM   10  C   UNL     1      -7.879   5.771  73.075  1.00  0.00    -0.104 C  
HETATM   11  C   UNL     1      -8.636   6.535  74.104  1.00  0.00    -0.148 C  
HETATM   12  C   UNL     1      -9.860   7.016  73.856  1.00  0.00    -0.354 C  
HETATM   13  C   UNL     1     -10.537   6.828  72.576  1.00  0.00    -0.249 A  
HETATM   14  C   UNL     1     -11.812   7.372  72.369  1.00  0.00    -0.273 A  
HETATM   15  C   UNL     1     -12.470   7.194  71.150  1.00  0.00    -0.400 A  
HETATM   16  C   UNL     1     -11.864   6.470  70.124  1.00  0.00    -0.331 A  
HETATM   17  C   UNL     1     -10.595   5.925  70.317  1.00  0.00    -0.354 A  
HETATM   18  C   UNL     1      -9.937   6.106  71.541  1.00  0.00    -0.211 A  
HETATM   19  C   UNL     1      -8.594   5.530  71.742  1.00  0.00    -0.135 C  
HETATM   20  O   UNL     1      -8.055   4.874  70.859  1.00  0.00    -0.090 OA 
ENDBRANCH   8  10
ENDBRANCH   6   8
ENDBRANCH   3   6
TORSDOF 3
ENDMDL
MODEL      251
REMARK 921   NORMALIZED FREE ENERGY PREDICTED BY IDOCK:   -2.07 KCAL/MOL
REMARK 922        TOTAL FREE ENERGY PREDICTED BY IDOCK:   -2.91 KCAL/MOL
REMARK 923 INTER-LIGAND FREE ENERGY PREDICTED BY IDOCK:   -2.23 KCAL/MOL
REMARK 924 INTRA-LIGAND FREE ENERGY PREDICTED BY IDOCK:   -0.68 KCAL/MOL
REMARK 927      BINDING AFFINITY PREDICTED BY RF-SCORE:    0.00 PKD
ROOT
HETATM    1  N   UNL     1      -9.468   6.085  65.795  1.00  0.00    -0.369 N  
HETATM    2  H1  UNL     1      -8.872   6.478  66.525  1.00  0.00     0.000 HD 
HETATM    3  C   UNL     1      -9.868   4.790  65.790  1.00  0.00    -0.199 C  
HETATM    4  H2  UNL     1      -9.777   6.694  65.037  1.00  0.00     0.000 HD 
HETATM    5  O   UNL     1     -10.584   4.319  64.914  1.00  0.00    -0.240 OA 
ENDROOT
BRANCH   3   6
HETATM    6  N   UNL     1      -9.406   4.052  66.851  1.00  0.00    -0.168 N  
HETATM    7  H   UNL     1      -8.493   3.602  66.786  1.00  0.00     0.000 HD 
BRANCH   6   8
HETATM    8  N   UNL     1     -10.143   3.909  67.990  1.00  0.00     0.146 NA 
HETATM    9  H   UNL     1     -11.126   3.642  67.927  1.00  0.00     0.000 HD 
BRANCH   8  10
HETATM   10  C   UNL     1      -9.601   4.110  69.152  1.00  0.00    -0.172 C  
HETATM   11  C   UNL     1      -9.123   3.088  70.124  1.00  0.00    -0.189 C  
HETATM   12  C   UNL     1      -8.546   3.439  71.279  1.00  0.00    -0.105 C  
HETATM   13  C   UNL     1      -8.347   4.832  71.670  1.00  0.00    -0.110 A  
HETATM   14  C   UNL     1      -7.719   5.138  72.885  1.00  0.00    -0.098 A  
HETATM   15  C   UNL     1      -7.528   6.467  73.270  1.00  0.00    -0.085 A  
HETATM   16  C   UNL     1      -7.962   7.506  72.447  1.00  0.00    -0.118 A  
HETATM   17  C   UNL     1      -8.588   7.214  71.236  1.00  0.00    -0.124 A  
HETATM   18  C   UNL     1      -8.777   5.880  70.852  1.00  0.00    -0.131 A  
HETATM   19  C   UNL     1      -9.437   5.574  69.568  1.00  0.00    -0.141 C  
HETATM   20  O   UNL     1      -9.844   6.473  68.843  1.00  0.00    -0.133 OA 
ENDBRANCH   8  10
ENDBRANCH   6   8
ENDBRANCH   3   6
TORSDOF 3
ENDMDL
MODEL      252
REMARK 921   NORMALIZED FREE ENERGY PREDICTED BY IDOCK:   -2.06 KCAL/MOL
REMARK 922        TOTAL FREE ENERGY PREDICTED BY IDOCK:   -2.90 KCAL/MOL
REMARK 923 INTER-LIGAND FREE ENERGY PREDICTED BY IDOCK:   -2.57 KCAL/MOL
REMARK 924 INTRA-LIGAND FREE ENERGY PREDICTED BY IDOCK:   -0.34 KCAL/MOL
REMARK 927      BINDING AFFINITY PREDICTED BY RF-SCORE:    0.00 PKD
ROOT
HETATM    1  N   UNL     1      -9.821  12.597  66.693  1.00  0.00    -0.238 N  
HETATM    2  H1  UNL     1      -9.109  11.961  66.334  1.00  0.00     0.000 HD 
HETATM    3  C   UNL     1     -10.161  12.657  68.004  1.00  0.00    -0.230 C  
HETATM    4  H2  UNL     1     -10.300  13.215  66.037  1.00  0.00     0.000 HD 
HETATM    5  O   UNL     1     -11.017  13.421  68.435  1.00  0.00    -0.247 OA 
ENDROOT
BRANCH   3   6
HETATM    6  N   UNL     1      -9.463  11.791  68.808  1.00  0.00    -0.389 N  
HETATM    7  H   UNL     1      -9.716  11.709  69.792  1.00  0.00     0.000 HD 
BRANCH   6   8
HETATM    8  N   UNL     1      -8.437  11.038  68.316  1.00  0.00    -0.131 NA 
HETATM    9  H   UNL     1      -7.658  11.492  67.839  1.00  0.00     0.000 HD 
BRANCH   8  10
HETATM   10  C   UNL     1      -8.446   9.747  68.451  1.00  0.00    -0.114 C  
HETATM   11  C   UNL     1      -8.435   8.963  69.717  1.00  0.00    -0.131 C  
HETATM   12  C   UNL     1      -8.485   7.626  69.710  1.00  0.00    -0.134 C  
HETATM   13  C   UNL     1      -8.552   6.845  68.478  1.00  0.00    -0.123 A  
HETATM   14  C   UNL     1      -8.622   5.446  68.536  1.00  0.00    -0.098 A  
HETATM   15  C   UNL     1      -8.681   4.690  67.362  1.00  0.00    -0.105 A  
HETATM   16  C   UNL     1      -8.670   5.321  66.119  1.00  0.00    -0.129 A  
HETATM   17  C   UNL     1      -8.602   6.712  66.049  1.00  0.00    -0.152 A  
HETATM   18  C   UNL     1      -8.544   7.468  67.227  1.00  0.00    -0.118 A  
HETATM   19  C   UNL     1      -8.474   8.940  67.150  1.00  0.00    -0.106 C  
HETATM   20  O   UNL     1      -8.442   9.509  66.067  1.00  0.00    -0.120 OA 
ENDBRANCH   8  10
ENDBRANCH   6   8
ENDBRANCH   3   6
TORSDOF 3
ENDMDL
MODEL      253
REMARK 921   NORMALIZED FREE ENERGY PREDICTED BY IDOCK:   -2.04 KCAL/MOL
REMARK 922        TOTAL FREE ENERGY PREDICTED BY IDOCK:   -2.88 KCAL/MOL
REMARK 923 INTER-LIGAND FREE ENERGY PREDICTED BY IDOCK:   -2.55 KCAL/MOL
REMARK 924 INTRA-LIGAND FREE ENERGY PREDICTED BY IDOCK:   -0.33 KCAL/MOL
REMARK 927      BINDING AFFINITY PREDICTED BY RF-SCORE:    0.00 PKD
ROOT
HETATM    1  N   UNL     1      -9.361  13.202  66.283  1.00  0.00    -0.434 N  
HETATM    2  H1  UNL     1      -8.609  12.566  66.015  1.00  0.00     0.000 HD 
HETATM    3  C   UNL     1      -9.766  13.362  67.566  1.00  0.00    -0.224 C  
HETATM    4  H2  UNL     1      -9.828  13.741  65.553  1.00  0.00     0.000 HD 
HETATM    5  O   UNL     1     -10.669  14.125  67.888  1.00  0.00    -0.236 OA 
ENDROOT
BRANCH   3   6
HETATM    6  N   UNL     1      -9.077  12.598  68.475  1.00  0.00    -0.370 N  
HETATM    7  H   UNL     1      -9.391  12.572  69.445  1.00  0.00     0.000 HD 
BRANCH   6   8
HETATM    8  N   UNL     1      -7.982  11.873  68.106  1.00  0.00    -0.142 NA 
HETATM    9  H   UNL     1      -7.209  12.332  67.624  1.00  0.00     0.000 HD 
BRANCH   8  10
HETATM   10  C   UNL     1      -7.918  10.602  68.365  1.00  0.00    -0.120 C  
HETATM   11  C   UNL     1      -8.450   9.478  67.546  1.00  0.00    -0.126 C  
HETATM   12  C   UNL     1      -8.280   8.203  67.917  1.00  0.00    -0.129 C  
HETATM   13  C   UNL     1      -7.572   7.824  69.137  1.00  0.00    -0.099 A  
HETATM   14  C   UNL     1      -7.410   6.470  69.462  1.00  0.00    -0.091 A  
HETATM   15  C   UNL     1      -6.737   6.098  70.629  1.00  0.00    -0.053 A  
HETATM   16  C   UNL     1      -6.222   7.071  71.484  1.00  0.00    -0.037 A  
HETATM   17  C   UNL     1      -6.376   8.421  71.170  1.00  0.00    -0.039 A  
HETATM   18  C   UNL     1      -7.050   8.791  69.999  1.00  0.00    -0.047 A  
HETATM   19  C   UNL     1      -7.210  10.220  69.667  1.00  0.00    -0.140 C  
HETATM   20  O   UNL     1      -6.782  11.089  70.417  1.00  0.00    -0.263 OA 
ENDBRANCH   8  10
ENDBRANCH   6   8
ENDBRANCH   3   6
TORSDOF 3
ENDMDL
MODEL      254
REMARK 921   NORMALIZED FREE ENERGY PREDICTED BY IDOCK:   -2.00 KCAL/MOL
REMARK 922        TOTAL FREE ENERGY PREDICTED BY IDOCK:   -2.83 KCAL/MOL
REMARK 923 INTER-LIGAND FREE ENERGY PREDICTED BY IDOCK:   -2.36 KCAL/MOL
REMARK 924 INTRA-LIGAND FREE ENERGY PREDICTED BY IDOCK:   -0.48 KCAL/MOL
REMARK 927      BINDING AFFINITY PREDICTED BY RF-SCORE:    0.00 PKD
ROOT
HETATM    1  N   UNL     1      -7.442  11.341  69.059  1.00  0.00    -0.168 N  
HETATM    2  H1  UNL     1      -7.838  11.308  68.119  1.00  0.00     0.000 HD 
HETATM    3  C   UNL     1      -6.922  10.253  69.677  1.00  0.00    -0.114 C  
HETATM    4  H2  UNL     1      -7.437  12.233  69.556  1.00  0.00     0.000 HD 
HETATM    5  O   UNL     1      -6.446  10.293  70.805  1.00  0.00    -0.270 OA 
ENDROOT
BRANCH   3   6
HETATM    6  N   UNL     1      -6.971   9.103  68.930  1.00  0.00    -0.063 N  
HETATM    7  H   UNL     1      -6.101   8.661  68.635  1.00  0.00     0.000 HD 
BRANCH   6   8
HETATM    8  N   UNL     1      -8.161   8.538  68.575  1.00  0.00    -0.122 NA 
HETATM    9  H   UNL     1      -8.611   8.811  67.700  1.00  0.00     0.000 HD 
BRANCH   8  10
HETATM   10  C   UNL     1      -8.726   7.657  69.343  1.00  0.00    -0.136 C  
HETATM   11  C   UNL     1     -10.032   7.767  70.050  1.00  0.00    -0.187 C  
HETATM   12  C   UNL     1     -10.514   6.759  70.786  1.00  0.00    -0.242 C  
HETATM   13  C   UNL     1      -9.804   5.493  70.951  1.00  0.00    -0.241 A  
HETATM   14  C   UNL     1     -10.370   4.466  71.719  1.00  0.00    -0.141 A  
HETATM   15  C   UNL     1      -9.697   3.253  71.887  1.00  0.00    -0.233 A  
HETATM   16  C   UNL     1      -8.453   3.052  71.291  1.00  0.00    -0.094 A  
HETATM   17  C   UNL     1      -7.881   4.065  70.523  1.00  0.00    -0.051 A  
HETATM   18  C   UNL     1      -8.558   5.281  70.356  1.00  0.00    -0.120 A  
HETATM   19  C   UNL     1      -7.952   6.351  69.541  1.00  0.00    -0.113 C  
HETATM   20  O   UNL     1      -6.850   6.199  69.028  1.00  0.00    -0.061 OA 
ENDBRANCH   8  10
ENDBRANCH   6   8
ENDBRANCH   3   6
TORSDOF 3
ENDMDL
MODEL      255
REMARK 921   NORMALIZED FREE ENERGY PREDICTED BY IDOCK:   -1.99 KCAL/MOL
REMARK 922        TOTAL FREE ENERGY PREDICTED BY IDOCK:   -2.82 KCAL/MOL
REMARK 923 INTER-LIGAND FREE ENERGY PREDICTED BY IDOCK:   -2.43 KCAL/MOL
REMARK 924 INTRA-LIGAND FREE ENERGY PREDICTED BY IDOCK:   -0.39 KCAL/MOL
REMARK 927      BINDING AFFINITY PREDICTED BY RF-SCORE:    0.00 PKD
ROOT
HETATM    1  N   UNL     1      -7.680   6.613  64.167  1.00  0.00    -0.105 N  
HETATM    2  H1  UNL     1      -7.979   7.573  64.345  1.00  0.00     0.000 HD 
HETATM    3  C   UNL     1      -7.811   5.621  65.081  1.00  0.00    -0.099 C  
HETATM    4  H2  UNL     1      -7.265   6.391  63.262  1.00  0.00     0.000 HD 
HETATM    5  O   UNL     1      -7.452   4.469  64.868  1.00  0.00    -0.071 OA 
ENDROOT
BRANCH   3   6
HETATM    6  N   UNL     1      -8.382   6.015  66.265  1.00  0.00    -0.118 N  
HETATM    7  H   UNL     1      -9.330   5.713  66.488  1.00  0.00     0.000 HD 
BRANCH   6   8
HETATM    8  N   UNL     1      -7.706   6.804  67.150  1.00  0.00    -0.102 NA 
HETATM    9  H   UNL     1      -6.764   7.127  66.925  1.00  0.00     0.000 HD 
BRANCH   8  10
HETATM   10  C   UNL     1      -8.253   7.144  68.278  1.00  0.00    -0.124 C  
HETATM   11  C   UNL     1      -8.593   8.515  68.748  1.00  0.00    -0.131 C  
HETATM   12  C   UNL     1      -9.193   8.719  69.927  1.00  0.00    -0.160 C  
HETATM   13  C   UNL     1      -9.553   7.628  70.829  1.00  0.00    -0.166 A  
HETATM   14  C   UNL     1     -10.198   7.904  72.042  1.00  0.00    -0.270 A  
HETATM   15  C   UNL     1     -10.542   6.867  72.914  1.00  0.00    -0.290 A  
HETATM   16  C   UNL     1     -10.246   5.546  72.584  1.00  0.00    -0.222 A  
HETATM   17  C   UNL     1      -9.605   5.259  71.380  1.00  0.00    -0.209 A  
HETATM   18  C   UNL     1      -9.262   6.300  70.507  1.00  0.00    -0.164 A  
HETATM   19  C   UNL     1      -8.587   5.994  69.232  1.00  0.00    -0.118 C  
HETATM   20  O   UNL     1      -8.300   4.840  68.936  1.00  0.00    -0.082 OA 
ENDBRANCH   8  10
ENDBRANCH   6   8
ENDBRANCH   3   6
TORSDOF 3
ENDMDL
MODEL      256
REMARK 921   NORMALIZED FREE ENERGY PREDICTED BY IDOCK:   -1.93 KCAL/MOL
REMARK 922        TOTAL FREE ENERGY PREDICTED BY IDOCK:   -2.75 KCAL/MOL
REMARK 923 INTER-LIGAND FREE ENERGY PREDICTED BY IDOCK:   -3.08 KCAL/MOL
REMARK 924 INTRA-LIGAND FREE ENERGY PREDICTED BY IDOCK:    0.33 KCAL/MOL
REMARK 927      BINDING AFFINITY PREDICTED BY RF-SCORE:    0.00 PKD
ROOT
HETATM    1  N   UNL     1      -9.948  13.318  65.052  1.00  0.00    -0.546 N  
HETATM    2  H1  UNL     1      -9.171  12.964  64.493  1.00  0.00     0.000 HD 
HETATM    3  C   UNL     1     -10.768  12.509  65.767  1.00  0.00    -0.269 C  
HETATM    4  H2  UNL     1     -10.115  14.324  65.075  1.00  0.00     0.000 HD 
HETATM    5  O   UNL     1     -11.701  12.933  66.438  1.00  0.00    -0.355 OA 
ENDROOT
BRANCH   3   6
HETATM    6  N   UNL     1     -10.463  11.174  65.676  1.00  0.00    -0.258 N  
HETATM    7  H   UNL     1     -10.112  10.800  64.794  1.00  0.00     0.000 HD 
BRANCH   6   8
HETATM    8  N   UNL     1     -10.619  10.336  66.742  1.00  0.00    -0.214 NA 
HETATM    9  H   UNL     1     -11.320  10.547  67.453  1.00  0.00     0.000 HD 
BRANCH   8  10
HETATM   10  C   UNL     1      -9.882   9.274  66.856  1.00  0.00    -0.214 C  
HETATM   11  C   UNL     1      -9.813   8.332  68.007  1.00  0.00    -0.201 C  
HETATM   12  C   UNL     1      -9.029   7.248  67.975  1.00  0.00    -0.131 C  
HETATM   13  C   UNL     1      -8.194   6.911  66.826  1.00  0.00    -0.114 A  
HETATM   14  C   UNL     1      -7.409   5.750  66.844  1.00  0.00    -0.079 A  
HETATM   15  C   UNL     1      -6.603   5.422  65.751  1.00  0.00    -0.044 A  
HETATM   16  C   UNL     1      -6.570   6.249  64.629  1.00  0.00    -0.038 A  
HETATM   17  C   UNL     1      -7.347   7.406  64.599  1.00  0.00    -0.082 A  
HETATM   18  C   UNL     1      -8.156   7.732  65.696  1.00  0.00    -0.129 A  
HETATM   19  C   UNL     1      -8.980   8.956  65.660  1.00  0.00    -0.201 C  
HETATM   20  O   UNL     1      -8.948   9.705  64.692  1.00  0.00    -0.206 OA 
ENDBRANCH   8  10
ENDBRANCH   6   8
ENDBRANCH   3   6
TORSDOF 3
ENDMDL
MODEL      257
REMARK 921   NORMALIZED FREE ENERGY PREDICTED BY IDOCK:   -1.81 KCAL/MOL
REMARK 922        TOTAL FREE ENERGY PREDICTED BY IDOCK:   -2.61 KCAL/MOL
REMARK 923 INTER-LIGAND FREE ENERGY PREDICTED BY IDOCK:   -2.34 KCAL/MOL
REMARK 924 INTRA-LIGAND FREE ENERGY PREDICTED BY IDOCK:   -0.27 KCAL/MOL
REMARK 927      BINDING AFFINITY PREDICTED BY RF-SCORE:    0.00 PKD
ROOT
HETATM    1  N   UNL     1      -7.563  15.236  69.222  1.00  0.00    -0.197 N  
HETATM    2  H1  UNL     1      -8.353  15.078  69.847  1.00  0.00     0.000 HD 
HETATM    3  C   UNL     1      -7.496  14.712  67.974  1.00  0.00    -0.131 C  
HETATM    4  H2  UNL     1      -6.788  15.813  69.550  1.00  0.00     0.000 HD 
HETATM    5  O   UNL     1      -6.547  14.901  67.222  1.00  0.00    -0.297 OA 
ENDROOT
BRANCH   3   6
HETATM    6  N   UNL     1      -8.584  13.953  67.621  1.00  0.00    -0.177 N  
HETATM    7  H   UNL     1      -9.355  14.390  67.115  1.00  0.00     0.000 HD 
BRANCH   6   8
HETATM    8  N   UNL     1      -8.655  12.627  67.934  1.00  0.00    -0.170 NA 
HETATM    9  H   UNL     1      -8.779  12.341  68.906  1.00  0.00     0.000 HD 
BRANCH   8  10
HETATM   10  C   UNL     1      -8.566  11.727  67.002  1.00  0.00    -0.173 C  
HETATM   11  C   UNL     1      -9.475  11.523  65.841  1.00  0.00    -0.251 C  
HETATM   12  C   UNL     1      -9.241  10.572  64.930  1.00  0.00    -0.254 C  
HETATM   13  C   UNL     1      -8.093   9.672  65.006  1.00  0.00    -0.127 A  
HETATM   14  C   UNL     1      -7.890   8.707  64.010  1.00  0.00    -0.146 A  
HETATM   15  C   UNL     1      -6.797   7.839  64.076  1.00  0.00    -0.061 A  
HETATM   16  C   UNL     1      -5.896   7.924  65.136  1.00  0.00    -0.037 A  
HETATM   17  C   UNL     1      -6.087   8.880  66.133  1.00  0.00    -0.056 A  
HETATM   18  C   UNL     1      -7.183   9.750  66.063  1.00  0.00    -0.101 A  
HETATM   19  C   UNL     1      -7.381  10.764  67.117  1.00  0.00    -0.101 C  
HETATM   20  O   UNL     1      -6.611  10.838  68.067  1.00  0.00    -0.062 OA 
ENDBRANCH   8  10
ENDBRANCH   6   8
ENDBRANCH   3   6
TORSDOF 3
ENDMDL
MODEL      258
REMARK 921   NORMALIZED FREE ENERGY PREDICTED BY IDOCK:   -1.74 KCAL/MOL
REMARK 922        TOTAL FREE ENERGY PREDICTED BY IDOCK:   -2.52 KCAL/MOL
REMARK 923 INTER-LIGAND FREE ENERGY PREDICTED BY IDOCK:   -2.12 KCAL/MOL
REMARK 924 INTRA-LIGAND FREE ENERGY PREDICTED BY IDOCK:   -0.40 KCAL/MOL
REMARK 927      BINDING AFFINITY PREDICTED BY RF-SCORE:    0.00 PKD
ROOT
HETATM    1  N   UNL     1      -8.066  11.332  69.272  1.00  0.00    -0.378 N  
HETATM    2  H1  UNL     1      -7.056  11.199  69.215  1.00  0.00     0.000 HD 
HETATM    3  C   UNL     1      -8.942  10.299  69.319  1.00  0.00    -0.179 C  
HETATM    4  H2  UNL     1      -8.433  12.284  69.294  1.00  0.00     0.000 HD 
HETATM    5  O   UNL     1     -10.155  10.458  69.387  1.00  0.00    -0.218 OA 
ENDROOT
BRANCH   3   6
HETATM    6  N   UNL     1      -8.354   9.059  69.287  1.00  0.00    -0.120 N  
HETATM    7  H   UNL     1      -8.113   8.643  68.387  1.00  0.00     0.000 HD 
BRANCH   6   8
HETATM    8  N   UNL     1      -8.087   8.371  70.434  1.00  0.00    -0.104 NA 
HETATM    9  H   UNL     1      -8.152   8.844  71.336  1.00  0.00     0.000 HD 
BRANCH   8  10
HETATM   10  C   UNL     1      -7.749   7.118  70.386  1.00  0.00    -0.095 C  
HETATM   11  C   UNL     1      -6.478   6.498  70.850  1.00  0.00    -0.049 C  
HETATM   12  C   UNL     1      -6.276   5.177  70.772  1.00  0.00    -0.023 C  
HETATM   13  C   UNL     1      -7.274   4.257  70.231  1.00  0.00    -0.045 A  
HETATM   14  C   UNL     1      -7.012   2.881  70.193  1.00  0.00    -0.034 A  
HETATM   15  C   UNL     1      -7.958   1.994  69.674  1.00  0.00    -0.053 A  
HETATM   16  C   UNL     1      -9.174   2.470  69.187  1.00  0.00    -0.199 A  
HETATM   17  C   UNL     1      -9.446   3.837  69.219  1.00  0.00    -0.252 A  
HETATM   18  C   UNL     1      -8.496   4.725  69.742  1.00  0.00    -0.086 A  
HETATM   19  C   UNL     1      -8.787   6.171  69.778  1.00  0.00    -0.135 C  
HETATM   20  O   UNL     1      -9.842   6.609  69.335  1.00  0.00    -0.150 OA 
ENDBRANCH   8  10
ENDBRANCH   6   8
ENDBRANCH   3   6
TORSDOF 3
ENDMDL
MODEL      259
REMARK 921   NORMALIZED FREE ENERGY PREDICTED BY IDOCK:   -1.63 KCAL/MOL
REMARK 922        TOTAL FREE ENERGY PREDICTED BY IDOCK:   -2.40 KCAL/MOL
REMARK 923 INTER-LIGAND FREE ENERGY PREDICTED BY IDOCK:   -1.91 KCAL/MOL
REMARK 924 INTRA-LIGAND FREE ENERGY PREDICTED BY IDOCK:   -0.48 KCAL/MOL
REMARK 927      BINDING AFFINITY PREDICTED BY RF-SCORE:    0.00 PKD
ROOT
HETATM    1  N   UNL     1      -5.448   8.658  71.752  1.00  0.00    -0.039 N  
HETATM    2  H1  UNL     1      -5.930   9.216  72.458  1.00  0.00     0.000 HD 
HETATM    3  C   UNL     1      -5.856   7.418  71.391  1.00  0.00    -0.036 C  
HETATM    4  H2  UNL     1      -4.623   9.052  71.298  1.00  0.00     0.000 HD 
HETATM    5  O   UNL     1      -5.277   6.748  70.544  1.00  0.00    -0.018 OA 
ENDROOT
BRANCH   3   6
HETATM    6  N   UNL     1      -6.974   6.976  72.053  1.00  0.00    -0.064 N  
HETATM    7  H   UNL     1      -6.865   6.388  72.879  1.00  0.00     0.000 HD 
BRANCH   6   8
HETATM    8  N   UNL     1      -8.227   7.307  71.628  1.00  0.00    -0.104 NA 
HETATM    9  H   UNL     1      -8.868   7.784  72.263  1.00  0.00     0.000 HD 
BRANCH   8  10
HETATM   10  C   UNL     1      -8.609   7.020  70.421  1.00  0.00    -0.142 C  
HETATM   11  C   UNL     1      -9.025   7.964  69.347  1.00  0.00    -0.145 C  
HETATM   12  C   UNL     1      -9.361   7.529  68.127  1.00  0.00    -0.137 C  
HETATM   13  C   UNL     1      -9.348   6.115  67.762  1.00  0.00    -0.109 A  
HETATM   14  C   UNL     1      -9.692   5.722  66.462  1.00  0.00    -0.185 A  
HETATM   15  C   UNL     1      -9.687   4.371  66.105  1.00  0.00    -0.220 A  
HETATM   16  C   UNL     1      -9.339   3.399  67.040  1.00  0.00    -0.212 A  
HETATM   17  C   UNL     1      -8.994   3.777  68.337  1.00  0.00    -0.170 A  
HETATM   18  C   UNL     1      -8.999   5.132  68.693  1.00  0.00    -0.122 A  
HETATM   19  C   UNL     1      -8.630   5.531  70.065  1.00  0.00    -0.120 C  
HETATM   20  O   UNL     1      -8.343   4.688  70.906  1.00  0.00    -0.090 OA 
ENDBRANCH   8  10
ENDBRANCH   6   8
ENDBRANCH   3   6
TORSDOF 3
ENDMDL
MODEL      260
REMARK 921   NORMALIZED FREE ENERGY PREDICTED BY IDOCK:   -1.62 KCAL/MOL
REMARK 922        TOTAL FREE ENERGY PREDICTED BY IDOCK:   -2.39 KCAL/MOL
REMARK 923 INTER-LIGAND FREE ENERGY PREDICTED BY IDOCK:   -2.18 KCAL/MOL
REMARK 924 INTRA-LIGAND FREE ENERGY PREDICTED BY IDOCK:   -0.21 KCAL/MOL
REMARK 927      BINDING AFFINITY PREDICTED BY RF-SCORE:    0.00 PKD
ROOT
HETATM    1  N   UNL     1      -6.981   6.206  74.199  1.00  0.00    -0.083 N  
HETATM    2  H1  UNL     1      -7.560   5.571  73.649  1.00  0.00     0.000 HD 
HETATM    3  C   UNL     1      -6.172   7.137  73.637  1.00  0.00    -0.065 C  
HETATM    4  H2  UNL     1      -7.012   6.139  75.217  1.00  0.00     0.000 HD 
HETATM    5  O   UNL     1      -5.476   7.900  74.296  1.00  0.00    -0.060 OA 
ENDROOT
BRANCH   3   6
HETATM    6  N   UNL     1      -6.200   7.154  72.264  1.00  0.00    -0.044 N  
HETATM    7  H   UNL     1      -5.376   6.854  71.744  1.00  0.00     0.000 HD 
BRANCH   6   8
HETATM    8  N   UNL     1      -7.309   7.564  71.583  1.00  0.00    -0.073 NA 
HETATM    9  H   UNL     1      -7.805   8.404  71.881  1.00  0.00     0.000 HD 
BRANCH   8  10
HETATM   10  C   UNL     1      -7.735   6.891  70.557  1.00  0.00    -0.096 C  
HETATM   11  C   UNL     1      -7.218   5.595  70.038  1.00  0.00    -0.068 C  
HETATM   12  C   UNL     1      -7.781   4.990  68.986  1.00  0.00    -0.080 C  
HETATM   13  C   UNL     1      -8.928   5.549  68.275  1.00  0.00    -0.109 A  
HETATM   14  C   UNL     1      -9.486   4.859  67.190  1.00  0.00    -0.154 A  
HETATM   15  C   UNL     1     -10.581   5.388  66.501  1.00  0.00    -0.353 A  
HETATM   16  C   UNL     1     -11.129   6.610  66.886  1.00  0.00    -0.319 A  
HETATM   17  C   UNL     1     -10.583   7.306  67.964  1.00  0.00    -0.247 A  
HETATM   18  C   UNL     1      -9.486   6.773  68.654  1.00  0.00    -0.132 A  
HETATM   19  C   UNL     1      -8.911   7.509  69.796  1.00  0.00    -0.141 C  
HETATM   20  O   UNL     1      -9.367   8.594  70.135  1.00  0.00    -0.156 OA 
ENDBRANCH   8  10
ENDBRANCH   6   8
ENDBRANCH   3   6
TORSDOF 3
ENDMDL
MODEL      261
REMARK 921   NORMALIZED FREE ENERGY PREDICTED BY IDOCK:   -1.39 KCAL/MOL
REMARK 922        TOTAL FREE ENERGY PREDICTED BY IDOCK:   -2.11 KCAL/MOL
REMARK 923 INTER-LIGAND FREE ENERGY PREDICTED BY IDOCK:   -1.87 KCAL/MOL
REMARK 924 INTRA-LIGAND FREE ENERGY PREDICTED BY IDOCK:   -0.24 KCAL/MOL
REMARK 927      BINDING AFFINITY PREDICTED BY RF-SCORE:    0.00 PKD
ROOT
HETATM    1  N   UNL     1      -7.181   5.963  73.092  1.00  0.00    -0.085 N  
HETATM    2  H1  UNL     1      -8.065   6.218  73.532  1.00  0.00     0.000 HD 
HETATM    3  C   UNL     1      -7.053   5.763  71.758  1.00  0.00    -0.082 C  
HETATM    4  H2  UNL     1      -6.355   5.855  73.682  1.00  0.00     0.000 HD 
HETATM    5  O   UNL     1      -5.991   5.457  71.229  1.00  0.00    -0.025 OA 
ENDROOT
BRANCH   3   6
HETATM    6  N   UNL     1      -8.215   5.934  71.048  1.00  0.00    -0.120 N  
HETATM    7  H   UNL     1      -8.564   5.171  70.468  1.00  0.00     0.000 HD 
BRANCH   6   8
HETATM    8  N   UNL     1      -8.913   7.105  71.102  1.00  0.00    -0.144 NA 
HETATM    9  H   UNL     1      -9.808   7.140  71.591  1.00  0.00     0.000 HD 
BRANCH   8  10
HETATM   10  C   UNL     1      -8.446   8.175  70.534  1.00  0.00    -0.125 C  
HETATM   11  C   UNL     1      -7.424   9.118  71.068  1.00  0.00    -0.120 C  
HETATM   12  C   UNL     1      -7.004  10.169  70.355  1.00  0.00    -0.119 C  
HETATM   13  C   UNL     1      -7.511  10.468  69.018  1.00  0.00    -0.112 A  
HETATM   14  C   UNL     1      -7.018  11.574  68.312  1.00  0.00    -0.073 A  
HETATM   15  C   UNL     1      -7.499  11.871  67.034  1.00  0.00    -0.126 A  
HETATM   16  C   UNL     1      -8.478  11.070  66.448  1.00  0.00    -0.164 A  
HETATM   17  C   UNL     1      -8.975   9.966  67.141  1.00  0.00    -0.150 A  
HETATM   18  C   UNL     1      -8.490   9.670  68.421  1.00  0.00    -0.118 A  
HETATM   19  C   UNL     1      -9.016   8.500  69.151  1.00  0.00    -0.146 C  
HETATM   20  O   UNL     1      -9.891   7.798  68.661  1.00  0.00    -0.161 OA 
ENDBRANCH   8  10
ENDBRANCH   6   8
ENDBRANCH   3   6
TORSDOF 3
ENDMDL
MODEL      262
REMARK 921   NORMALIZED FREE ENERGY PREDICTED BY IDOCK:    2.36 KCAL/MOL
REMARK 922        TOTAL FREE ENERGY PREDICTED BY IDOCK:    2.29 KCAL/MOL
REMARK 923 INTER-LIGAND FREE ENERGY PREDICTED BY IDOCK:   -0.61 KCAL/MOL
REMARK 924 INTRA-LIGAND FREE ENERGY PREDICTED BY IDOCK:    2.90 KCAL/MOL
REMARK 927      BINDING AFFINITY PREDICTED BY RF-SCORE:    0.00 PKD
ROOT
HETATM    1  N   UNL     1      -5.253  15.686  72.431  1.00  0.00     0.073 N  
HETATM    2  H1  UNL     1      -5.177  16.094  73.363  1.00  0.00     0.000 HD 
HETATM    3  C   UNL     1      -5.267  16.431  71.300  1.00  0.00    -0.025 C  
HETATM    4  H2  UNL     1      -5.323  14.671  72.347  1.00  0.00     0.000 HD 
HETATM    5  O   UNL     1      -5.359  15.941  70.181  1.00  0.00    -0.134 OA 
ENDROOT
BRANCH   3   6
HETATM    6  N   UNL     1      -5.165  17.783  71.514  1.00  0.00    -0.405 N  
HETATM    7  H   UNL     1      -4.508  18.131  72.211  1.00  0.00     0.000 HD 
BRANCH   6   8
HETATM    8  N   UNL     1      -5.927  18.671  70.811  1.00  0.00     0.046 NA 
HETATM    9  H   UNL     1      -5.712  19.668  70.852  1.00  0.00     0.000 HD 
BRANCH   8  10
HETATM   10  C   UNL     1      -6.925  18.255  70.092  1.00  0.00     0.878 C  
HETATM   11  C   UNL     1      -7.483  16.877  70.018  1.00  0.00     1.221 C  
HETATM   12  C   UNL     1      -8.546  16.594  69.256  1.00  0.00    -0.016 C  
HETATM   13  C   UNL     1      -9.227  17.602  68.447  1.00  0.00    -0.288 A  
HETATM   14  C   UNL     1     -10.348  17.249  67.683  1.00  0.00    -0.350 A  
HETATM   15  C   UNL     1     -11.004  18.205  66.903  1.00  0.00     0.057 A  
HETATM   16  C   UNL     1     -10.548  19.522  66.876  1.00  0.00    -0.602 A  
HETATM   17  C   UNL     1      -9.435  19.886  67.633  1.00  0.00    -0.479 A  
HETATM   18  C   UNL     1      -8.780  18.925  68.415  1.00  0.00    -0.380 A  
HETATM   19  C   UNL     1      -7.603  19.313  69.217  1.00  0.00    -0.192 C  
HETATM   20  O   UNL     1      -7.177  20.460  69.189  1.00  0.00    -0.017 OA 
ENDBRANCH   8  10
ENDBRANCH   6   8
ENDBRANCH   3   6
TORSDOF 3
ENDMDL
MODEL      263
REMARK 921   NORMALIZED FREE ENERGY PREDICTED BY IDOCK:    6.62 KCAL/MOL
REMARK 922        TOTAL FREE ENERGY PREDICTED BY IDOCK:    7.31 KCAL/MOL
REMARK 923 INTER-LIGAND FREE ENERGY PREDICTED BY IDOCK:    7.67 KCAL/MOL
REMARK 924 INTRA-LIGAND FREE ENERGY PREDICTED BY IDOCK:   -0.36 KCAL/MOL
REMARK 927      BINDING AFFINITY PREDICTED BY RF-SCORE:    0.00 PKD
ROOT
HETATM    1  N   UNL     1      -7.960  15.253  66.886  1.00  0.00    -0.276 N  
HETATM    2  H1  UNL     1      -7.559  15.542  67.779  1.00  0.00     0.000 HD 
HETATM    3  C   UNL     1      -9.255  14.878  66.748  1.00  0.00    -0.259 C  
HETATM    4  H2  UNL     1      -7.360  15.247  66.061  1.00  0.00     0.000 HD 
HETATM    5  O   UNL     1      -9.737  14.531  65.676  1.00  0.00    -0.316 OA 
ENDROOT
BRANCH   3   6
HETATM    6  N   UNL     1      -9.982  14.921  67.911  1.00  0.00    -0.218 N  
HETATM    7  H   UNL     1     -11.000  14.881  67.866  1.00  0.00     0.000 HD 
BRANCH   6   8
HETATM    8  N   UNL     1      -9.370  15.017  69.127  1.00  0.00    -0.280 NA 
HETATM    9  H   UNL     1      -8.365  14.860  69.202  1.00  0.00     0.000 HD 
BRANCH   8  10
HETATM   10  C   UNL     1     -10.059  15.308  70.188  1.00  0.00    -0.093 C  
HETATM   11  C   UNL     1     -10.190  16.632  70.856  1.00  0.00     1.797 C  
HETATM   12  C   UNL     1     -10.970  16.798  71.931  1.00  0.00     1.276 C  
HETATM   13  C   UNL     1     -11.739  15.707  72.523  1.00  0.00    -0.567 A  
HETATM   14  C   UNL     1     -12.554  15.947  73.638  1.00  0.00    -0.708 A  
HETATM   15  C   UNL     1     -13.291  14.909  74.214  1.00  0.00     2.100 A  
HETATM   16  C   UNL     1     -13.221  13.621  73.686  1.00  0.00     2.388 A  
HETATM   17  C   UNL     1     -12.415  13.370  72.576  1.00  0.00     0.287 A  
HETATM   18  C   UNL     1     -11.678  14.413  71.999  1.00  0.00     0.206 A  
HETATM   19  C   UNL     1     -10.828  14.146  70.824  1.00  0.00     1.041 C  
HETATM   20  O   UNL     1     -10.738  13.016  70.359  1.00  0.00     1.292 OA 
ENDBRANCH   8  10
ENDBRANCH   6   8
ENDBRANCH   3   6
TORSDOF 3
ENDMDL
MODEL      264
REMARK 921   NORMALIZED FREE ENERGY PREDICTED BY IDOCK:   20.79 KCAL/MOL
REMARK 922        TOTAL FREE ENERGY PREDICTED BY IDOCK:   23.96 KCAL/MOL
REMARK 923 INTER-LIGAND FREE ENERGY PREDICTED BY IDOCK:   24.28 KCAL/MOL
REMARK 924 INTRA-LIGAND FREE ENERGY PREDICTED BY IDOCK:   -0.33 KCAL/MOL
REMARK 927      BINDING AFFINITY PREDICTED BY RF-SCORE:    0.00 PKD
ROOT
HETATM    1  N   UNL     1     -12.287  19.708  69.343  1.00  0.00     7.470 N  
HETATM    2  H1  UNL     1     -11.678  19.851  70.149  1.00  0.00     0.000 HD 
HETATM    3  C   UNL     1     -11.943  20.080  68.086  1.00  0.00     3.123 C  
HETATM    4  H2  UNL     1     -13.195  19.266  69.489  1.00  0.00     0.000 HD 
HETATM    5  O   UNL     1     -12.674  19.910  67.118  1.00  0.00     3.063 OA 
ENDROOT
BRANCH   3   6
HETATM    6  N   UNL     1     -10.703  20.663  67.990  1.00  0.00     0.295 N  
HETATM    7  H   UNL     1     -10.343  20.922  67.071  1.00  0.00     0.000 HD 
BRANCH   6   8
HETATM    8  N   UNL     1      -9.944  20.902  69.098  1.00  0.00     0.791 NA 
HETATM    9  H   UNL     1     -10.257  21.584  69.789  1.00  0.00     0.000 HD 
BRANCH   8  10
HETATM   10  C   UNL     1      -8.825  20.267  69.277  1.00  0.00     0.717 C  
HETATM   11  C   UNL     1      -7.446  20.753  68.995  1.00  0.00     0.914 C  
HETATM   12  C   UNL     1      -6.373  20.001  69.264  1.00  0.00    -0.365 C  
HETATM   13  C   UNL     1      -6.471  18.664  69.844  1.00  0.00    -0.054 A  
HETATM   14  C   UNL     1      -5.309  17.931  70.121  1.00  0.00    -0.236 A  
HETATM   15  C   UNL     1      -5.393  16.650  70.671  1.00  0.00    -0.173 A  
HETATM   16  C   UNL     1      -6.637  16.085  70.950  1.00  0.00     1.334 A  
HETATM   17  C   UNL     1      -7.801  16.804  70.679  1.00  0.00     3.736 A  
HETATM   18  C   UNL     1      -7.713  18.090  70.129  1.00  0.00     2.002 A  
HETATM   19  C   UNL     1      -8.946  18.850  69.845  1.00  0.00     1.123 C  
HETATM   20  O   UNL     1     -10.047  18.362  70.064  1.00  0.00     0.545 OA 
ENDBRANCH   8  10
ENDBRANCH   6   8
ENDBRANCH   3   6
TORSDOF 3
ENDMDL
MODEL      265
REMARK 921   NORMALIZED FREE ENERGY PREDICTED BY IDOCK:   21.55 KCAL/MOL
REMARK 922        TOTAL FREE ENERGY PREDICTED BY IDOCK:   24.85 KCAL/MOL
REMARK 923 INTER-LIGAND FREE ENERGY PREDICTED BY IDOCK:   25.27 KCAL/MOL
REMARK 924 INTRA-LIGAND FREE ENERGY PREDICTED BY IDOCK:   -0.42 KCAL/MOL
REMARK 927      BINDING AFFINITY PREDICTED BY RF-SCORE:    0.00 PKD
ROOT
HETATM    1  N   UNL     1     -10.140  17.318  64.056  1.00  0.00     5.202 N  
HETATM    2  H1  UNL     1     -10.552  18.144  64.490  1.00  0.00     0.000 HD 
HETATM    3  C   UNL     1      -9.052  16.688  64.559  1.00  0.00     5.317 C  
HETATM    4  H2  UNL     1     -10.567  16.950  63.205  1.00  0.00     0.000 HD 
HETATM    5  O   UNL     1      -8.557  15.696  64.037  1.00  0.00     7.603 OA 
ENDROOT
BRANCH   3   6
HETATM    6  N   UNL     1      -8.551  17.254  65.705  1.00  0.00     0.076 N  
HETATM    7  H   UNL     1      -8.820  18.206  65.951  1.00  0.00     0.000 HD 
BRANCH   6   8
HETATM    8  N   UNL     1      -7.701  16.567  66.522  1.00  0.00    -0.282 NA 
HETATM    9  H   UNL     1      -6.706  16.793  66.524  1.00  0.00     0.000 HD 
BRANCH   8  10
HETATM   10  C   UNL     1      -8.151  15.627  67.297  1.00  0.00    -0.195 C  
HETATM   11  C   UNL     1      -7.775  14.186  67.294  1.00  0.00    -0.132 C  
HETATM   12  C   UNL     1      -8.294  13.328  68.180  1.00  0.00    -0.161 C  
HETATM   13  C   UNL     1      -9.257  13.733  69.200  1.00  0.00     0.394 A  
HETATM   14  C   UNL     1      -9.752  12.792  70.113  1.00  0.00     3.522 A  
HETATM   15  C   UNL     1     -10.677  13.169  71.090  1.00  0.00     4.515 A  
HETATM   16  C   UNL     1     -11.119  14.488  71.166  1.00  0.00     0.360 A  
HETATM   17  C   UNL     1     -10.634  15.435  70.264  1.00  0.00    -0.299 A  
HETATM   18  C   UNL     1      -9.706  15.054  69.286  1.00  0.00    -0.192 A  
HETATM   19  C   UNL     1      -9.192  16.057  68.334  1.00  0.00    -0.196 C  
HETATM   20  O   UNL     1      -9.585  17.216  68.372  1.00  0.00    -0.261 OA 
ENDBRANCH   8  10
ENDBRANCH   6   8
ENDBRANCH   3   6
TORSDOF 3
ENDMDL
