MODEL        1
REMARK 921   NORMALIZED FREE ENERGY PREDICTED BY IDOCK:   -7.71 KCAL/MOL
REMARK 922        TOTAL FREE ENERGY PREDICTED BY IDOCK:   -9.16 KCAL/MOL
REMARK 923 INTER-LIGAND FREE ENERGY PREDICTED BY IDOCK:   -8.62 KCAL/MOL
REMARK 924 INTRA-LIGAND FREE ENERGY PREDICTED BY IDOCK:   -0.54 KCAL/MOL
REMARK 927      BINDING AFFINITY PREDICTED BY RF-SCORE:    0.00 PKD
ROOT
HETATM    1  O   UNL     1      -8.958  17.451  67.513  1.00  0.00    -0.228 OA 
HETATM    2  C   UNL     1     -10.110  16.678  67.116  1.00  0.00    -0.276 C  
HETATM    3  H   UNL     1      -9.233  18.069  68.181  1.00  0.00     0.000 HD 
HETATM    4  C   UNL     1      -9.666  15.682  66.039  1.00  0.00    -0.378 C  
HETATM    5  C   UNL     1      -9.458  14.149  66.533  1.00  0.00    -0.303 C  
HETATM    6  C   UNL     1     -10.358  13.528  67.767  1.00  0.00    -0.241 C  
HETATM    7  O   UNL     1      -9.437  13.382  68.843  1.00  0.00    -0.403 OA 
HETATM    8  C   UNL     1     -11.492  12.307  67.883  1.00  0.00    -0.330 C  
HETATM    9  C   UNL     1     -11.954  11.913  69.288  1.00  0.00    -0.342 C  
HETATM   10  H   UNL     1      -9.955  13.024  69.554  1.00  0.00     0.000 HD 
HETATM   11  C   UNL     1     -12.275  13.230  69.970  1.00  0.00    -0.345 A  
HETATM   12  C   UNL     1     -12.612  13.265  71.316  1.00  0.00    -0.398 A  
HETATM   13  C   UNL     1     -12.575  14.486  72.017  1.00  0.00    -0.400 A  
HETATM   14  C   UNL     1     -12.231  15.679  71.345  1.00  0.00    -0.419 A  
HETATM   15  O   UNL     1     -11.901  16.771  72.099  1.00  0.00    -0.603 OA 
HETATM   16  C   UNL     1     -12.019  15.636  69.974  1.00  0.00    -0.368 A  
HETATM   17  H   UNL     1     -11.669  17.574  71.647  1.00  0.00     0.000 HD 
HETATM   18  C   UNL     1     -12.079  14.448  69.270  1.00  0.00    -0.336 A  
HETATM   19  C   UNL     1     -11.422  14.600  67.887  1.00  0.00    -0.350 C  
HETATM   20  C   UNL     1     -12.206  14.199  66.382  1.00  0.00    -0.473 C  
HETATM   21  C   UNL     1     -10.693  15.920  68.276  1.00  0.00    -0.291 C  
HETATM   22  O   UNL     1     -11.527  16.668  69.197  1.00  0.00    -0.165 OA 
HETATM   23  C   UNL     1     -11.903  12.560  65.711  1.00  0.00    -0.437 C  
HETATM   24  N   UNL     1     -11.632  11.481  66.714  1.00  0.00    -0.492 NA 
ENDROOT
BRANCH  24  25
HETATM   25  C   UNL     1     -10.517  10.537  66.714  1.00  0.00    -0.242 C  
BRANCH  25  26
HETATM   26  C   UNL     1      -9.501  10.669  65.584  1.00  0.00    -0.257 C  
HETATM   27  C   UNL     1      -8.027  10.804  66.120  1.00  0.00    -0.157 C  
HETATM   28  C   UNL     1      -7.575  10.198  64.780  1.00  0.00    -0.139 C  
HETATM   29  C   UNL     1      -8.935   9.450  64.774  1.00  0.00    -0.241 C  
ENDBRANCH  25  26
ENDBRANCH  24  25
TORSDOF 2
ENDMDL
MODEL        2
REMARK 921   NORMALIZED FREE ENERGY PREDICTED BY IDOCK:   -7.71 KCAL/MOL
REMARK 922        TOTAL FREE ENERGY PREDICTED BY IDOCK:   -9.15 KCAL/MOL
REMARK 923 INTER-LIGAND FREE ENERGY PREDICTED BY IDOCK:   -8.76 KCAL/MOL
REMARK 924 INTRA-LIGAND FREE ENERGY PREDICTED BY IDOCK:   -0.39 KCAL/MOL
REMARK 927      BINDING AFFINITY PREDICTED BY RF-SCORE:    0.00 PKD
ROOT
HETATM    1  O   UNL     1      -9.088  17.413  67.423  1.00  0.00    -0.232 OA 
HETATM    2  C   UNL     1     -10.215  16.595  67.045  1.00  0.00    -0.290 C  
HETATM    3  H   UNL     1      -9.381  18.033  68.081  1.00  0.00     0.000 HD 
HETATM    4  C   UNL     1      -9.744  15.596  65.983  1.00  0.00    -0.378 C  
HETATM    5  C   UNL     1      -9.480  14.080  66.501  1.00  0.00    -0.295 C  
HETATM    6  C   UNL     1     -10.352  13.449  67.751  1.00  0.00    -0.241 C  
HETATM    7  O   UNL     1      -9.421  13.353  68.824  1.00  0.00    -0.394 OA 
HETATM    8  C   UNL     1     -11.443  12.193  67.895  1.00  0.00    -0.328 C  
HETATM    9  C   UNL     1     -11.884  11.808  69.308  1.00  0.00    -0.389 C  
HETATM   10  H   UNL     1      -9.923  12.990  69.544  1.00  0.00     0.000 HD 
HETATM   11  C   UNL     1     -12.245  13.124  69.970  1.00  0.00    -0.323 A  
HETATM   12  C   UNL     1     -12.576  13.171  71.318  1.00  0.00    -0.382 A  
HETATM   13  C   UNL     1     -12.578  14.404  71.998  1.00  0.00    -0.392 A  
HETATM   14  C   UNL     1     -12.278  15.597  71.303  1.00  0.00    -0.415 A  
HETATM   15  O   UNL     1     -11.981  16.712  72.037  1.00  0.00    -0.635 OA 
HETATM   16  C   UNL     1     -12.072  15.537  69.933  1.00  0.00    -0.355 A  
HETATM   17  H   UNL     1     -11.779  17.515  71.571  1.00  0.00     0.000 HD 
HETATM   18  C   UNL     1     -12.095  14.336  69.248  1.00  0.00    -0.351 A  
HETATM   19  C   UNL     1     -11.451  14.486  67.860  1.00  0.00    -0.348 C  
HETATM   20  C   UNL     1     -12.229  14.033  66.366  1.00  0.00    -0.492 C  
HETATM   21  C   UNL     1     -10.765  15.837  68.222  1.00  0.00    -0.281 C  
HETATM   22  O   UNL     1     -11.620  16.572  69.135  1.00  0.00    -0.189 OA 
HETATM   23  C   UNL     1     -11.874  12.395  65.721  1.00  0.00    -0.406 C  
HETATM   24  N   UNL     1     -11.561  11.342  66.740  1.00  0.00    -0.444 NA 
ENDROOT
BRANCH  24  25
HETATM   25  C   UNL     1     -10.415  10.437  66.750  1.00  0.00    -0.225 C  
BRANCH  25  26
HETATM   26  C   UNL     1     -10.660   9.018  67.251  1.00  0.00    -0.301 C  
HETATM   27  C   UNL     1      -9.593   7.999  66.704  1.00  0.00    -0.297 C  
HETATM   28  C   UNL     1      -9.877   7.157  67.960  1.00  0.00    -0.158 C  
HETATM   29  C   UNL     1     -10.210   8.501  68.662  1.00  0.00    -0.217 C  
ENDBRANCH  25  26
ENDBRANCH  24  25
TORSDOF 2
ENDMDL
MODEL        3
REMARK 921   NORMALIZED FREE ENERGY PREDICTED BY IDOCK:   -7.67 KCAL/MOL
REMARK 922        TOTAL FREE ENERGY PREDICTED BY IDOCK:   -9.11 KCAL/MOL
REMARK 923 INTER-LIGAND FREE ENERGY PREDICTED BY IDOCK:   -8.84 KCAL/MOL
REMARK 924 INTRA-LIGAND FREE ENERGY PREDICTED BY IDOCK:   -0.27 KCAL/MOL
REMARK 927      BINDING AFFINITY PREDICTED BY RF-SCORE:    0.00 PKD
ROOT
HETATM    1  O   UNL     1     -12.753  11.486  62.927  1.00  0.00    -0.947 OA 
HETATM    2  C   UNL     1     -11.726  12.334  63.481  1.00  0.00    -0.499 C  
HETATM    3  H   UNL     1     -12.339  10.695  62.601  1.00  0.00     0.000 HD 
HETATM    4  C   UNL     1     -12.394  13.610  64.006  1.00  0.00    -0.382 C  
HETATM    5  C   UNL     1     -12.602  13.692  65.614  1.00  0.00    -0.531 C  
HETATM    6  C   UNL     1     -11.547  12.952  66.643  1.00  0.00    -0.372 C  
HETATM    7  O   UNL     1     -12.286  11.865  67.192  1.00  0.00    -0.501 OA 
HETATM    8  C   UNL     1     -10.478  13.494  67.806  1.00  0.00    -0.240 C  
HETATM    9  C   UNL     1      -9.814  12.439  68.692  1.00  0.00    -0.086 C  
HETATM   10  H   UNL     1     -11.678  11.438  67.785  1.00  0.00     0.000 HD 
HETATM   11  C   UNL     1      -9.314  11.383  67.724  1.00  0.00    -0.162 A  
HETATM   12  C   UNL     1      -8.759  10.200  68.193  1.00  0.00    -0.122 A  
HETATM   13  C   UNL     1      -8.614   9.101  67.324  1.00  0.00    -0.118 A  
HETATM   14  C   UNL     1      -8.998   9.212  65.970  1.00  0.00    -0.181 A  
HETATM   15  O   UNL     1      -9.139   8.061  65.243  1.00  0.00    -0.390 OA 
HETATM   16  C   UNL     1      -9.434  10.442  65.498  1.00  0.00    -0.215 A  
HETATM   17  H   UNL     1      -9.399   8.136  64.332  1.00  0.00     0.000 HD 
HETATM   18  C   UNL     1      -9.555  11.536  66.335  1.00  0.00    -0.230 A  
HETATM   19  C   UNL     1     -10.421  12.628  65.683  1.00  0.00    -0.298 C  
HETATM   20  C   UNL     1      -9.918  14.285  65.482  1.00  0.00    -0.341 C  
HETATM   21  C   UNL     1     -11.003  11.657  64.613  1.00  0.00    -0.301 C  
HETATM   22  O   UNL     1      -9.989  10.683  64.256  1.00  0.00    -0.308 OA 
HETATM   23  C   UNL     1     -10.416  15.453  66.752  1.00  0.00    -0.299 C  
HETATM   24  N   UNL     1     -10.577  14.892  68.132  1.00  0.00    -0.241 NA 
ENDROOT
BRANCH  24  25
HETATM   25  C   UNL     1     -11.727  15.049  69.019  1.00  0.00    -0.325 C  
BRANCH  25  26
HETATM   26  C   UNL     1     -11.488  14.808  70.507  1.00  0.00    -0.300 C  
HETATM   27  C   UNL     1     -11.794  16.086  71.374  1.00  0.00    -0.531 C  
HETATM   28  C   UNL     1     -12.083  15.122  72.538  1.00  0.00    -0.483 C  
HETATM   29  C   UNL     1     -12.523  14.103  71.452  1.00  0.00    -0.438 C  
ENDBRANCH  25  26
ENDBRANCH  24  25
TORSDOF 2
ENDMDL
MODEL        4
REMARK 921   NORMALIZED FREE ENERGY PREDICTED BY IDOCK:   -7.63 KCAL/MOL
REMARK 922        TOTAL FREE ENERGY PREDICTED BY IDOCK:   -9.07 KCAL/MOL
REMARK 923 INTER-LIGAND FREE ENERGY PREDICTED BY IDOCK:   -8.72 KCAL/MOL
REMARK 924 INTRA-LIGAND FREE ENERGY PREDICTED BY IDOCK:   -0.35 KCAL/MOL
REMARK 927      BINDING AFFINITY PREDICTED BY RF-SCORE:    0.00 PKD
ROOT
HETATM    1  O   UNL     1      -7.401   9.677  66.959  1.00  0.00    -0.087 OA 
HETATM    2  C   UNL     1      -8.744   9.840  67.463  1.00  0.00    -0.125 C  
HETATM    3  H   UNL     1      -7.455   9.278  66.099  1.00  0.00     0.000 HD 
HETATM    4  C   UNL     1      -8.657  10.483  68.852  1.00  0.00    -0.153 C  
HETATM    5  C   UNL     1      -8.995  12.069  68.921  1.00  0.00     0.200 C  
HETATM    6  C   UNL     1     -10.070  12.752  67.873  1.00  0.00    -0.231 C  
HETATM    7  O   UNL     1      -9.269  13.558  67.015  1.00  0.00    -0.229 OA 
HETATM    8  C   UNL     1     -11.556  13.494  68.047  1.00  0.00    -0.337 C  
HETATM    9  C   UNL     1     -12.143  14.180  66.812  1.00  0.00    -0.474 C  
HETATM   10  H   UNL     1      -9.888  13.952  66.411  1.00  0.00     0.000 HD 
HETATM   11  C   UNL     1     -11.999  13.159  65.699  1.00  0.00    -0.462 A  
HETATM   12  C   UNL     1     -12.321  13.489  64.390  1.00  0.00    -0.391 A  
HETATM   13  C   UNL     1     -11.875  12.674  63.331  1.00  0.00    -0.594 A  
HETATM   14  C   UNL     1     -11.132  11.504  63.602  1.00  0.00    -0.385 A  
HETATM   15  O   UNL     1     -10.456  10.916  62.568  1.00  0.00    -0.697 OA 
HETATM   16  C   UNL     1     -10.931  11.131  64.923  1.00  0.00    -0.121 A  
HETATM   17  H   UNL     1      -9.956  10.129  62.749  1.00  0.00     0.000 HD 
HETATM   18  C   UNL     1     -11.388  11.908  65.972  1.00  0.00    -0.375 A  
HETATM   19  C   UNL     1     -10.701  11.506  67.288  1.00  0.00    -0.286 C  
HETATM   20  C   UNL     1     -11.555  11.075  68.746  1.00  0.00    -0.386 C  
HETATM   21  C   UNL     1      -9.566  10.721  66.564  1.00  0.00    -0.183 C  
HETATM   22  O   UNL     1     -10.104  10.114  65.361  1.00  0.00    -0.303 OA 
HETATM   23  C   UNL     1     -11.827  12.377  69.952  1.00  0.00    -0.305 C  
HETATM   24  N   UNL     1     -11.957  13.765  69.401  1.00  0.00    -0.332 NA 
ENDROOT
BRANCH  24  25
HETATM   25  C   UNL     1     -11.236  14.958  69.837  1.00  0.00    -0.275 C  
BRANCH  25  26
HETATM   26  C   UNL     1     -11.821  15.726  71.017  1.00  0.00    -0.460 C  
HETATM   27  C   UNL     1     -13.347  15.408  71.239  1.00  0.00    -0.598 C  
HETATM   28  C   UNL     1     -13.122  15.775  72.716  1.00  0.00    -0.596 C  
HETATM   29  C   UNL     1     -11.665  15.278  72.513  1.00  0.00    -0.535 C  
ENDBRANCH  25  26
ENDBRANCH  24  25
TORSDOF 2
ENDMDL
MODEL        5
REMARK 921   NORMALIZED FREE ENERGY PREDICTED BY IDOCK:   -7.56 KCAL/MOL
REMARK 922        TOTAL FREE ENERGY PREDICTED BY IDOCK:   -8.99 KCAL/MOL
REMARK 923 INTER-LIGAND FREE ENERGY PREDICTED BY IDOCK:   -8.60 KCAL/MOL
REMARK 924 INTRA-LIGAND FREE ENERGY PREDICTED BY IDOCK:   -0.39 KCAL/MOL
REMARK 927      BINDING AFFINITY PREDICTED BY RF-SCORE:    0.00 PKD
ROOT
HETATM    1  O   UNL     1     -11.216  10.942  64.511  1.00  0.00    -0.100 OA 
HETATM    2  C   UNL     1     -10.287  11.775  65.235  1.00  0.00    -0.274 C  
HETATM    3  H   UNL     1     -11.367  10.154  65.021  1.00  0.00     0.000 HD 
HETATM    4  C   UNL     1     -10.044  13.044  64.411  1.00  0.00    -0.245 C  
HETATM    5  C   UNL     1     -10.825  14.376  64.913  1.00  0.00    -0.430 C  
HETATM    6  C   UNL     1     -11.169  14.605  66.510  1.00  0.00    -0.346 C  
HETATM    7  O   UNL     1     -12.582  14.455  66.596  1.00  0.00    -0.534 OA 
HETATM    8  C   UNL     1     -10.693  15.721  67.657  1.00  0.00    -0.310 C  
HETATM    9  C   UNL     1     -11.416  15.691  69.005  1.00  0.00    -0.369 C  
HETATM   10  H   UNL     1     -12.781  14.586  67.515  1.00  0.00     0.000 HD 
HETATM   11  C   UNL     1     -11.411  14.229  69.411  1.00  0.00    -0.337 A  
HETATM   12  C   UNL     1     -12.099  13.806  70.540  1.00  0.00    -0.416 A  
HETATM   13  C   UNL     1     -12.374  12.437  70.722  1.00  0.00    -0.377 A  
HETATM   14  C   UNL     1     -11.921  11.491  69.777  1.00  0.00    -0.346 A  
HETATM   15  O   UNL     1     -12.462  10.235  69.812  1.00  0.00    -0.539 OA 
HETATM   16  C   UNL     1     -11.131  11.926  68.723  1.00  0.00    -0.245 A  
HETATM   17  H   UNL     1     -12.158   9.598  69.176  1.00  0.00     0.000 HD 
HETATM   18  C   UNL     1     -10.830  13.264  68.548  1.00  0.00    -0.286 A  
HETATM   19  C   UNL     1     -10.304  13.524  67.126  1.00  0.00    -0.250 C  
HETATM   20  C   UNL     1      -8.795  14.322  66.771  1.00  0.00    -0.207 C  
HETATM   21  C   UNL     1     -10.828  12.161  66.584  1.00  0.00    -0.268 C  
HETATM   22  O   UNL     1     -10.738  11.167  67.637  1.00  0.00    -0.201 OA 
HETATM   23  C   UNL     1      -8.857  16.089  66.454  1.00  0.00    -0.328 C  
HETATM   24  N   UNL     1      -9.946  16.843  67.154  1.00  0.00    -0.268 NA 
ENDROOT
BRANCH  24  25
HETATM   25  C   UNL     1     -10.905  17.768  66.554  1.00  0.00     0.042 C  
BRANCH  25  26
HETATM   26  C   UNL     1     -10.551  19.251  66.594  1.00  0.00    -0.530 C  
HETATM   27  C   UNL     1     -10.205  19.744  68.049  1.00  0.00    -0.581 C  
HETATM   28  C   UNL     1      -9.345  20.833  67.384  1.00  0.00    -0.409 C  
HETATM   29  C   UNL     1      -9.135  19.819  66.227  1.00  0.00    -0.444 C  
ENDBRANCH  25  26
ENDBRANCH  24  25
TORSDOF 2
ENDMDL
MODEL        6
REMARK 921   NORMALIZED FREE ENERGY PREDICTED BY IDOCK:   -7.46 KCAL/MOL
REMARK 922        TOTAL FREE ENERGY PREDICTED BY IDOCK:   -8.87 KCAL/MOL
REMARK 923 INTER-LIGAND FREE ENERGY PREDICTED BY IDOCK:   -8.55 KCAL/MOL
REMARK 924 INTRA-LIGAND FREE ENERGY PREDICTED BY IDOCK:   -0.32 KCAL/MOL
REMARK 927      BINDING AFFINITY PREDICTED BY RF-SCORE:    0.00 PKD
ROOT
HETATM    1  O   UNL     1     -11.649   9.969  67.517  1.00  0.00    -0.461 OA 
HETATM    2  C   UNL     1     -10.726  10.978  67.978  1.00  0.00    -0.217 C  
HETATM    3  H   UNL     1     -12.024   9.541  68.278  1.00  0.00     0.000 HD 
HETATM    4  C   UNL     1     -10.121  11.667  66.749  1.00  0.00    -0.242 C  
HETATM    5  C   UNL     1     -10.728  13.128  66.384  1.00  0.00    -0.293 C  
HETATM    6  C   UNL     1     -11.299  14.127  67.566  1.00  0.00    -0.322 C  
HETATM    7  O   UNL     1     -12.710  14.141  67.371  1.00  0.00    -0.402 OA 
HETATM    8  C   UNL     1     -10.839  15.621  68.151  1.00  0.00    -0.301 C  
HETATM    9  C   UNL     1     -11.780  16.302  69.148  1.00  0.00    -0.151 C  
HETATM   10  H   UNL     1     -13.038  14.716  68.052  1.00  0.00     0.000 HD 
HETATM   11  C   UNL     1     -12.106  15.225  70.165  1.00  0.00    -0.394 A  
HETATM   12  C   UNL     1     -13.044  15.455  71.162  1.00  0.00    -0.565 A  
HETATM   13  C   UNL     1     -13.587  14.370  71.879  1.00  0.00    -0.491 A  
HETATM   14  C   UNL     1     -13.152  13.054  71.610  1.00  0.00    -0.347 A  
HETATM   15  O   UNL     1     -13.905  12.016  72.085  1.00  0.00    -0.279 OA 
HETATM   16  C   UNL     1     -12.125  12.864  70.696  1.00  0.00    -0.235 A  
HETATM   17  H   UNL     1     -13.613  11.130  71.903  1.00  0.00     0.000 HD 
HETATM   18  C   UNL     1     -11.565  13.923  70.006  1.00  0.00    -0.282 A  
HETATM   19  C   UNL     1     -10.762  13.421  68.794  1.00  0.00    -0.257 C  
HETATM   20  C   UNL     1      -9.096  13.835  68.485  1.00  0.00    -0.133 C  
HETATM   21  C   UNL     1     -11.417  12.009  68.828  1.00  0.00    -0.300 C  
HETATM   22  O   UNL     1     -11.691  11.647  70.206  1.00  0.00    -0.325 OA 
HETATM   23  C   UNL     1      -8.786  15.225  67.390  1.00  0.00    -0.179 C  
HETATM   24  N   UNL     1      -9.828  16.301  67.386  1.00  0.00    -0.239 NA 
ENDROOT
BRANCH  24  25
HETATM   25  C   UNL     1     -10.488  16.886  66.221  1.00  0.00    -0.262 C  
BRANCH  25  26
HETATM   26  C   UNL     1     -10.426  18.403  66.082  1.00  0.00    -0.422 C  
HETATM   27  C   UNL     1     -10.769  19.140  67.430  1.00  0.00    -0.578 C  
HETATM   28  C   UNL     1      -9.907  20.306  66.913  1.00  0.00    -0.597 C  
HETATM   29  C   UNL     1      -9.094  19.231  66.143  1.00  0.00    -0.277 C  
ENDBRANCH  25  26
ENDBRANCH  24  25
TORSDOF 2
ENDMDL
MODEL        7
REMARK 921   NORMALIZED FREE ENERGY PREDICTED BY IDOCK:   -7.31 KCAL/MOL
REMARK 922        TOTAL FREE ENERGY PREDICTED BY IDOCK:   -8.71 KCAL/MOL
REMARK 923 INTER-LIGAND FREE ENERGY PREDICTED BY IDOCK:   -8.34 KCAL/MOL
REMARK 924 INTRA-LIGAND FREE ENERGY PREDICTED BY IDOCK:   -0.36 KCAL/MOL
REMARK 927      BINDING AFFINITY PREDICTED BY RF-SCORE:    0.00 PKD
ROOT
HETATM    1  O   UNL     1     -12.186  14.703  63.492  1.00  0.00    -0.978 OA 
HETATM    2  C   UNL     1     -12.241  14.457  64.913  1.00  0.00    -0.433 C  
HETATM    3  H   UNL     1     -11.932  15.609  63.359  1.00  0.00     0.000 HD 
HETATM    4  C   UNL     1     -12.652  12.996  65.128  1.00  0.00    -0.530 C  
HETATM    5  C   UNL     1     -11.455  11.973  65.524  1.00  0.00    -0.368 C  
HETATM    6  C   UNL     1     -10.149  12.493  66.387  1.00  0.00    -0.243 C  
HETATM    7  O   UNL     1      -9.072  12.467  65.456  1.00  0.00    -0.424 OA 
HETATM    8  C   UNL     1      -9.537  12.141  67.900  1.00  0.00    -0.198 C  
HETATM    9  C   UNL     1      -8.161  12.712  68.249  1.00  0.00    -0.164 C  
HETATM   10  H   UNL     1      -8.319  12.766  65.953  1.00  0.00     0.000 HD 
HETATM   11  C   UNL     1      -8.240  14.174  67.851  1.00  0.00    -0.155 A  
HETATM   12  C   UNL     1      -7.116  14.986  67.913  1.00  0.00    -0.165 A  
HETATM   13  C   UNL     1      -7.104  16.221  67.237  1.00  0.00    -0.226 A  
HETATM   14  C   UNL     1      -8.246  16.652  66.527  1.00  0.00    -0.295 A  
HETATM   15  O   UNL     1      -8.102  17.681  65.638  1.00  0.00    -0.518 OA 
HETATM   16  C   UNL     1      -9.398  15.880  66.584  1.00  0.00    -0.249 A  
HETATM   17  H   UNL     1      -8.870  17.971  65.160  1.00  0.00     0.000 HD 
HETATM   18  C   UNL     1      -9.431  14.678  67.267  1.00  0.00    -0.221 A  
HETATM   19  C   UNL     1     -10.653  13.845  66.847  1.00  0.00    -0.280 C  
HETATM   20  C   UNL     1     -11.824  13.193  67.963  1.00  0.00    -0.398 C  
HETATM   21  C   UNL     1     -10.907  14.693  65.566  1.00  0.00    -0.345 C  
HETATM   22  O   UNL     1     -10.541  16.072  65.830  1.00  0.00    -0.327 OA 
HETATM   23  C   UNL     1     -11.579  11.501  68.514  1.00  0.00    -0.313 C  
HETATM   24  N   UNL     1     -10.157  11.032  68.575  1.00  0.00    -0.183 NA 
ENDROOT
BRANCH  24  25
HETATM   25  C   UNL     1      -9.606   9.809  67.994  1.00  0.00    -0.142 C  
BRANCH  25  26
HETATM   26  C   UNL     1     -10.568   8.640  67.809  1.00  0.00    -0.249 C  
HETATM   27  C   UNL     1     -10.136   7.695  66.626  1.00  0.00    -0.278 C  
HETATM   28  C   UNL     1     -10.880   6.569  67.366  1.00  0.00    -0.449 C  
HETATM   29  C   UNL     1     -10.524   7.330  68.671  1.00  0.00    -0.214 C  
ENDBRANCH  25  26
ENDBRANCH  24  25
TORSDOF 2
ENDMDL
MODEL        8
REMARK 921   NORMALIZED FREE ENERGY PREDICTED BY IDOCK:   -7.24 KCAL/MOL
REMARK 922        TOTAL FREE ENERGY PREDICTED BY IDOCK:   -8.63 KCAL/MOL
REMARK 923 INTER-LIGAND FREE ENERGY PREDICTED BY IDOCK:   -8.10 KCAL/MOL
REMARK 924 INTRA-LIGAND FREE ENERGY PREDICTED BY IDOCK:   -0.53 KCAL/MOL
REMARK 927      BINDING AFFINITY PREDICTED BY RF-SCORE:    0.00 PKD
ROOT
HETATM    1  O   UNL     1     -12.518  15.609  68.895  1.00  0.00    -0.572 OA 
HETATM    2  C   UNL     1     -11.245  15.006  68.586  1.00  0.00    -0.278 C  
HETATM    3  H   UNL     1     -12.767  16.165  68.166  1.00  0.00     0.000 HD 
HETATM    4  C   UNL     1     -10.843  14.111  69.764  1.00  0.00     0.010 C  
HETATM    5  C   UNL     1     -11.063  12.517  69.551  1.00  0.00    -0.073 C  
HETATM    6  C   UNL     1     -10.943  11.838  68.052  1.00  0.00    -0.225 C  
HETATM    7  O   UNL     1     -12.279  11.473  67.717  1.00  0.00    -0.560 OA 
HETATM    8  C   UNL     1      -9.910  10.727  67.356  1.00  0.00    -0.177 C  
HETATM    9  C   UNL     1     -10.275  10.210  65.962  1.00  0.00    -0.288 C  
HETATM   10  H   UNL     1     -12.210  11.082  66.855  1.00  0.00     0.000 HD 
HETATM   11  C   UNL     1     -10.600  11.458  65.162  1.00  0.00    -0.352 A  
HETATM   12  C   UNL     1     -11.097  11.359  63.870  1.00  0.00    -0.410 A  
HETATM   13  C   UNL     1     -11.708  12.476  63.267  1.00  0.00    -0.478 A  
HETATM   14  C   UNL     1     -11.783  13.704  63.960  1.00  0.00    -0.364 A  
HETATM   15  O   UNL     1     -12.642  14.659  63.489  1.00  0.00    -1.019 OA 
HETATM   16  C   UNL     1     -11.169  13.809  65.200  1.00  0.00    -0.316 A  
HETATM   17  H   UNL     1     -12.693  15.485  63.955  1.00  0.00     0.000 HD 
HETATM   18  C   UNL     1     -10.542  12.728  65.791  1.00  0.00    -0.295 A  
HETATM   19  C   UNL     1     -10.311  12.984  67.290  1.00  0.00    -0.238 C  
HETATM   20  C   UNL     1      -8.762  12.848  68.079  1.00  0.00    -0.191 C  
HETATM   21  C   UNL     1     -11.320  14.170  67.338  1.00  0.00    -0.327 C  
HETATM   22  O   UNL     1     -11.279  14.877  66.071  1.00  0.00    -0.337 OA 
HETATM   23  C   UNL     1      -8.380  11.283  68.873  1.00  0.00    -0.071 C  
HETATM   24  N   UNL     1      -9.008  10.068  68.262  1.00  0.00    -0.119 NA 
ENDROOT
BRANCH  24  25
HETATM   25  C   UNL     1      -9.770   9.028  68.950  1.00  0.00    -0.163 C  
BRANCH  25  26
HETATM   26  C   UNL     1      -9.936   9.179  70.459  1.00  0.00    -0.288 C  
HETATM   27  C   UNL     1     -11.421   8.934  70.923  1.00  0.00    -0.339 C  
HETATM   28  C   UNL     1     -10.837   8.518  72.284  1.00  0.00    -0.418 C  
HETATM   29  C   UNL     1      -9.586   8.052  71.492  1.00  0.00    -0.209 C  
ENDBRANCH  25  26
ENDBRANCH  24  25
TORSDOF 2
ENDMDL
MODEL        9
REMARK 921   NORMALIZED FREE ENERGY PREDICTED BY IDOCK:   -7.13 KCAL/MOL
REMARK 922        TOTAL FREE ENERGY PREDICTED BY IDOCK:   -8.50 KCAL/MOL
REMARK 923 INTER-LIGAND FREE ENERGY PREDICTED BY IDOCK:   -8.24 KCAL/MOL
REMARK 924 INTRA-LIGAND FREE ENERGY PREDICTED BY IDOCK:   -0.26 KCAL/MOL
REMARK 927      BINDING AFFINITY PREDICTED BY RF-SCORE:    0.00 PKD
ROOT
HETATM    1  O   UNL     1     -10.432  17.328  69.265  1.00  0.00    -0.338 OA 
HETATM    2  C   UNL     1     -11.255  16.465  68.451  1.00  0.00    -0.324 C  
HETATM    3  H   UNL     1     -10.908  17.523  70.064  1.00  0.00     0.000 HD 
HETATM    4  C   UNL     1     -10.487  16.152  67.162  1.00  0.00    -0.305 C  
HETATM    5  C   UNL     1      -9.790  14.687  67.090  1.00  0.00    -0.237 C  
HETATM    6  C   UNL     1     -10.454  13.395  67.870  1.00  0.00    -0.240 C  
HETATM    7  O   UNL     1      -9.555  13.123  68.940  1.00  0.00    -0.405 OA 
HETATM    8  C   UNL     1     -11.119  11.947  67.369  1.00  0.00    -0.279 C  
HETATM    9  C   UNL     1     -11.449  10.917  68.451  1.00  0.00    -0.374 C  
HETATM   10  H   UNL     1      -9.937  12.378  69.389  1.00  0.00     0.000 HD 
HETATM   11  C   UNL     1     -12.200  11.701  69.512  1.00  0.00    -0.257 A  
HETATM   12  C   UNL     1     -12.552  11.104  70.714  1.00  0.00    -0.445 A  
HETATM   13  C   UNL     1     -12.935  11.903  71.808  1.00  0.00    -0.455 A  
HETATM   14  C   UNL     1     -12.995  13.308  71.674  1.00  0.00    -0.349 A  
HETATM   15  O   UNL     1     -13.060  14.063  72.813  1.00  0.00    -0.478 OA 
HETATM   16  C   UNL     1     -12.758  13.870  70.427  1.00  0.00    -0.220 A  
HETATM   17  H   UNL     1     -13.099  15.008  72.722  1.00  0.00     0.000 HD 
HETATM   18  C   UNL     1     -12.408  13.093  69.338  1.00  0.00    -0.053 A  
HETATM   19  C   UNL     1     -11.815  13.962  68.216  1.00  0.00    -0.412 C  
HETATM   20  C   UNL     1     -12.395  13.967  66.572  1.00  0.00    -0.447 C  
HETATM   21  C   UNL     1     -11.572  15.178  69.159  1.00  0.00    -0.323 C  
HETATM   22  O   UNL     1     -12.623  15.219  70.158  1.00  0.00    -0.347 OA 
HETATM   23  C   UNL     1     -11.554  12.894  65.402  1.00  0.00    -0.350 C  
HETATM   24  N   UNL     1     -10.958  11.643  65.972  1.00  0.00    -0.295 NA 
ENDROOT
BRANCH  24  25
HETATM   25  C   UNL     1      -9.593  11.155  65.791  1.00  0.00    -0.221 C  
BRANCH  25  26
HETATM   26  C   UNL     1      -9.380  10.075  64.734  1.00  0.00    -0.330 C  
HETATM   27  C   UNL     1      -9.655  10.604  63.277  1.00  0.00    -0.382 C  
HETATM   28  C   UNL     1      -8.680   9.517  62.791  1.00  0.00    -0.232 C  
HETATM   29  C   UNL     1      -7.974   9.679  64.163  1.00  0.00    -0.143 C  
ENDBRANCH  25  26
ENDBRANCH  24  25
TORSDOF 2
ENDMDL
MODEL       10
REMARK 921   NORMALIZED FREE ENERGY PREDICTED BY IDOCK:   -7.08 KCAL/MOL
REMARK 922        TOTAL FREE ENERGY PREDICTED BY IDOCK:   -8.45 KCAL/MOL
REMARK 923 INTER-LIGAND FREE ENERGY PREDICTED BY IDOCK:   -8.11 KCAL/MOL
REMARK 924 INTRA-LIGAND FREE ENERGY PREDICTED BY IDOCK:   -0.35 KCAL/MOL
REMARK 927      BINDING AFFINITY PREDICTED BY RF-SCORE:    0.00 PKD
ROOT
HETATM    1  O   UNL     1      -9.991  17.430  68.588  1.00  0.00    -0.303 OA 
HETATM    2  C   UNL     1     -10.893  16.539  67.899  1.00  0.00    -0.326 C  
HETATM    3  H   UNL     1     -10.430  17.751  69.367  1.00  0.00     0.000 HD 
HETATM    4  C   UNL     1     -10.184  16.021  66.642  1.00  0.00    -0.295 C  
HETATM    5  C   UNL     1      -9.591  14.513  66.732  1.00  0.00    -0.274 C  
HETATM    6  C   UNL     1     -10.320  13.371  67.673  1.00  0.00    -0.238 C  
HETATM    7  O   UNL     1      -9.413  13.164  68.751  1.00  0.00    -0.398 OA 
HETATM    8  C   UNL     1     -11.097  11.927  67.361  1.00  0.00    -0.279 C  
HETATM    9  C   UNL     1     -11.467  11.057  68.565  1.00  0.00    -0.379 C  
HETATM   10  H   UNL     1      -9.833  12.507  69.293  1.00  0.00     0.000 HD 
HETATM   11  C   UNL     1     -12.133  12.011  69.538  1.00  0.00    -0.273 A  
HETATM   12  C   UNL     1     -12.493  11.587  70.810  1.00  0.00    -0.444 A  
HETATM   13  C   UNL     1     -12.790  12.535  71.808  1.00  0.00    -0.347 A  
HETATM   14  C   UNL     1     -12.757  13.915  71.508  1.00  0.00    -0.357 A  
HETATM   15  O   UNL     1     -12.738  14.801  72.549  1.00  0.00    -0.335 OA 
HETATM   16  C   UNL     1     -12.515  14.307  70.199  1.00  0.00    -0.335 A  
HETATM   17  H   UNL     1     -12.716  15.729  72.348  1.00  0.00     0.000 HD 
HETATM   18  C   UNL     1     -12.250  13.385  69.204  1.00  0.00    -0.207 A  
HETATM   19  C   UNL     1     -11.629  14.071  67.975  1.00  0.00    -0.372 C  
HETATM   20  C   UNL     1     -12.253  13.924  66.353  1.00  0.00    -0.487 C  
HETATM   21  C   UNL     1     -11.278  15.369  68.762  1.00  0.00    -0.301 C  
HETATM   22  O   UNL     1     -12.296  15.602  69.768  1.00  0.00    -0.333 OA 
HETATM   23  C   UNL     1     -11.520  12.664  65.304  1.00  0.00    -0.331 C  
HETATM   24  N   UNL     1     -10.995  11.449  66.008  1.00  0.00    -0.264 NA 
ENDROOT
BRANCH  24  25
HETATM   25  C   UNL     1      -9.672  10.847  65.860  1.00  0.00    -0.224 C  
BRANCH  25  26
HETATM   26  C   UNL     1      -9.613   9.326  65.764  1.00  0.00    -0.341 C  
HETATM   27  C   UNL     1      -8.307   8.737  66.418  1.00  0.00    -0.117 C  
HETATM   28  C   UNL     1      -9.110   7.446  66.654  1.00  0.00    -0.184 C  
HETATM   29  C   UNL     1     -10.361   8.360  66.748  1.00  0.00    -0.357 C  
ENDBRANCH  25  26
ENDBRANCH  24  25
TORSDOF 2
ENDMDL
MODEL       11
REMARK 921   NORMALIZED FREE ENERGY PREDICTED BY IDOCK:   -7.06 KCAL/MOL
REMARK 922        TOTAL FREE ENERGY PREDICTED BY IDOCK:   -8.42 KCAL/MOL
REMARK 923 INTER-LIGAND FREE ENERGY PREDICTED BY IDOCK:   -8.15 KCAL/MOL
REMARK 924 INTRA-LIGAND FREE ENERGY PREDICTED BY IDOCK:   -0.28 KCAL/MOL
REMARK 927      BINDING AFFINITY PREDICTED BY RF-SCORE:    0.00 PKD
ROOT
HETATM    1  O   UNL     1      -9.464  21.271  67.099  1.00  0.00    -0.642 OA 
HETATM    2  C   UNL     1      -9.938  20.067  67.739  1.00  0.00    -0.423 C  
HETATM    3  H   UNL     1      -8.865  21.706  67.695  1.00  0.00     0.000 HD 
HETATM    4  C   UNL     1     -10.904  19.366  66.778  1.00  0.00    -0.490 C  
HETATM    5  C   UNL     1     -10.307  18.086  65.978  1.00  0.00    -0.333 C  
HETATM    6  C   UNL     1      -9.142  17.134  66.656  1.00  0.00    -0.258 C  
HETATM    7  O   UNL     1      -7.968  17.414  65.900  1.00  0.00    -0.525 OA 
HETATM    8  C   UNL     1      -9.079  15.538  67.143  1.00  0.00    -0.217 C  
HETATM    9  C   UNL     1      -7.712  14.985  67.551  1.00  0.00    -0.208 C  
HETATM   10  H   UNL     1      -7.297  16.865  66.289  1.00  0.00     0.000 HD 
HETATM   11  C   UNL     1      -7.141  16.026  68.495  1.00  0.00    -0.132 A  
HETATM   12  C   UNL     1      -5.843  15.912  68.972  1.00  0.00    -0.111 A  
HETATM   13  C   UNL     1      -5.211  17.025  69.559  1.00  0.00    -0.153 A  
HETATM   14  C   UNL     1      -5.908  18.246  69.695  1.00  0.00    -0.247 A  
HETATM   15  O   UNL     1      -5.185  19.374  69.971  1.00  0.00    -0.193 OA 
HETATM   16  C   UNL     1      -7.244  18.297  69.324  1.00  0.00    -0.075 A  
HETATM   17  H   UNL     1      -5.653  20.195  70.062  1.00  0.00     0.000 HD 
HETATM   18  C   UNL     1      -7.884  17.202  68.772  1.00  0.00    -0.258 A  
HETATM   19  C   UNL     1      -9.195  17.625  68.088  1.00  0.00    -0.282 C  
HETATM   20  C   UNL     1     -10.750  16.914  68.430  1.00  0.00    -0.368 C  
HETATM   21  C   UNL     1      -8.805  19.133  68.064  1.00  0.00    -0.313 C  
HETATM   22  O   UNL     1      -8.021  19.438  69.245  1.00  0.00    -0.277 OA 
HETATM   23  C   UNL     1     -11.294  15.577  67.361  1.00  0.00    -0.203 C  
HETATM   24  N   UNL     1     -10.209  14.731  66.766  1.00  0.00    -0.262 NA 
ENDROOT
BRANCH  24  25
HETATM   25  C   UNL     1     -10.038  14.378  65.359  1.00  0.00    -0.359 C  
BRANCH  25  26
HETATM   26  C   UNL     1     -10.616  13.040  64.908  1.00  0.00    -0.355 C  
HETATM   27  C   UNL     1     -12.139  13.149  64.522  1.00  0.00    -0.462 C  
HETATM   28  C   UNL     1     -11.902  11.942  63.597  1.00  0.00    -0.573 C  
HETATM   29  C   UNL     1     -10.445  12.460  63.461  1.00  0.00    -0.430 C  
ENDBRANCH  25  26
ENDBRANCH  24  25
TORSDOF 2
ENDMDL
MODEL       12
REMARK 921   NORMALIZED FREE ENERGY PREDICTED BY IDOCK:   -7.06 KCAL/MOL
REMARK 922        TOTAL FREE ENERGY PREDICTED BY IDOCK:   -8.42 KCAL/MOL
REMARK 923 INTER-LIGAND FREE ENERGY PREDICTED BY IDOCK:   -8.05 KCAL/MOL
REMARK 924 INTRA-LIGAND FREE ENERGY PREDICTED BY IDOCK:   -0.37 KCAL/MOL
REMARK 927      BINDING AFFINITY PREDICTED BY RF-SCORE:    0.00 PKD
ROOT
HETATM    1  O   UNL     1      -7.700  10.353  66.961  1.00  0.00    -0.102 OA 
HETATM    2  C   UNL     1      -8.830  10.982  67.602  1.00  0.00    -0.131 C  
HETATM    3  H   UNL     1      -8.030   9.764  66.293  1.00  0.00     0.000 HD 
HETATM    4  C   UNL     1      -8.297  11.933  68.680  1.00  0.00    -0.058 C  
HETATM    5  C   UNL     1      -8.296  13.510  68.298  1.00  0.00    -0.165 C  
HETATM    6  C   UNL     1      -9.435  14.135  67.281  1.00  0.00    -0.229 C  
HETATM    7  O   UNL     1      -8.717  14.448  66.091  1.00  0.00    -0.424 OA 
HETATM    8  C   UNL     1     -10.666  15.249  67.453  1.00  0.00    -0.293 C  
HETATM    9  C   UNL     1     -11.383  15.702  66.179  1.00  0.00     0.069 C  
HETATM   10  H   UNL     1      -9.372  14.807  65.505  1.00  0.00     0.000 HD 
HETATM   11  C   UNL     1     -11.704  14.416  65.441  1.00  0.00    -0.362 A  
HETATM   12  C   UNL     1     -12.253  14.451  64.167  1.00  0.00    -0.393 A  
HETATM   13  C   UNL     1     -12.234  13.295  63.362  1.00  0.00    -0.476 A  
HETATM   14  C   UNL     1     -11.688  12.092  63.863  1.00  0.00    -0.458 A  
HETATM   15  O   UNL     1     -11.400  11.095  62.972  1.00  0.00    -0.812 OA 
HETATM   16  C   UNL     1     -11.259  12.052  65.182  1.00  0.00    -0.315 A  
HETATM   17  H   UNL     1     -11.033  10.286  63.308  1.00  0.00     0.000 HD 
HETATM   18  C   UNL     1     -11.299  13.173  65.990  1.00  0.00    -0.337 A  
HETATM   19  C   UNL     1     -10.413  12.980  67.233  1.00  0.00    -0.238 C  
HETATM   20  C   UNL     1     -10.969  13.192  68.873  1.00  0.00    -0.270 C  
HETATM   21  C   UNL     1      -9.654  11.767  66.619  1.00  0.00    -0.205 C  
HETATM   22  O   UNL     1     -10.565  11.015  65.777  1.00  0.00    -0.247 OA 
HETATM   23  C   UNL     1     -10.694  14.796  69.632  1.00  0.00    -0.189 C  
HETATM   24  N   UNL     1     -10.679  15.969  68.699  1.00  0.00    -0.264 NA 
ENDROOT
BRANCH  24  25
HETATM   25  C   UNL     1      -9.659  17.011  68.608  1.00  0.00    -0.275 C  
BRANCH  25  26
HETATM   26  C   UNL     1     -10.151  18.449  68.480  1.00  0.00    -0.413 C  
HETATM   27  C   UNL     1      -8.969  19.468  68.274  1.00  0.00    -0.386 C  
HETATM   28  C   UNL     1      -9.987  20.373  67.559  1.00  0.00    -0.537 C  
HETATM   29  C   UNL     1     -10.714  19.063  67.151  1.00  0.00    -0.541 C  
ENDBRANCH  25  26
ENDBRANCH  24  25
TORSDOF 2
ENDMDL
MODEL       13
REMARK 921   NORMALIZED FREE ENERGY PREDICTED BY IDOCK:   -7.04 KCAL/MOL
REMARK 922        TOTAL FREE ENERGY PREDICTED BY IDOCK:   -8.41 KCAL/MOL
REMARK 923 INTER-LIGAND FREE ENERGY PREDICTED BY IDOCK:   -7.99 KCAL/MOL
REMARK 924 INTRA-LIGAND FREE ENERGY PREDICTED BY IDOCK:   -0.41 KCAL/MOL
REMARK 927      BINDING AFFINITY PREDICTED BY RF-SCORE:    0.00 PKD
ROOT
HETATM    1  O   UNL     1     -12.071  15.248  63.600  1.00  0.00    -0.926 OA 
HETATM    2  C   UNL     1     -12.125  15.106  65.035  1.00  0.00    -0.043 C  
HETATM    3  H   UNL     1     -11.679  16.090  63.401  1.00  0.00     0.000 HD 
HETATM    4  C   UNL     1     -12.758  13.747  65.355  1.00  0.00    -0.513 C  
HETATM    5  C   UNL     1     -11.729  12.572  65.799  1.00  0.00    -0.478 C  
HETATM    6  C   UNL     1     -10.333  12.928  66.602  1.00  0.00    -0.251 C  
HETATM    7  O   UNL     1      -9.300  12.669  65.656  1.00  0.00    -0.450 OA 
HETATM    8  C   UNL     1      -9.744  12.580  68.125  1.00  0.00    -0.222 C  
HETATM    9  C   UNL     1      -8.285  12.943  68.410  1.00  0.00    -0.121 C  
HETATM   10  H   UNL     1      -8.497  12.874  66.119  1.00  0.00     0.000 HD 
HETATM   11  C   UNL     1      -8.140  14.370  67.916  1.00  0.00    -0.153 A  
HETATM   12  C   UNL     1      -6.899  14.991  67.903  1.00  0.00    -0.172 A  
HETATM   13  C   UNL     1      -6.709  16.163  67.145  1.00  0.00    -0.227 A  
HETATM   14  C   UNL     1      -7.787  16.726  66.427  1.00  0.00    -0.318 A  
HETATM   15  O   UNL     1      -7.505  17.659  65.468  1.00  0.00    -0.432 OA 
HETATM   16  C   UNL     1      -9.045  16.155  66.556  1.00  0.00    -0.277 A  
HETATM   17  H   UNL     1      -8.230  18.038  64.984  1.00  0.00     0.000 HD 
HETATM   18  C   UNL     1      -9.250  15.021  67.320  1.00  0.00    -0.210 A  
HETATM   19  C   UNL     1     -10.602  14.371  66.978  1.00  0.00    -0.274 C  
HETATM   20  C   UNL     1     -11.830  13.989  68.156  1.00  0.00    -0.402 C  
HETATM   21  C   UNL     1     -10.753  15.165  65.647  1.00  0.00    -0.363 C  
HETATM   22  O   UNL     1     -10.163  16.480  65.811  1.00  0.00    -0.386 OA 
HETATM   23  C   UNL     1     -11.843  12.319  68.816  1.00  0.00    -0.306 C  
HETATM   24  N   UNL     1     -10.514  11.631  68.884  1.00  0.00    -0.203 NA 
ENDROOT
BRANCH  24  25
HETATM   25  C   UNL     1     -10.182  10.301  68.378  1.00  0.00    -0.167 C  
BRANCH  25  26
HETATM   26  C   UNL     1     -10.072   9.179  69.406  1.00  0.00    -0.198 C  
HETATM   27  C   UNL     1      -8.822   9.353  70.347  1.00  0.00    -0.290 C  
HETATM   28  C   UNL     1      -9.608   8.551  71.398  1.00  0.00    -0.282 C  
HETATM   29  C   UNL     1     -10.887   9.142  70.746  1.00  0.00    -0.331 C  
ENDBRANCH  25  26
ENDBRANCH  24  25
TORSDOF 2
ENDMDL
MODEL       14
REMARK 921   NORMALIZED FREE ENERGY PREDICTED BY IDOCK:   -7.01 KCAL/MOL
REMARK 922        TOTAL FREE ENERGY PREDICTED BY IDOCK:   -8.37 KCAL/MOL
REMARK 923 INTER-LIGAND FREE ENERGY PREDICTED BY IDOCK:   -8.05 KCAL/MOL
REMARK 924 INTRA-LIGAND FREE ENERGY PREDICTED BY IDOCK:   -0.32 KCAL/MOL
REMARK 927      BINDING AFFINITY PREDICTED BY RF-SCORE:    0.00 PKD
ROOT
HETATM    1  O   UNL     1     -11.422  12.852  63.158  1.00  0.00    -0.772 OA 
HETATM    2  C   UNL     1     -10.547  13.275  64.225  1.00  0.00    -0.384 C  
HETATM    3  H   UNL     1     -11.093  12.028  62.816  1.00  0.00     0.000 HD 
HETATM    4  C   UNL     1     -11.076  14.604  64.776  1.00  0.00    -0.394 C  
HETATM    5  C   UNL     1     -11.889  14.517  66.178  1.00  0.00    -0.344 C  
HETATM    6  C   UNL     1     -11.523  13.363  67.299  1.00  0.00    -0.340 C  
HETATM    7  O   UNL     1     -12.637  12.475  67.274  1.00  0.00     0.060 OA 
HETATM    8  C   UNL     1     -10.922  13.400  68.856  1.00  0.00    -0.248 C  
HETATM    9  C   UNL     1     -10.915  12.082  69.634  1.00  0.00     0.033 C  
HETATM   10  H   UNL     1     -12.426  11.811  67.919  1.00  0.00     0.000 HD 
HETATM   11  C   UNL     1     -10.311  11.073  68.677  1.00  0.00    -0.209 A  
HETATM   12  C   UNL     1     -10.261   9.726  69.007  1.00  0.00    -0.214 A  
HETATM   13  C   UNL     1     -10.021   8.766  68.006  1.00  0.00    -0.220 A  
HETATM   14  C   UNL     1      -9.795   9.173  66.672  1.00  0.00    -0.240 A  
HETATM   15  O   UNL     1      -9.878   8.229  65.687  1.00  0.00    -0.391 OA 
HETATM   16  C   UNL     1      -9.727  10.530  66.392  1.00  0.00    -0.198 A  
HETATM   17  H   UNL     1      -9.726   8.503  64.790  1.00  0.00     0.000 HD 
HETATM   18  C   UNL     1      -9.934  11.483  67.372  1.00  0.00    -0.209 A  
HETATM   19  C   UNL     1     -10.206  12.861  66.745  1.00  0.00    -0.243 C  
HETATM   20  C   UNL     1      -9.319  14.309  67.140  1.00  0.00    -0.233 C  
HETATM   21  C   UNL     1     -10.505  12.264  65.337  1.00  0.00    -0.269 C  
HETATM   22  O   UNL     1      -9.670  11.096  65.132  1.00  0.00    -0.226 OA 
HETATM   23  C   UNL     1     -10.019  15.382  68.399  1.00  0.00    -0.215 C  
HETATM   24  N   UNL     1     -10.838  14.705  69.456  1.00  0.00    -0.240 NA 
ENDROOT
BRANCH  24  25
HETATM   25  C   UNL     1     -12.184  15.066  69.895  1.00  0.00    -0.309 C  
BRANCH  25  26
HETATM   26  C   UNL     1     -12.538  14.770  71.349  1.00  0.00    -0.394 C  
HETATM   27  C   UNL     1     -11.668  15.610  72.358  1.00  0.00    -0.574 C  
HETATM   28  C   UNL     1     -12.839  15.472  73.348  1.00  0.00    -0.660 C  
HETATM   29  C   UNL     1     -13.757  15.413  72.098  1.00  0.00    -0.618 C  
ENDBRANCH  25  26
ENDBRANCH  24  25
TORSDOF 2
ENDMDL
MODEL       15
REMARK 921   NORMALIZED FREE ENERGY PREDICTED BY IDOCK:   -6.96 KCAL/MOL
REMARK 922        TOTAL FREE ENERGY PREDICTED BY IDOCK:   -8.32 KCAL/MOL
REMARK 923 INTER-LIGAND FREE ENERGY PREDICTED BY IDOCK:   -7.95 KCAL/MOL
REMARK 924 INTRA-LIGAND FREE ENERGY PREDICTED BY IDOCK:   -0.37 KCAL/MOL
REMARK 927      BINDING AFFINITY PREDICTED BY RF-SCORE:    0.00 PKD
ROOT
HETATM    1  O   UNL     1     -11.422   6.434  68.827  1.00  0.00    -0.572 OA 
HETATM    2  C   UNL     1     -10.461   7.462  69.146  1.00  0.00    -0.213 C  
HETATM    3  H   UNL     1     -11.879   6.198  69.626  1.00  0.00     0.000 HD 
HETATM    4  C   UNL     1      -9.724   7.841  67.857  1.00  0.00    -0.181 C  
HETATM    5  C   UNL     1     -10.193   9.226  67.151  1.00  0.00    -0.324 C  
HETATM    6  C   UNL     1     -10.768  10.482  68.053  1.00  0.00    -0.245 C  
HETATM    7  O   UNL     1     -12.158  10.538  67.743  1.00  0.00    -0.413 OA 
HETATM    8  C   UNL     1     -10.240  12.037  68.356  1.00  0.00    -0.209 C  
HETATM    9  C   UNL     1     -11.194  12.965  69.111  1.00  0.00    -0.293 C  
HETATM   10  H   UNL     1     -12.489  11.261  68.262  1.00  0.00     0.000 HD 
HETATM   11  C   UNL     1     -11.669  12.146  70.297  1.00  0.00    -0.240 A  
HETATM   12  C   UNL     1     -12.653  12.634  71.145  1.00  0.00    -0.354 A  
HETATM   13  C   UNL     1     -13.323  11.758  72.021  1.00  0.00    -0.417 A  
HETATM   14  C   UNL     1     -12.969  10.391  72.063  1.00  0.00    -0.396 A  
HETATM   15  O   UNL     1     -13.829   9.522  72.677  1.00  0.00    -0.714 OA 
HETATM   16  C   UNL     1     -11.899   9.955  71.296  1.00  0.00    -0.395 A  
HETATM   17  H   UNL     1     -13.592   8.603  72.705  1.00  0.00     0.000 HD 
HETATM   18  C   UNL     1     -11.216  10.811  70.452  1.00  0.00    -0.270 A  
HETATM   19  C   UNL     1     -10.371  10.020  69.440  1.00  0.00    -0.245 C  
HETATM   20  C   UNL     1      -8.662  10.261  69.191  1.00  0.00    -0.176 C  
HETATM   21  C   UNL     1     -11.130   8.686  69.707  1.00  0.00    -0.067 C  
HETATM   22  O   UNL     1     -11.524   8.638  71.103  1.00  0.00    -0.262 OA 
HETATM   23  C   UNL     1      -8.175  11.370  67.864  1.00  0.00    -0.132 C  
HETATM   24  N   UNL     1      -9.131  12.481  67.554  1.00  0.00    -0.179 NA 
ENDROOT
BRANCH  24  25
HETATM   25  C   UNL     1      -9.664  12.845  66.243  1.00  0.00    -0.268 C  
BRANCH  25  26
HETATM   26  C   UNL     1      -9.667  14.329  65.888  1.00  0.00    -0.289 C  
HETATM   27  C   UNL     1     -10.705  14.669  64.754  1.00  0.00    -0.399 C  
HETATM   28  C   UNL     1     -10.760  16.088  65.347  1.00  0.00    -0.399 C  
HETATM   29  C   UNL     1     -10.436  15.421  66.711  1.00  0.00    -0.299 C  
ENDBRANCH  25  26
ENDBRANCH  24  25
TORSDOF 2
ENDMDL
MODEL       16
REMARK 921   NORMALIZED FREE ENERGY PREDICTED BY IDOCK:   -6.94 KCAL/MOL
REMARK 922        TOTAL FREE ENERGY PREDICTED BY IDOCK:   -8.30 KCAL/MOL
REMARK 923 INTER-LIGAND FREE ENERGY PREDICTED BY IDOCK:   -7.91 KCAL/MOL
REMARK 924 INTRA-LIGAND FREE ENERGY PREDICTED BY IDOCK:   -0.39 KCAL/MOL
REMARK 927      BINDING AFFINITY PREDICTED BY RF-SCORE:    0.00 PKD
ROOT
HETATM    1  O   UNL     1      -8.393   5.890  70.071  1.00  0.00    -0.117 OA 
HETATM    2  C   UNL     1      -8.160   7.314  70.033  1.00  0.00    -0.130 C  
HETATM    3  H   UNL     1      -8.732   5.668  70.930  1.00  0.00     0.000 HD 
HETATM    4  C   UNL     1      -7.613   7.670  68.646  1.00  0.00    -0.109 C  
HETATM    5  C   UNL     1      -8.673   8.342  67.617  1.00  0.00    -0.133 C  
HETATM    6  C   UNL     1      -9.912   9.281  68.170  1.00  0.00    -0.177 C  
HETATM    7  O   UNL     1     -11.081   8.499  67.943  1.00  0.00    -0.475 OA 
HETATM    8  C   UNL     1     -10.321  10.890  67.998  1.00  0.00    -0.185 C  
HETATM    9  C   UNL     1     -11.690  11.324  68.525  1.00  0.00    -0.378 C  
HETATM   10  H   UNL     1     -11.794   9.039  68.262  1.00  0.00     0.000 HD 
HETATM   11  C   UNL     1     -11.773  10.728  69.918  1.00  0.00    -0.412 A  
HETATM   12  C   UNL     1     -12.944  10.817  70.657  1.00  0.00    -0.313 A  
HETATM   13  C   UNL     1     -13.130   9.989  71.781  1.00  0.00    -0.562 A  
HETATM   14  C   UNL     1     -12.112   9.094  72.177  1.00  0.00    -0.318 A  
HETATM   15  O   UNL     1     -12.436   8.100  73.059  1.00  0.00    -0.673 OA 
HETATM   16  C   UNL     1     -10.903   9.113  71.496  1.00  0.00    -0.366 A  
HETATM   17  H   UNL     1     -11.751   7.497  73.326  1.00  0.00     0.000 HD 
HETATM   18  C   UNL     1     -10.699   9.941  70.408  1.00  0.00    -0.379 A  
HETATM   19  C   UNL     1      -9.468   9.491  69.603  1.00  0.00    -0.213 C  
HETATM   20  C   UNL     1      -8.132  10.533  69.191  1.00  0.00    -0.152 C  
HETATM   21  C   UNL     1      -9.427   8.086  70.275  1.00  0.00    -0.167 C  
HETATM   22  O   UNL     1      -9.871   8.207  71.651  1.00  0.00    -0.162 OA 
HETATM   23  C   UNL     1      -8.179  11.331  67.583  1.00  0.00    -0.120 C  
HETATM   24  N   UNL     1      -9.543  11.627  67.037  1.00  0.00    -0.182 NA 
ENDROOT
BRANCH  24  25
HETATM   25  C   UNL     1     -10.056  11.286  65.713  1.00  0.00    -0.247 C  
BRANCH  25  26
HETATM   26  C   UNL     1     -10.793  12.385  64.954  1.00  0.00    -0.333 C  
HETATM   27  C   UNL     1     -10.977  12.038  63.430  1.00  0.00    -0.475 C  
HETATM   28  C   UNL     1     -12.216  12.951  63.459  1.00  0.00    -0.595 C  
HETATM   29  C   UNL     1     -12.354  12.547  64.951  1.00  0.00    -0.539 C  
ENDBRANCH  25  26
ENDBRANCH  24  25
TORSDOF 2
ENDMDL
MODEL       17
REMARK 921   NORMALIZED FREE ENERGY PREDICTED BY IDOCK:   -6.92 KCAL/MOL
REMARK 922        TOTAL FREE ENERGY PREDICTED BY IDOCK:   -8.27 KCAL/MOL
REMARK 923 INTER-LIGAND FREE ENERGY PREDICTED BY IDOCK:   -8.00 KCAL/MOL
REMARK 924 INTRA-LIGAND FREE ENERGY PREDICTED BY IDOCK:   -0.27 KCAL/MOL
REMARK 927      BINDING AFFINITY PREDICTED BY RF-SCORE:    0.00 PKD
ROOT
HETATM    1  O   UNL     1     -10.081   7.632  66.198  1.00  0.00    -0.456 OA 
HETATM    2  C   UNL     1      -9.479   8.657  67.018  1.00  0.00    -0.171 C  
HETATM    3  H   UNL     1     -10.218   6.864  66.740  1.00  0.00     0.000 HD 
HETATM    4  C   UNL     1      -9.257   9.896  66.143  1.00  0.00    -0.211 C  
HETATM    5  C   UNL     1     -10.328  11.101  66.336  1.00  0.00    -0.300 C  
HETATM    6  C   UNL     1     -11.053  11.364  67.794  1.00  0.00    -0.265 C  
HETATM    7  O   UNL     1     -12.410  10.977  67.594  1.00  0.00    -0.097 OA 
HETATM    8  C   UNL     1     -11.027  12.614  68.901  1.00  0.00    -0.229 C  
HETATM    9  C   UNL     1     -12.021  12.541  70.062  1.00  0.00    -0.372 C  
HETATM   10  H   UNL     1     -12.827  11.128  68.433  1.00  0.00     0.000 HD 
HETATM   11  C   UNL     1     -11.880  11.130  70.601  1.00  0.00    -0.403 A  
HETATM   12  C   UNL     1     -12.730  10.664  71.595  1.00  0.00    -0.531 A  
HETATM   13  C   UNL     1     -12.823   9.282  71.848  1.00  0.00    -0.485 A  
HETATM   14  C   UNL     1     -12.027   8.372  71.117  1.00  0.00    -0.272 A  
HETATM   15  O   UNL     1     -12.361   7.047  71.159  1.00  0.00    -0.359 OA 
HETATM   16  C   UNL     1     -11.098   8.873  70.217  1.00  0.00    -0.228 A  
HETATM   17  H   UNL     1     -11.826   6.434  70.667  1.00  0.00     0.000 HD 
HETATM   18  C   UNL     1     -10.977  10.229  69.979  1.00  0.00    -0.371 A  
HETATM   19  C   UNL     1     -10.193  10.489  68.682  1.00  0.00    -0.197 C  
HETATM   20  C   UNL     1      -8.785  11.513  68.578  1.00  0.00    -0.138 C  
HETATM   21  C   UNL     1     -10.362   9.025  68.177  1.00  0.00    -0.214 C  
HETATM   22  O   UNL     1     -10.358   8.128  69.317  1.00  0.00    -0.211 OA 
HETATM   23  C   UNL     1      -9.048  13.220  68.083  1.00  0.00    -0.207 C  
HETATM   24  N   UNL     1     -10.370  13.816  68.460  1.00  0.00    -0.242 NA 
ENDROOT
BRANCH  24  25
HETATM   25  C   UNL     1     -11.302  14.522  67.584  1.00  0.00    -0.337 C  
BRANCH  25  26
HETATM   26  C   UNL     1     -11.209  14.219  66.092  1.00  0.00    -0.331 C  
HETATM   27  C   UNL     1     -12.608  13.851  65.470  1.00  0.00    -0.560 C  
HETATM   28  C   UNL     1     -12.053  14.366  64.130  1.00  0.00    -0.405 C  
HETATM   29  C   UNL     1     -11.174  15.323  64.978  1.00  0.00    -0.409 C  
ENDBRANCH  25  26
ENDBRANCH  24  25
TORSDOF 2
ENDMDL
MODEL       18
REMARK 921   NORMALIZED FREE ENERGY PREDICTED BY IDOCK:   -6.79 KCAL/MOL
REMARK 922        TOTAL FREE ENERGY PREDICTED BY IDOCK:   -8.12 KCAL/MOL
REMARK 923 INTER-LIGAND FREE ENERGY PREDICTED BY IDOCK:   -7.73 KCAL/MOL
REMARK 924 INTRA-LIGAND FREE ENERGY PREDICTED BY IDOCK:   -0.39 KCAL/MOL
REMARK 927      BINDING AFFINITY PREDICTED BY RF-SCORE:    0.00 PKD
ROOT
HETATM    1  O   UNL     1     -12.946  15.479  71.167  1.00  0.00    -0.450 OA 
HETATM    2  C   UNL     1     -11.709  14.991  70.608  1.00  0.00    -0.308 C  
HETATM    3  H   UNL     1     -12.819  16.387  71.419  1.00  0.00     0.000 HD 
HETATM    4  C   UNL     1     -11.915  13.526  70.204  1.00  0.00    -0.399 C  
HETATM    5  C   UNL     1     -12.135  13.252  68.619  1.00  0.00    -0.257 C  
HETATM    6  C   UNL     1     -11.433  14.224  67.487  1.00  0.00    -0.345 C  
HETATM    7  O   UNL     1     -12.518  14.947  66.914  1.00  0.00    -0.270 OA 
HETATM    8  C   UNL     1     -10.282  13.988  66.301  1.00  0.00    -0.296 C  
HETATM    9  C   UNL     1     -10.050  15.133  65.313  1.00  0.00    -0.365 C  
HETATM   10  H   UNL     1     -12.114  15.507  66.262  1.00  0.00     0.000 HD 
HETATM   11  C   UNL     1      -9.912  16.369  66.182  1.00  0.00    -0.360 A  
HETATM   12  C   UNL     1      -9.814  17.629  65.609  1.00  0.00     0.200 A  
HETATM   13  C   UNL     1     -10.026  18.777  66.397  1.00  0.00    -0.426 A  
HETATM   14  C   UNL     1     -10.304  18.649  67.775  1.00  0.00    -0.410 A  
HETATM   15  O   UNL     1     -10.808  19.736  68.435  1.00  0.00    -0.347 OA 
HETATM   16  C   UNL     1     -10.275  17.385  68.348  1.00  0.00    -0.362 A  
HETATM   17  H   UNL     1     -10.996  19.650  69.362  1.00  0.00     0.000 HD 
HETATM   18  C   UNL     1     -10.040  16.253  67.590  1.00  0.00    -0.260 A  
HETATM   19  C   UNL     1     -10.456  14.986  68.358  1.00  0.00    -0.238 C  
HETATM   20  C   UNL     1      -9.407  13.620  68.633  1.00  0.00    -0.057 C  
HETATM   21  C   UNL     1     -11.301  15.782  69.397  1.00  0.00    -0.348 C  
HETATM   22  O   UNL     1     -10.672  17.068  69.633  1.00  0.00    -0.283 OA 
HETATM   23  C   UNL     1      -9.515  12.256  67.470  1.00  0.00    -0.182 C  
HETATM   24  N   UNL     1      -9.904  12.619  66.069  1.00  0.00    -0.259 NA 
ENDROOT
BRANCH  24  25
HETATM   25  C   UNL     1     -10.958  12.010  65.261  1.00  0.00    -0.308 C  
BRANCH  25  26
HETATM   26  C   UNL     1     -10.532  10.931  64.271  1.00  0.00    -0.405 C  
HETATM   27  C   UNL     1      -9.723  11.522  63.056  1.00  0.00    -0.382 C  
HETATM   28  C   UNL     1      -9.059  10.139  62.936  1.00  0.00    -0.299 C  
HETATM   29  C   UNL     1      -9.275  10.014  64.468  1.00  0.00    -0.313 C  
ENDBRANCH  25  26
ENDBRANCH  24  25
TORSDOF 2
ENDMDL
MODEL       19
REMARK 921   NORMALIZED FREE ENERGY PREDICTED BY IDOCK:   -6.67 KCAL/MOL
REMARK 922        TOTAL FREE ENERGY PREDICTED BY IDOCK:   -7.99 KCAL/MOL
REMARK 923 INTER-LIGAND FREE ENERGY PREDICTED BY IDOCK:   -7.61 KCAL/MOL
REMARK 924 INTRA-LIGAND FREE ENERGY PREDICTED BY IDOCK:   -0.38 KCAL/MOL
REMARK 927      BINDING AFFINITY PREDICTED BY RF-SCORE:    0.00 PKD
ROOT
HETATM    1  O   UNL     1      -7.759  11.252  62.341  1.00  0.00    -0.439 OA 
HETATM    2  C   UNL     1      -8.549  10.450  63.245  1.00  0.00    -0.190 C  
HETATM    3  H   UNL     1      -8.352  11.703  61.752  1.00  0.00     0.000 HD 
HETATM    4  C   UNL     1      -7.592   9.721  64.195  1.00  0.00    -0.134 C  
HETATM    5  C   UNL     1      -7.464  10.345  65.689  1.00  0.00    -0.149 C  
HETATM    6  C   UNL     1      -8.739  11.116  66.396  1.00  0.00    -0.177 C  
HETATM    7  O   UNL     1      -8.355  12.488  66.425  1.00  0.00    -0.404 OA 
HETATM    8  C   UNL     1      -9.687  10.813  67.736  1.00  0.00    -0.162 C  
HETATM    9  C   UNL     1     -10.663  11.910  68.166  1.00  0.00    -0.246 C  
HETATM   10  H   UNL     1      -9.089  12.932  66.832  1.00  0.00     0.000 HD 
HETATM   11  C   UNL     1     -11.372  12.316  66.887  1.00  0.00    -0.392 A  
HETATM   12  C   UNL     1     -12.253  13.389  66.877  1.00  0.00    -0.343 A  
HETATM   13  C   UNL     1     -12.639  13.968  65.653  1.00  0.00    -0.542 A  
HETATM   14  C   UNL     1     -12.161  13.437  64.435  1.00  0.00    -0.416 A  
HETATM   15  O   UNL     1     -12.294  14.195  63.304  1.00  0.00    -1.140 OA 
HETATM   16  C   UNL     1     -11.382  12.289  64.468  1.00  0.00    -0.329 A  
HETATM   17  H   UNL     1     -11.971  13.838  62.485  1.00  0.00     0.000 HD 
HETATM   18  C   UNL     1     -11.018  11.695  65.662  1.00  0.00    -0.322 A  
HETATM   19  C   UNL     1      -9.852  10.714  65.451  1.00  0.00    -0.325 C  
HETATM   20  C   UNL     1      -9.875   9.044  65.954  1.00  0.00    -0.257 C  
HETATM   21  C   UNL     1      -9.493  11.297  64.052  1.00  0.00    -0.180 C  
HETATM   22  O   UNL     1     -10.710  11.734  63.394  1.00  0.00    -0.391 OA 
HETATM   23  C   UNL     1      -9.156   8.660  67.554  1.00  0.00    -0.134 C  
HETATM   24  N   UNL     1      -9.234   9.744  68.585  1.00  0.00    -0.134 NA 
ENDROOT
BRANCH  24  25
HETATM   25  C   UNL     1      -8.138  10.270  69.396  1.00  0.00    -0.163 C  
BRANCH  25  26
HETATM   26  C   UNL     1      -7.792   9.504  70.669  1.00  0.00    -0.149 C  
HETATM   27  C   UNL     1      -9.058   8.842  71.330  1.00  0.00    -0.323 C  
HETATM   28  C   UNL     1      -8.096   7.803  71.931  1.00  0.00    -0.120 C  
HETATM   29  C   UNL     1      -7.211   8.047  70.679  1.00  0.00    -0.052 C  
ENDBRANCH  25  26
ENDBRANCH  24  25
TORSDOF 2
ENDMDL
MODEL       20
REMARK 921   NORMALIZED FREE ENERGY PREDICTED BY IDOCK:   -6.63 KCAL/MOL
REMARK 922        TOTAL FREE ENERGY PREDICTED BY IDOCK:   -7.95 KCAL/MOL
REMARK 923 INTER-LIGAND FREE ENERGY PREDICTED BY IDOCK:   -7.53 KCAL/MOL
REMARK 924 INTRA-LIGAND FREE ENERGY PREDICTED BY IDOCK:   -0.42 KCAL/MOL
REMARK 927      BINDING AFFINITY PREDICTED BY RF-SCORE:    0.00 PKD
ROOT
HETATM    1  O   UNL     1     -11.768  10.524  67.849  1.00  0.00    -0.714 OA 
HETATM    2  C   UNL     1     -11.057  11.488  67.043  1.00  0.00    -0.307 C  
HETATM    3  H   UNL     1     -11.172   9.811  68.051  1.00  0.00     0.000 HD 
HETATM    4  C   UNL     1     -12.018  12.637  66.717  1.00  0.00    -0.362 C  
HETATM    5  C   UNL     1     -11.822  13.994  67.585  1.00  0.00    -0.430 C  
HETATM    6  C   UNL     1     -10.334  14.432  68.147  1.00  0.00    -0.231 C  
HETATM    7  O   UNL     1     -10.413  14.240  69.556  1.00  0.00    -0.427 OA 
HETATM    8  C   UNL     1      -9.309  15.717  67.853  1.00  0.00    -0.200 C  
HETATM    9  C   UNL     1      -8.077  15.849  68.751  1.00  0.00    -0.190 C  
HETATM   10  H   UNL     1      -9.556  14.492  69.879  1.00  0.00     0.000 HD 
HETATM   11  C   UNL     1      -7.466  14.461  68.772  1.00  0.00    -0.133 A  
HETATM   12  C   UNL     1      -6.387  14.175  69.597  1.00  0.00    -0.131 A  
HETATM   13  C   UNL     1      -6.045  12.836  69.866  1.00  0.00    -0.122 A  
HETATM   14  C   UNL     1      -6.776  11.784  69.271  1.00  0.00    -0.110 A  
HETATM   15  O   UNL     1      -6.629  10.525  69.786  1.00  0.00    -0.080 OA 
HETATM   16  C   UNL     1      -7.769  12.097  68.354  1.00  0.00    -0.134 A  
HETATM   17  H   UNL     1      -7.121   9.817  69.385  1.00  0.00     0.000 HD 
HETATM   18  C   UNL     1      -8.095  13.408  68.060  1.00  0.00    -0.160 A  
HETATM   19  C   UNL     1      -9.459  13.484  67.352  1.00  0.00    -0.225 C  
HETATM   20  C   UNL     1      -9.726  14.284  65.825  1.00  0.00    -0.264 C  
HETATM   21  C   UNL     1      -9.861  12.039  67.769  1.00  0.00    -0.190 C  
HETATM   22  O   UNL     1      -8.673  11.208  67.803  1.00  0.00    -0.128 OA 
HETATM   23  C   UNL     1     -10.302  15.984  65.880  1.00  0.00    -0.368 C  
HETATM   24  N   UNL     1      -9.867  16.786  67.068  1.00  0.00    -0.254 NA 
ENDROOT
BRANCH  24  25
HETATM   25  C   UNL     1     -10.716  17.578  67.956  1.00  0.00    -0.341 C  
BRANCH  25  26
HETATM   26  C   UNL     1     -10.642  19.094  67.810  1.00  0.00    -0.498 C  
HETATM   27  C   UNL     1      -9.209  19.657  68.141  1.00  0.00    -0.418 C  
HETATM   28  C   UNL     1      -9.548  20.832  67.207  1.00  0.00    -0.494 C  
HETATM   29  C   UNL     1     -10.449  19.829  66.437  1.00  0.00    -0.618 C  
ENDBRANCH  25  26
ENDBRANCH  24  25
TORSDOF 2
ENDMDL
MODEL       21
REMARK 921   NORMALIZED FREE ENERGY PREDICTED BY IDOCK:   -6.63 KCAL/MOL
REMARK 922        TOTAL FREE ENERGY PREDICTED BY IDOCK:   -7.95 KCAL/MOL
REMARK 923 INTER-LIGAND FREE ENERGY PREDICTED BY IDOCK:   -7.59 KCAL/MOL
REMARK 924 INTRA-LIGAND FREE ENERGY PREDICTED BY IDOCK:   -0.36 KCAL/MOL
REMARK 927      BINDING AFFINITY PREDICTED BY RF-SCORE:    0.00 PKD
ROOT
HETATM    1  O   UNL     1     -12.429  15.665  69.030  1.00  0.00    -0.596 OA 
HETATM    2  C   UNL     1     -11.171  15.070  68.650  1.00  0.00    -0.278 C  
HETATM    3  H   UNL     1     -12.695  16.261  68.339  1.00  0.00     0.000 HD 
HETATM    4  C   UNL     1     -10.742  14.110  69.765  1.00  0.00     0.094 C  
HETATM    5  C   UNL     1     -10.983  12.531  69.474  1.00  0.00     0.029 C  
HETATM    6  C   UNL     1     -10.913  11.933  67.938  1.00  0.00    -0.222 C  
HETATM    7  O   UNL     1     -12.261  11.597  67.624  1.00  0.00    -0.544 OA 
HETATM    8  C   UNL     1      -9.911  10.855  67.151  1.00  0.00    -0.184 C  
HETATM    9  C   UNL     1     -10.322  10.416  65.744  1.00  0.00    -0.257 C  
HETATM   10  H   UNL     1     -12.221  11.253  66.740  1.00  0.00     0.000 HD 
HETATM   11  C   UNL     1     -10.659  11.708  65.022  1.00  0.00    -0.342 A  
HETATM   12  C   UNL     1     -11.196  11.683  63.742  1.00  0.00    -0.498 A  
HETATM   13  C   UNL     1     -11.814  12.835  63.219  1.00  0.00    -0.493 A  
HETATM   14  C   UNL     1     -11.858  14.024  63.979  1.00  0.00    -0.308 A  
HETATM   15  O   UNL     1     -12.722  15.009  63.586  1.00  0.00    -0.846 OA 
HETATM   16  C   UNL     1     -11.206  14.058  65.204  1.00  0.00    -0.329 A  
HETATM   17  H   UNL     1     -12.752  15.809  64.098  1.00  0.00     0.000 HD 
HETATM   18  C   UNL     1     -10.572  12.942  65.717  1.00  0.00    -0.293 A  
HETATM   19  C   UNL     1     -10.294  13.115  67.220  1.00  0.00    -0.243 C  
HETATM   20  C   UNL     1      -8.723  12.925  67.953  1.00  0.00    -0.186 C  
HETATM   21  C   UNL     1     -11.290  14.304  67.361  1.00  0.00    -0.332 C  
HETATM   22  O   UNL     1     -11.281  15.077  66.134  1.00  0.00    -0.342 OA 
HETATM   23  C   UNL     1      -8.332  11.317  68.650  1.00  0.00    -0.146 C  
HETATM   24  N   UNL     1      -8.988  10.141  67.993  1.00  0.00    -0.125 NA 
ENDROOT
BRANCH  24  25
HETATM   25  C   UNL     1      -9.738   9.071  68.647  1.00  0.00    -0.160 C  
BRANCH  25  26
HETATM   26  C   UNL     1      -9.565   7.663  68.085  1.00  0.00    -0.158 C  
HETATM   27  C   UNL     1     -10.283   6.576  68.967  1.00  0.00    -0.204 C  
HETATM   28  C   UNL     1     -10.387   5.728  67.687  1.00  0.00    -0.270 C  
HETATM   29  C   UNL     1     -10.436   7.077  66.919  1.00  0.00    -0.356 C  
ENDBRANCH  25  26
ENDBRANCH  24  25
TORSDOF 2
ENDMDL
MODEL       22
REMARK 921   NORMALIZED FREE ENERGY PREDICTED BY IDOCK:   -6.60 KCAL/MOL
REMARK 922        TOTAL FREE ENERGY PREDICTED BY IDOCK:   -7.91 KCAL/MOL
REMARK 923 INTER-LIGAND FREE ENERGY PREDICTED BY IDOCK:   -7.63 KCAL/MOL
REMARK 924 INTRA-LIGAND FREE ENERGY PREDICTED BY IDOCK:   -0.28 KCAL/MOL
REMARK 927      BINDING AFFINITY PREDICTED BY RF-SCORE:    0.00 PKD
ROOT
HETATM    1  O   UNL     1      -8.726  17.801  68.236  1.00  0.00    -0.262 OA 
HETATM    2  C   UNL     1      -8.352  16.455  67.873  1.00  0.00    -0.171 C  
HETATM    3  H   UNL     1      -8.843  18.301  67.437  1.00  0.00     0.000 HD 
HETATM    4  C   UNL     1      -8.163  15.649  69.163  1.00  0.00    -0.248 C  
HETATM    5  C   UNL     1      -9.378  14.648  69.559  1.00  0.00     0.190 C  
HETATM    6  C   UNL     1     -10.307  13.941  68.393  1.00  0.00    -0.249 C  
HETATM    7  O   UNL     1     -11.574  14.580  68.510  1.00  0.00    -0.282 OA 
HETATM    8  C   UNL     1     -10.561  12.366  67.902  1.00  0.00    -0.213 C  
HETATM    9  C   UNL     1     -11.680  12.122  66.886  1.00  0.00    -0.374 C  
HETATM   10  H   UNL     1     -12.109  14.173  67.839  1.00  0.00     0.000 HD 
HETATM   11  C   UNL     1     -11.450  13.162  65.805  1.00  0.00    -0.355 A  
HETATM   12  C   UNL     1     -12.361  13.317  64.769  1.00  0.00    -0.454 A  
HETATM   13  C   UNL     1     -12.329  14.480  63.976  1.00  0.00    -0.207 A  
HETATM   14  C   UNL     1     -11.351  15.471  64.209  1.00  0.00    -0.155 A  
HETATM   15  O   UNL     1     -11.535  16.704  63.647  1.00  0.00    -1.331 OA 
HETATM   16  C   UNL     1     -10.377  15.234  65.169  1.00  0.00    -0.381 A  
HETATM   17  H   UNL     1     -10.877  17.371  63.804  1.00  0.00     0.000 HD 
HETATM   18  C   UNL     1     -10.381  14.084  65.936  1.00  0.00    -0.327 A  
HETATM   19  C   UNL     1      -9.472  14.245  67.166  1.00  0.00    -0.229 C  
HETATM   20  C   UNL     1      -8.187  13.143  67.586  1.00  0.00    -0.175 C  
HETATM   21  C   UNL     1      -9.411  15.796  67.033  1.00  0.00    -0.220 C  
HETATM   22  O   UNL     1      -9.450  16.152  65.627  1.00  0.00    -0.427 OA 
HETATM   23  C   UNL     1      -8.576  11.839  68.757  1.00  0.00     0.017 C  
HETATM   24  N   UNL     1      -9.994  11.354  68.752  1.00  0.00    -0.201 NA 
ENDROOT
BRANCH  24  25
HETATM   25  C   UNL     1     -10.880  11.209  69.904  1.00  0.00    -0.006 C  
BRANCH  25  26
HETATM   26  C   UNL     1     -11.186   9.787  70.365  1.00  0.00    -0.362 C  
HETATM   27  C   UNL     1     -10.070   9.216  71.318  1.00  0.00    -0.388 C  
HETATM   28  C   UNL     1     -11.163   8.312  71.916  1.00  0.00    -0.365 C  
HETATM   29  C   UNL     1     -12.159   9.444  71.546  1.00  0.00    -0.456 C  
ENDBRANCH  25  26
ENDBRANCH  24  25
TORSDOF 2
ENDMDL
MODEL       23
REMARK 921   NORMALIZED FREE ENERGY PREDICTED BY IDOCK:   -6.59 KCAL/MOL
REMARK 922        TOTAL FREE ENERGY PREDICTED BY IDOCK:   -7.90 KCAL/MOL
REMARK 923 INTER-LIGAND FREE ENERGY PREDICTED BY IDOCK:   -7.54 KCAL/MOL
REMARK 924 INTRA-LIGAND FREE ENERGY PREDICTED BY IDOCK:   -0.36 KCAL/MOL
REMARK 927      BINDING AFFINITY PREDICTED BY RF-SCORE:    0.00 PKD
ROOT
HETATM    1  O   UNL     1     -10.786   4.557  72.221  1.00  0.00    -0.151 OA 
HETATM    2  C   UNL     1      -9.929   5.712  72.096  1.00  0.00    -0.178 C  
HETATM    3  H   UNL     1     -11.404   4.723  72.923  1.00  0.00     0.000 HD 
HETATM    4  C   UNL     1      -8.931   5.444  70.963  1.00  0.00    -0.156 C  
HETATM    5  C   UNL     1      -9.250   6.174  69.549  1.00  0.00    -0.143 C  
HETATM    6  C   UNL     1     -10.021   7.631  69.504  1.00  0.00    -0.182 C  
HETATM    7  O   UNL     1     -11.310   7.337  68.972  1.00  0.00    -0.450 OA 
HETATM    8  C   UNL     1      -9.589   9.164  69.002  1.00  0.00    -0.156 C  
HETATM    9  C   UNL     1     -10.694  10.220  68.948  1.00  0.00    -0.256 C  
HETATM   10  H   UNL     1     -11.754   8.176  68.946  1.00  0.00     0.000 HD 
HETATM   11  C   UNL     1     -11.408  10.098  70.281  1.00  0.00    -0.387 A  
HETATM   12  C   UNL     1     -12.560  10.830  70.536  1.00  0.00    -0.421 A  
HETATM   13  C   UNL     1     -13.395  10.472  71.612  1.00  0.00    -0.423 A  
HETATM   14  C   UNL     1     -13.045   9.392  72.452  1.00  0.00    -0.379 A  
HETATM   15  O   UNL     1     -14.009   8.877  73.274  1.00  0.00    -1.203 OA 
HETATM   16  C   UNL     1     -11.828   8.757  72.250  1.00  0.00    -0.333 A  
HETATM   17  H   UNL     1     -13.774   8.150  73.839  1.00  0.00     0.000 HD 
HETATM   18  C   UNL     1     -10.986   9.117  71.215  1.00  0.00    -0.400 A  
HETATM   19  C   UNL     1      -9.932   8.026  70.964  1.00  0.00    -0.208 C  
HETATM   20  C   UNL     1      -8.212   8.315  70.933  1.00  0.00    -0.123 C  
HETATM   21  C   UNL     1     -10.717   6.951  71.772  1.00  0.00    -0.221 C  
HETATM   22  O   UNL     1     -11.406   7.597  72.873  1.00  0.00    -0.369 OA 
HETATM   23  C   UNL     1      -7.459   8.608  69.329  1.00  0.00    -0.082 C  
HETATM   24  N   UNL     1      -8.336   9.254  68.300  1.00  0.00    -0.119 NA 
ENDROOT
BRANCH  24  25
HETATM   25  C   UNL     1      -8.573   8.800  66.932  1.00  0.00    -0.115 C  
BRANCH  25  26
HETATM   26  C   UNL     1      -8.698   9.878  65.860  1.00  0.00    -0.154 C  
HETATM   27  C   UNL     1      -8.769   9.270  64.409  1.00  0.00    -0.211 C  
HETATM   28  C   UNL     1      -9.542  10.539  64.007  1.00  0.00    -0.367 C  
HETATM   29  C   UNL     1     -10.052  10.570  65.473  1.00  0.00    -0.349 C  
ENDBRANCH  25  26
ENDBRANCH  24  25
TORSDOF 2
ENDMDL
MODEL       24
REMARK 921   NORMALIZED FREE ENERGY PREDICTED BY IDOCK:   -6.48 KCAL/MOL
REMARK 922        TOTAL FREE ENERGY PREDICTED BY IDOCK:   -7.78 KCAL/MOL
REMARK 923 INTER-LIGAND FREE ENERGY PREDICTED BY IDOCK:   -7.37 KCAL/MOL
REMARK 924 INTRA-LIGAND FREE ENERGY PREDICTED BY IDOCK:   -0.40 KCAL/MOL
REMARK 927      BINDING AFFINITY PREDICTED BY RF-SCORE:    0.00 PKD
ROOT
HETATM    1  O   UNL     1      -7.142  10.579  64.083  1.00  0.00    -0.329 OA 
HETATM    2  C   UNL     1      -8.270   9.911  64.686  1.00  0.00    -0.153 C  
HETATM    3  H   UNL     1      -7.471  11.178  63.423  1.00  0.00     0.000 HD 
HETATM    4  C   UNL     1      -7.737   8.945  65.750  1.00  0.00    -0.094 C  
HETATM    5  C   UNL     1      -7.871   9.441  67.290  1.00  0.00    -0.099 C  
HETATM    6  C   UNL     1      -9.112  10.422  67.758  1.00  0.00    -0.131 C  
HETATM    7  O   UNL     1      -8.495  11.678  68.022  1.00  0.00    -0.137 OA 
HETATM    8  C   UNL     1     -10.405  10.248  68.800  1.00  0.00    -0.195 C  
HETATM    9  C   UNL     1     -11.231  11.499  69.105  1.00  0.00    -0.337 C  
HETATM   10  H   UNL     1      -9.210  12.243  68.292  1.00  0.00     0.000 HD 
HETATM   11  C   UNL     1     -11.508  12.117  67.747  1.00  0.00    -0.398 A  
HETATM   12  C   UNL     1     -12.139  13.349  67.645  1.00  0.00    -0.311 A  
HETATM   13  C   UNL     1     -12.090  14.065  66.434  1.00  0.00    -0.483 A  
HETATM   14  C   UNL     1     -11.431  13.515  65.312  1.00  0.00    -0.299 A  
HETATM   15  O   UNL     1     -11.131  14.348  64.269  1.00  0.00    -0.606 OA 
HETATM   16  C   UNL     1     -10.917  12.230  65.403  1.00  0.00    -0.301 A  
HETATM   17  H   UNL     1     -10.687  13.979  63.514  1.00  0.00     0.000 HD 
HETATM   18  C   UNL     1     -10.983  11.506  66.579  1.00  0.00    -0.346 A  
HETATM   19  C   UNL     1     -10.009  10.316  66.542  1.00  0.00    -0.280 C  
HETATM   20  C   UNL     1     -10.473   8.662  66.845  1.00  0.00    -0.329 C  
HETATM   21  C   UNL     1      -9.207  10.890  65.337  1.00  0.00    -0.207 C  
HETATM   22  O   UNL     1     -10.116  11.609  64.463  1.00  0.00    -0.255 OA 
HETATM   23  C   UNL     1     -10.262   8.045  68.519  1.00  0.00    -0.207 C  
HETATM   24  N   UNL     1     -10.389   9.061  69.613  1.00  0.00    -0.206 NA 
ENDROOT
BRANCH  24  25
HETATM   25  C   UNL     1      -9.452   9.299  70.708  1.00  0.00    -0.271 C  
BRANCH  25  26
HETATM   26  C   UNL     1      -9.791   8.670  72.056  1.00  0.00    -0.396 C  
HETATM   27  C   UNL     1     -11.339   8.439  72.234  1.00  0.00    -0.448 C  
HETATM   28  C   UNL     1     -10.971   7.299  73.200  1.00  0.00    -0.384 C  
HETATM   29  C   UNL     1      -9.680   7.134  72.354  1.00  0.00    -0.173 C  
ENDBRANCH  25  26
ENDBRANCH  24  25
TORSDOF 2
ENDMDL
MODEL       25
REMARK 921   NORMALIZED FREE ENERGY PREDICTED BY IDOCK:   -6.45 KCAL/MOL
REMARK 922        TOTAL FREE ENERGY PREDICTED BY IDOCK:   -7.75 KCAL/MOL
REMARK 923 INTER-LIGAND FREE ENERGY PREDICTED BY IDOCK:   -7.38 KCAL/MOL
REMARK 924 INTRA-LIGAND FREE ENERGY PREDICTED BY IDOCK:   -0.37 KCAL/MOL
REMARK 927      BINDING AFFINITY PREDICTED BY RF-SCORE:    0.00 PKD
ROOT
HETATM    1  O   UNL     1     -13.317  11.475  63.291  1.00  0.00    -0.513 OA 
HETATM    2  C   UNL     1     -12.110  12.234  63.517  1.00  0.00    -0.553 C  
HETATM    3  H   UNL     1     -13.074  10.566  63.160  1.00  0.00     0.000 HD 
HETATM    4  C   UNL     1     -12.503  13.701  63.728  1.00  0.00    -0.262 C  
HETATM    5  C   UNL     1     -12.500  14.223  65.265  1.00  0.00    -0.428 C  
HETATM    6  C   UNL     1     -11.457  13.587  66.373  1.00  0.00    -0.331 C  
HETATM    7  O   UNL     1     -12.285  12.828  67.249  1.00  0.00    -0.387 OA 
HETATM    8  C   UNL     1     -10.184  14.201  67.262  1.00  0.00    -0.256 C  
HETATM    9  C   UNL     1      -9.591  13.301  68.348  1.00  0.00    -0.185 C  
HETATM   10  H   UNL     1     -11.684  12.462  67.887  1.00  0.00     0.000 HD 
HETATM   11  C   UNL     1      -9.383  11.962  67.666  1.00  0.00    -0.183 A  
HETATM   12  C   UNL     1      -8.967  10.855  68.393  1.00  0.00    -0.154 A  
HETATM   13  C   UNL     1      -9.101   9.565  67.845  1.00  0.00    -0.131 A  
HETATM   14  C   UNL     1      -9.624   9.398  66.543  1.00  0.00    -0.208 A  
HETATM   15  O   UNL     1     -10.030   8.147  66.167  1.00  0.00    -0.463 OA 
HETATM   16  C   UNL     1      -9.916  10.527  65.792  1.00  0.00    -0.258 A  
HETATM   17  H   UNL     1     -10.382   8.035  65.292  1.00  0.00     0.000 HD 
HETATM   18  C   UNL     1      -9.763  11.800  66.309  1.00  0.00    -0.242 A  
HETATM   19  C   UNL     1     -10.519  12.831  65.454  1.00  0.00    -0.305 C  
HETATM   20  C   UNL     1      -9.792  14.263  64.775  1.00  0.00     0.191 C  
HETATM   21  C   UNL     1     -11.371  11.745  64.732  1.00  0.00    -0.249 C  
HETATM   22  O   UNL     1     -10.573  10.544  64.575  1.00  0.00    -0.246 OA 
HETATM   23  C   UNL     1      -9.943  15.785  65.717  1.00  0.00    -0.358 C  
HETATM   24  N   UNL     1     -10.023  15.630  67.206  1.00  0.00    -0.234 NA 
ENDROOT
BRANCH  24  25
HETATM   25  C   UNL     1     -11.018  16.213  68.102  1.00  0.00    -0.341 C  
BRANCH  25  26
HETATM   26  C   UNL     1     -10.803  17.664  68.521  1.00  0.00    -0.075 C  
HETATM   27  C   UNL     1      -9.276  18.025  68.658  1.00  0.00    -0.276 C  
HETATM   28  C   UNL     1      -9.680  19.479  68.354  1.00  0.00    -0.498 C  
HETATM   29  C   UNL     1     -10.845  18.875  67.524  1.00  0.00    -0.440 C  
ENDBRANCH  25  26
ENDBRANCH  24  25
TORSDOF 2
ENDMDL
MODEL       26
REMARK 921   NORMALIZED FREE ENERGY PREDICTED BY IDOCK:   -6.36 KCAL/MOL
REMARK 922        TOTAL FREE ENERGY PREDICTED BY IDOCK:   -7.64 KCAL/MOL
REMARK 923 INTER-LIGAND FREE ENERGY PREDICTED BY IDOCK:   -7.10 KCAL/MOL
REMARK 924 INTRA-LIGAND FREE ENERGY PREDICTED BY IDOCK:   -0.54 KCAL/MOL
REMARK 927      BINDING AFFINITY PREDICTED BY RF-SCORE:    0.00 PKD
ROOT
HETATM    1  O   UNL     1     -13.201  10.489  69.938  1.00  0.00    -0.470 OA 
HETATM    2  C   UNL     1     -11.814  10.797  69.681  1.00  0.00    -0.320 C  
HETATM    3  H   UNL     1     -13.732  11.177  69.553  1.00  0.00     0.000 HD 
HETATM    4  C   UNL     1     -10.958   9.687  70.302  1.00  0.00    -0.337 C  
HETATM    5  C   UNL     1     -10.365   8.585  69.268  1.00  0.00    -0.227 C  
HETATM    6  C   UNL     1     -10.003   8.994  67.711  1.00  0.00    -0.187 C  
HETATM    7  O   UNL     1     -10.995   8.336  66.929  1.00  0.00    -0.330 OA 
HETATM    8  C   UNL     1      -8.593   9.055  66.820  1.00  0.00    -0.123 C  
HETATM    9  C   UNL     1      -8.725   9.305  65.316  1.00  0.00    -0.214 C  
HETATM   10  H   UNL     1     -10.786   8.571  66.033  1.00  0.00     0.000 HD 
HETATM   11  C   UNL     1      -9.671  10.486  65.205  1.00  0.00    -0.328 A  
HETATM   12  C   UNL     1     -10.122  10.917  63.965  1.00  0.00    -0.419 A  
HETATM   13  C   UNL     1     -11.239  11.771  63.883  1.00  0.00    -0.493 A  
HETATM   14  C   UNL     1     -11.879  12.217  65.060  1.00  0.00    -0.357 A  
HETATM   15  O   UNL     1     -13.123  12.774  64.945  1.00  0.00    -0.833 OA 
HETATM   16  C   UNL     1     -11.334  11.872  66.288  1.00  0.00    -0.334 A  
HETATM   17  H   UNL     1     -13.554  13.074  65.737  1.00  0.00     0.000 HD 
HETATM   18  C   UNL     1     -10.221  11.057  66.382  1.00  0.00    -0.284 A  
HETATM   19  C   UNL     1     -10.068  10.505  67.810  1.00  0.00    -0.205 C  
HETATM   20  C   UNL     1      -8.618  10.652  68.766  1.00  0.00    -0.150 C  
HETATM   21  C   UNL     1     -11.530  10.870  68.207  1.00  0.00    -0.305 C  
HETATM   22  O   UNL     1     -11.915  12.090  67.523  1.00  0.00    -0.572 OA 
HETATM   23  C   UNL     1      -7.465   9.275  68.726  1.00  0.00    -0.076 C  
HETATM   24  N   UNL     1      -7.435   8.483  67.455  1.00  0.00    -0.092 NA 
ENDROOT
BRANCH  24  25
HETATM   25  C   UNL     1      -7.539   7.032  67.317  1.00  0.00    -0.108 C  
BRANCH  25  26
HETATM   26  C   UNL     1      -7.697   6.227  68.603  1.00  0.00    -0.101 C  
HETATM   27  C   UNL     1      -8.974   5.307  68.579  1.00  0.00    -0.118 C  
HETATM   28  C   UNL     1      -8.232   4.395  69.571  1.00  0.00    -0.065 C  
HETATM   29  C   UNL     1      -6.926   4.892  68.896  1.00  0.00    -0.052 C  
ENDBRANCH  25  26
ENDBRANCH  24  25
TORSDOF 2
ENDMDL
MODEL       27
REMARK 921   NORMALIZED FREE ENERGY PREDICTED BY IDOCK:   -6.22 KCAL/MOL
REMARK 922        TOTAL FREE ENERGY PREDICTED BY IDOCK:   -7.49 KCAL/MOL
REMARK 923 INTER-LIGAND FREE ENERGY PREDICTED BY IDOCK:   -6.96 KCAL/MOL
REMARK 924 INTRA-LIGAND FREE ENERGY PREDICTED BY IDOCK:   -0.53 KCAL/MOL
REMARK 927      BINDING AFFINITY PREDICTED BY RF-SCORE:    0.00 PKD
ROOT
HETATM    1  O   UNL     1     -12.382   5.358  72.987  1.00  0.00    -0.505 OA 
HETATM    2  C   UNL     1     -11.121   5.965  72.635  1.00  0.00    -0.280 C  
HETATM    3  H   UNL     1     -12.864   5.972  73.529  1.00  0.00     0.000 HD 
HETATM    4  C   UNL     1     -10.343   4.975  71.761  1.00  0.00    -0.268 C  
HETATM    5  C   UNL     1     -10.343   5.283  70.167  1.00  0.00    -0.354 C  
HETATM    6  C   UNL     1     -10.430   6.831  69.605  1.00  0.00    -0.214 C  
HETATM    7  O   UNL     1     -11.729   6.929  69.029  1.00  0.00    -0.484 OA 
HETATM    8  C   UNL     1      -9.399   7.814  68.734  1.00  0.00    -0.146 C  
HETATM    9  C   UNL     1      -9.959   9.150  68.239  1.00  0.00    -0.199 C  
HETATM   10  H   UNL     1     -11.779   7.820  68.705  1.00  0.00     0.000 HD 
HETATM   11  C   UNL     1     -10.641   9.754  69.452  1.00  0.00    -0.248 A  
HETATM   12  C   UNL     1     -11.374  10.927  69.339  1.00  0.00    -0.347 A  
HETATM   13  C   UNL     1     -12.269  11.296  70.362  1.00  0.00    -0.453 A  
HETATM   14  C   UNL     1     -12.395  10.494  71.517  1.00  0.00    -0.341 A  
HETATM   15  O   UNL     1     -13.476  10.699  72.330  1.00  0.00    -0.594 OA 
HETATM   16  C   UNL     1     -11.561   9.394  71.660  1.00  0.00    -0.396 A  
HETATM   17  H   UNL     1     -13.561  10.159  73.107  1.00  0.00     0.000 HD 
HETATM   18  C   UNL     1     -10.659   9.037  70.675  1.00  0.00    -0.290 A  
HETATM   19  C   UNL     1     -10.164   7.596  70.885  1.00  0.00    -0.202 C  
HETATM   20  C   UNL     1      -8.483   7.142  70.981  1.00  0.00    -0.129 C  
HETATM   21  C   UNL     1     -11.319   7.244  71.870  1.00  0.00    -0.254 C  
HETATM   22  O   UNL     1     -11.658   8.425  72.641  1.00  0.00    -0.385 OA 
HETATM   23  C   UNL     1      -7.697   6.582  69.466  1.00  0.00    -0.100 C  
HETATM   24  N   UNL     1      -8.234   7.165  68.195  1.00  0.00    -0.123 NA 
ENDROOT
BRANCH  24  25
HETATM   25  C   UNL     1      -8.657   6.438  67.001  1.00  0.00    -0.112 C  
BRANCH  25  26
HETATM   26  C   UNL     1      -8.303   4.956  66.934  1.00  0.00    -0.106 C  
HETATM   27  C   UNL     1      -9.569   4.050  66.700  1.00  0.00    -0.228 C  
HETATM   28  C   UNL     1      -8.614   3.029  66.056  1.00  0.00    -0.117 C  
HETATM   29  C   UNL     1      -7.746   4.249  65.648  1.00  0.00    -0.090 C  
ENDBRANCH  25  26
ENDBRANCH  24  25
TORSDOF 2
ENDMDL
MODEL       28
REMARK 921   NORMALIZED FREE ENERGY PREDICTED BY IDOCK:   -6.17 KCAL/MOL
REMARK 922        TOTAL FREE ENERGY PREDICTED BY IDOCK:   -7.43 KCAL/MOL
REMARK 923 INTER-LIGAND FREE ENERGY PREDICTED BY IDOCK:   -7.00 KCAL/MOL
REMARK 924 INTRA-LIGAND FREE ENERGY PREDICTED BY IDOCK:   -0.43 KCAL/MOL
REMARK 927      BINDING AFFINITY PREDICTED BY RF-SCORE:    0.00 PKD
ROOT
HETATM    1  O   UNL     1      -5.783   7.945  65.001  1.00  0.00    -0.037 OA 
HETATM    2  C   UNL     1      -7.143   7.590  65.328  1.00  0.00    -0.063 C  
HETATM    3  H   UNL     1      -5.770   8.275  64.110  1.00  0.00     0.000 HD 
HETATM    4  C   UNL     1      -7.164   7.056  66.764  1.00  0.00    -0.076 C  
HETATM    5  C   UNL     1      -7.710   8.085  67.896  1.00  0.00    -0.114 C  
HETATM    6  C   UNL     1      -8.850   9.219  67.528  1.00  0.00    -0.118 C  
HETATM    7  O   UNL     1      -8.149  10.458  67.578  1.00  0.00    -0.107 OA 
HETATM    8  C   UNL     1     -10.423   9.491  68.016  1.00  0.00    -0.230 C  
HETATM    9  C   UNL     1     -11.077  10.801  67.571  1.00  0.00    -0.374 C  
HETATM   10  H   UNL     1      -8.805  11.112  67.366  1.00  0.00     0.000 HD 
HETATM   11  C   UNL     1     -10.781  10.893  66.085  1.00  0.00    -0.225 A  
HETATM   12  C   UNL     1     -11.123  12.029  65.365  1.00  0.00    -0.369 A  
HETATM   13  C   UNL     1     -10.557  12.252  64.095  1.00  0.00    -0.408 A  
HETATM   14  C   UNL     1      -9.670  11.304  63.539  1.00  0.00    -0.336 A  
HETATM   15  O   UNL     1      -8.906  11.686  62.471  1.00  0.00    -0.567 OA 
HETATM   16  C   UNL     1      -9.442  10.120  64.225  1.00  0.00    -0.305 A  
HETATM   17  H   UNL     1      -8.308  11.049  62.096  1.00  0.00     0.000 HD 
HETATM   18  C   UNL     1     -10.014   9.877  65.460  1.00  0.00    -0.363 A  
HETATM   19  C   UNL     1      -9.301   8.716  66.173  1.00  0.00    -0.291 C  
HETATM   20  C   UNL     1     -10.113   7.307  66.802  1.00  0.00    -0.291 C  
HETATM   21  C   UNL     1      -8.061   8.777  65.231  1.00  0.00    -0.129 C  
HETATM   22  O   UNL     1      -8.494   9.166  63.903  1.00  0.00    -0.178 OA 
HETATM   23  C   UNL     1     -10.574   7.333  68.538  1.00  0.00    -0.175 C  
HETATM   24  N   UNL     1     -10.878   8.682  69.115  1.00  0.00    -0.110 NA 
ENDROOT
BRANCH  24  25
HETATM   25  C   UNL     1     -10.328   9.263  70.337  1.00  0.00    -0.240 C  
BRANCH  25  26
HETATM   26  C   UNL     1     -11.312   9.560  71.464  1.00  0.00    -0.456 C  
HETATM   27  C   UNL     1     -12.610  10.286  70.947  1.00  0.00    -0.465 C  
HETATM   28  C   UNL     1     -13.334   9.670  72.158  1.00  0.00    -0.545 C  
HETATM   29  C   UNL     1     -12.316   8.503  72.045  1.00  0.00    -0.423 C  
ENDBRANCH  25  26
ENDBRANCH  24  25
TORSDOF 2
ENDMDL
MODEL       29
REMARK 921   NORMALIZED FREE ENERGY PREDICTED BY IDOCK:   -6.15 KCAL/MOL
REMARK 922        TOTAL FREE ENERGY PREDICTED BY IDOCK:   -7.41 KCAL/MOL
REMARK 923 INTER-LIGAND FREE ENERGY PREDICTED BY IDOCK:   -6.92 KCAL/MOL
REMARK 924 INTRA-LIGAND FREE ENERGY PREDICTED BY IDOCK:   -0.49 KCAL/MOL
REMARK 927      BINDING AFFINITY PREDICTED BY RF-SCORE:    0.00 PKD
ROOT
HETATM    1  O   UNL     1     -12.323  13.006  71.607  1.00  0.00    -0.127 OA 
HETATM    2  C   UNL     1     -12.536  13.294  70.209  1.00  0.00    -0.185 C  
HETATM    3  H   UNL     1     -12.579  12.105  71.766  1.00  0.00     0.000 HD 
HETATM    4  C   UNL     1     -12.123  14.748  69.954  1.00  0.00    -0.381 C  
HETATM    5  C   UNL     1     -10.679  14.962  69.243  1.00  0.00    -0.253 C  
HETATM    6  C   UNL     1     -10.082  13.844  68.188  1.00  0.00    -0.250 C  
HETATM    7  O   UNL     1      -8.994  13.241  68.883  1.00  0.00    -0.383 OA 
HETATM    8  C   UNL     1      -9.714  13.858  66.559  1.00  0.00    -0.294 C  
HETATM    9  C   UNL     1      -8.979  12.640  65.997  1.00  0.00     0.201 C  
HETATM   10  H   UNL     1      -8.650  12.598  68.275  1.00  0.00     0.000 HD 
HETATM   11  C   UNL     1      -9.752  11.447  66.527  1.00  0.00    -0.226 A  
HETATM   12  C   UNL     1      -9.291  10.155  66.315  1.00  0.00    -0.214 A  
HETATM   13  C   UNL     1      -9.807   9.091  67.079  1.00  0.00    -0.270 A  
HETATM   14  C   UNL     1     -10.819   9.331  68.035  1.00  0.00    -0.106 A  
HETATM   15  O   UNL     1     -11.072   8.359  68.964  1.00  0.00    -0.430 OA 
HETATM   16  C   UNL     1     -11.349  10.609  68.140  1.00  0.00    -0.284 A  
HETATM   17  H   UNL     1     -11.752   8.520  69.607  1.00  0.00     0.000 HD 
HETATM   18  C   UNL     1     -10.869  11.656  67.375  1.00  0.00    -0.298 A  
HETATM   19  C   UNL     1     -11.323  13.007  67.955  1.00  0.00    -0.327 C  
HETATM   20  C   UNL     1     -12.158  14.234  67.039  1.00  0.00    -0.424 C  
HETATM   21  C   UNL     1     -11.718  12.390  69.329  1.00  0.00    -0.329 C  
HETATM   22  O   UNL     1     -12.223  11.047  69.117  1.00  0.00    -0.434 OA 
HETATM   23  C   UNL     1     -11.158  15.534  66.307  1.00  0.00    -0.177 C  
HETATM   24  N   UNL     1      -9.760  15.150  65.927  1.00  0.00    -0.331 NA 
ENDROOT
BRANCH  24  25
HETATM   25  C   UNL     1      -8.526  15.849  66.280  1.00  0.00    -0.267 C  
BRANCH  25  26
HETATM   26  C   UNL     1      -8.656  17.312  66.689  1.00  0.00    -0.286 C  
HETATM   27  C   UNL     1      -8.299  17.542  68.205  1.00  0.00    -0.265 C  
HETATM   28  C   UNL     1      -7.919  18.980  67.810  1.00  0.00    -0.292 C  
HETATM   29  C   UNL     1      -7.551  18.393  66.421  1.00  0.00    -0.282 C  
ENDBRANCH  25  26
ENDBRANCH  24  25
TORSDOF 2
ENDMDL
MODEL       30
REMARK 921   NORMALIZED FREE ENERGY PREDICTED BY IDOCK:   -6.12 KCAL/MOL
REMARK 922        TOTAL FREE ENERGY PREDICTED BY IDOCK:   -7.38 KCAL/MOL
REMARK 923 INTER-LIGAND FREE ENERGY PREDICTED BY IDOCK:   -7.04 KCAL/MOL
REMARK 924 INTRA-LIGAND FREE ENERGY PREDICTED BY IDOCK:   -0.34 KCAL/MOL
REMARK 927      BINDING AFFINITY PREDICTED BY RF-SCORE:    0.00 PKD
ROOT
HETATM    1  O   UNL     1      -9.493   9.575  67.357  1.00  0.00    -0.132 OA 
HETATM    2  C   UNL     1     -10.273  10.628  67.960  1.00  0.00    -0.175 C  
HETATM    3  H   UNL     1     -10.021   9.166  66.680  1.00  0.00     0.000 HD 
HETATM    4  C   UNL     1      -9.421  11.286  69.052  1.00  0.00    -0.030 C  
HETATM    5  C   UNL     1      -8.751  12.713  68.666  1.00  0.00     0.049 C  
HETATM    6  C   UNL     1      -9.496  13.740  67.611  1.00  0.00    -0.217 C  
HETATM    7  O   UNL     1      -8.682  13.705  66.443  1.00  0.00    -0.443 OA 
HETATM    8  C   UNL     1     -10.153  15.269  67.742  1.00  0.00    -0.230 C  
HETATM    9  C   UNL     1     -10.581  15.960  66.446  1.00  0.00    -0.298 C  
HETATM   10  H   UNL     1      -9.110  14.297  65.836  1.00  0.00     0.000 HD 
HETATM   11  C   UNL     1     -11.390  14.914  65.702  1.00  0.00    -0.325 A  
HETATM   12  C   UNL     1     -11.840  15.156  64.411  1.00  0.00    -0.314 A  
HETATM   13  C   UNL     1     -12.284  14.085  63.611  1.00  0.00    -0.145 A  
HETATM   14  C   UNL     1     -12.305  12.772  64.132  1.00  0.00    -0.407 A  
HETATM   15  O   UNL     1     -12.436  11.732  63.253  1.00  0.00    -0.822 OA 
HETATM   16  C   UNL     1     -11.967  12.577  65.463  1.00  0.00    -0.442 A  
HETATM   17  H   UNL     1     -12.449  10.849  63.603  1.00  0.00     0.000 HD 
HETATM   18  C   UNL     1     -11.556  13.624  66.267  1.00  0.00    -0.372 A  
HETATM   19  C   UNL     1     -10.866  13.099  67.538  1.00  0.00    -0.269 C  
HETATM   20  C   UNL     1     -11.327  13.549  69.158  1.00  0.00    -0.333 C  
HETATM   21  C   UNL     1     -10.667  11.670  66.950  1.00  0.00    -0.257 C  
HETATM   22  O   UNL     1     -11.786  11.355  66.083  1.00  0.00    -0.218 OA 
HETATM   23  C   UNL     1     -10.426  14.903  69.921  1.00  0.00    -0.084 C  
HETATM   24  N   UNL     1      -9.898  15.948  68.985  1.00  0.00    -0.220 NA 
ENDROOT
BRANCH  24  25
HETATM   25  C   UNL     1      -8.534  16.467  68.922  1.00  0.00    -0.247 C  
BRANCH  25  26
HETATM   26  C   UNL     1      -8.370  17.931  68.529  1.00  0.00    -0.305 C  
HETATM   27  C   UNL     1      -6.913  18.463  68.802  1.00  0.00    -0.291 C  
HETATM   28  C   UNL     1      -7.167  19.483  67.678  1.00  0.00    -0.273 C  
HETATM   29  C   UNL     1      -8.110  18.416  67.060  1.00  0.00    -0.239 C  
ENDBRANCH  25  26
ENDBRANCH  24  25
TORSDOF 2
ENDMDL
MODEL       31
REMARK 921   NORMALIZED FREE ENERGY PREDICTED BY IDOCK:   -6.08 KCAL/MOL
REMARK 922        TOTAL FREE ENERGY PREDICTED BY IDOCK:   -7.33 KCAL/MOL
REMARK 923 INTER-LIGAND FREE ENERGY PREDICTED BY IDOCK:   -7.05 KCAL/MOL
REMARK 924 INTRA-LIGAND FREE ENERGY PREDICTED BY IDOCK:   -0.28 KCAL/MOL
REMARK 927      BINDING AFFINITY PREDICTED BY RF-SCORE:    0.00 PKD
ROOT
HETATM    1  O   UNL     1      -7.297  10.803  68.742  1.00  0.00    -0.088 OA 
HETATM    2  C   UNL     1      -8.381   9.873  68.535  1.00  0.00    -0.108 C  
HETATM    3  H   UNL     1      -7.616  11.677  68.548  1.00  0.00     0.000 HD 
HETATM    4  C   UNL     1      -7.866   8.463  68.848  1.00  0.00    -0.113 C  
HETATM    5  C   UNL     1      -8.304   7.850  70.286  1.00  0.00    -0.126 C  
HETATM    6  C   UNL     1      -9.741   8.267  70.980  1.00  0.00    -0.163 C  
HETATM    7  O   UNL     1      -9.378   9.076  72.095  1.00  0.00    -0.356 OA 
HETATM    8  C   UNL     1     -11.130   7.429  71.376  1.00  0.00    -0.239 C  
HETATM    9  C   UNL     1     -12.181   8.169  72.206  1.00  0.00    -0.397 C  
HETATM   10  H   UNL     1     -10.205   9.315  72.495  1.00  0.00     0.000 HD 
HETATM   11  C   UNL     1     -12.348   9.507  71.511  1.00  0.00    -0.465 A  
HETATM   12  C   UNL     1     -13.144  10.499  72.067  1.00  0.00    -0.511 A  
HETATM   13  C   UNL     1     -13.030  11.827  71.613  1.00  0.00    -0.467 A  
HETATM   14  C   UNL     1     -12.133  12.145  70.570  1.00  0.00    -0.293 A  
HETATM   15  O   UNL     1     -11.818  13.461  70.370  1.00  0.00    -0.477 OA 
HETATM   16  C   UNL     1     -11.440  11.116  69.948  1.00  0.00    -0.306 A  
HETATM   17  H   UNL     1     -11.214  13.676  69.668  1.00  0.00     0.000 HD 
HETATM   18  C   UNL     1     -11.564   9.804  70.366  1.00  0.00    -0.327 A  
HETATM   19  C   UNL     1     -10.419   8.943  69.807  1.00  0.00    -0.217 C  
HETATM   20  C   UNL     1     -10.654   7.470  68.904  1.00  0.00    -0.184 C  
HETATM   21  C   UNL     1      -9.549  10.179  69.432  1.00  0.00    -0.232 C  
HETATM   22  O   UNL     1     -10.420  11.266  69.028  1.00  0.00    -0.212 OA 
HETATM   23  C   UNL     1     -10.599   5.927  69.822  1.00  0.00    -0.303 C  
HETATM   24  N   UNL     1     -11.047   5.998  71.250  1.00  0.00    -0.283 NA 
ENDROOT
BRANCH  24  25
HETATM   25  C   UNL     1     -10.333   5.502  72.424  1.00  0.00    -0.206 C  
BRANCH  25  26
HETATM   26  C   UNL     1     -10.953   4.318  73.159  1.00  0.00    -0.300 C  
HETATM   27  C   UNL     1     -10.434   2.937  72.610  1.00  0.00    -0.180 C  
HETATM   28  C   UNL     1     -10.741   2.364  74.005  1.00  0.00    -0.247 C  
HETATM   29  C   UNL     1     -10.443   3.788  74.545  1.00  0.00    -0.249 C  
ENDBRANCH  25  26
ENDBRANCH  24  25
TORSDOF 2
ENDMDL
MODEL       32
REMARK 921   NORMALIZED FREE ENERGY PREDICTED BY IDOCK:   -6.07 KCAL/MOL
REMARK 922        TOTAL FREE ENERGY PREDICTED BY IDOCK:   -7.32 KCAL/MOL
REMARK 923 INTER-LIGAND FREE ENERGY PREDICTED BY IDOCK:   -6.90 KCAL/MOL
REMARK 924 INTRA-LIGAND FREE ENERGY PREDICTED BY IDOCK:   -0.42 KCAL/MOL
REMARK 927      BINDING AFFINITY PREDICTED BY RF-SCORE:    0.00 PKD
ROOT
HETATM    1  O   UNL     1      -7.406  12.973  67.062  1.00  0.00    -0.367 OA 
HETATM    2  C   UNL     1      -8.501  12.055  66.862  1.00  0.00    -0.172 C  
HETATM    3  H   UNL     1      -7.761  13.853  67.102  1.00  0.00     0.000 HD 
HETATM    4  C   UNL     1      -7.927  10.635  66.796  1.00  0.00    -0.132 C  
HETATM    5  C   UNL     1      -8.102   9.737  68.137  1.00  0.00    -0.108 C  
HETATM    6  C   UNL     1      -9.398   9.948  69.135  1.00  0.00    -0.193 C  
HETATM    7  O   UNL     1      -8.852  10.540  70.310  1.00  0.00    -0.198 OA 
HETATM    8  C   UNL     1     -10.689   8.991  69.587  1.00  0.00    -0.219 C  
HETATM    9  C   UNL     1     -11.584   9.510  70.714  1.00  0.00    -0.378 C  
HETATM   10  H   UNL     1      -9.598  10.662  70.884  1.00  0.00     0.000 HD 
HETATM   11  C   UNL     1     -11.881  10.949  70.337  1.00  0.00    -0.449 A  
HETATM   12  C   UNL     1     -12.576  11.779  71.206  1.00  0.00    -0.401 A  
HETATM   13  C   UNL     1     -12.555  13.174  71.012  1.00  0.00    -0.397 A  
HETATM   14  C   UNL     1     -11.857  13.727  69.915  1.00  0.00    -0.327 A  
HETATM   15  O   UNL     1     -11.593  15.068  69.930  1.00  0.00    -0.258 OA 
HETATM   16  C   UNL     1     -11.276  12.868  68.993  1.00  0.00    -0.267 A  
HETATM   17  H   UNL     1     -11.124  15.441  69.192  1.00  0.00     0.000 HD 
HETATM   18  C   UNL     1     -11.314  11.496  69.158  1.00  0.00    -0.351 A  
HETATM   19  C   UNL     1     -10.277  10.809  68.252  1.00  0.00    -0.187 C  
HETATM   20  C   UNL     1     -10.654   9.531  67.128  1.00  0.00    -0.295 C  
HETATM   21  C   UNL     1      -9.496  12.131  67.987  1.00  0.00    -0.201 C  
HETATM   22  O   UNL     1     -10.434  13.238  67.961  1.00  0.00    -0.230 OA 
HETATM   23  C   UNL     1     -10.426   7.843  67.699  1.00  0.00    -0.234 C  
HETATM   24  N   UNL     1     -10.617   7.617  69.168  1.00  0.00    -0.211 NA 
ENDROOT
BRANCH  24  25
HETATM   25  C   UNL     1      -9.704   6.933  70.081  1.00  0.00    -0.171 C  
BRANCH  25  26
HETATM   26  C   UNL     1     -10.313   5.892  71.015  1.00  0.00    -0.281 C  
HETATM   27  C   UNL     1      -9.621   5.882  72.429  1.00  0.00    -0.168 C  
HETATM   28  C   UNL     1     -10.949   5.335  72.981  1.00  0.00    -0.354 C  
HETATM   29  C   UNL     1     -11.634   6.120  71.830  1.00  0.00    -0.352 C  
ENDBRANCH  25  26
ENDBRANCH  24  25
TORSDOF 2
ENDMDL
MODEL       33
REMARK 921   NORMALIZED FREE ENERGY PREDICTED BY IDOCK:   -6.05 KCAL/MOL
REMARK 922        TOTAL FREE ENERGY PREDICTED BY IDOCK:   -7.30 KCAL/MOL
REMARK 923 INTER-LIGAND FREE ENERGY PREDICTED BY IDOCK:   -7.05 KCAL/MOL
REMARK 924 INTRA-LIGAND FREE ENERGY PREDICTED BY IDOCK:   -0.25 KCAL/MOL
REMARK 927      BINDING AFFINITY PREDICTED BY RF-SCORE:    0.00 PKD
ROOT
HETATM    1  O   UNL     1      -5.657  12.983  67.693  1.00  0.00    -0.138 OA 
HETATM    2  C   UNL     1      -6.897  13.401  67.084  1.00  0.00     0.305 C  
HETATM    3  H   UNL     1      -4.974  13.582  67.415  1.00  0.00     0.000 HD 
HETATM    4  C   UNL     1      -7.998  12.434  67.533  1.00  0.00    -0.173 C  
HETATM    5  C   UNL     1      -8.990  12.979  68.697  1.00  0.00     0.054 C  
HETATM    6  C   UNL     1      -9.340  14.585  68.827  1.00  0.00    -0.177 C  
HETATM    7  O   UNL     1      -8.673  15.002  70.015  1.00  0.00    -0.393 OA 
HETATM    8  C   UNL     1     -10.734  15.491  68.669  1.00  0.00    -0.252 C  
HETATM    9  C   UNL     1     -10.660  16.965  69.074  1.00  0.00    -0.338 C  
HETATM   10  H   UNL     1      -8.874  15.927  70.090  1.00  0.00     0.000 HD 
HETATM   11  C   UNL     1      -9.408  17.487  68.395  1.00  0.00    -0.287 A  
HETATM   12  C   UNL     1      -8.955  18.776  68.642  1.00  0.00    -0.368 A  
HETATM   13  C   UNL     1      -7.640  19.137  68.290  1.00  0.00    -0.339 A  
HETATM   14  C   UNL     1      -6.794  18.202  67.654  1.00  0.00    -0.197 A  
HETATM   15  O   UNL     1      -5.454  18.470  67.612  1.00  0.00    -0.157 OA 
HETATM   16  C   UNL     1      -7.312  16.962  67.307  1.00  0.00    -0.169 A  
HETATM   17  H   UNL     1      -4.884  17.840  67.185  1.00  0.00     0.000 HD 
HETATM   18  C   UNL     1      -8.610  16.605  67.622  1.00  0.00    -0.207 A  
HETATM   19  C   UNL     1      -8.802  15.084  67.502  1.00  0.00    -0.193 C  
HETATM   20  C   UNL     1     -10.048  14.328  66.544  1.00  0.00    -0.283 C  
HETATM   21  C   UNL     1      -7.271  14.797  67.498  1.00  0.00    -0.197 C  
HETATM   22  O   UNL     1      -6.588  15.887  66.827  1.00  0.00    -0.254 OA 
HETATM   23  C   UNL     1     -11.569  13.876  67.385  1.00  0.00    -0.368 C  
HETATM   24  N   UNL     1     -11.952  14.735  68.552  1.00  0.00    -0.286 NA 
ENDROOT
BRANCH  24  25
HETATM   25  C   UNL     1     -12.315  14.287  69.895  1.00  0.00    -0.324 C  
BRANCH  25  26
HETATM   26  C   UNL     1     -12.912  15.332  70.832  1.00  0.00    -0.522 C  
HETATM   27  C   UNL     1     -14.082  14.748  71.708  1.00  0.00    -0.598 C  
HETATM   28  C   UNL     1     -13.733  15.831  72.744  1.00  0.00    -0.639 C  
HETATM   29  C   UNL     1     -12.279  15.729  72.212  1.00  0.00    -0.555 C  
ENDBRANCH  25  26
ENDBRANCH  24  25
TORSDOF 2
ENDMDL
MODEL       34
REMARK 921   NORMALIZED FREE ENERGY PREDICTED BY IDOCK:   -6.04 KCAL/MOL
REMARK 922        TOTAL FREE ENERGY PREDICTED BY IDOCK:   -7.28 KCAL/MOL
REMARK 923 INTER-LIGAND FREE ENERGY PREDICTED BY IDOCK:   -6.90 KCAL/MOL
REMARK 924 INTRA-LIGAND FREE ENERGY PREDICTED BY IDOCK:   -0.38 KCAL/MOL
REMARK 927      BINDING AFFINITY PREDICTED BY RF-SCORE:    0.00 PKD
ROOT
HETATM    1  O   UNL     1      -6.261   9.392  67.889  1.00  0.00    -0.053 OA 
HETATM    2  C   UNL     1      -7.703   9.320  67.901  1.00  0.00    -0.088 C  
HETATM    3  H   UNL     1      -5.945   8.851  67.175  1.00  0.00     0.000 HD 
HETATM    4  C   UNL     1      -8.213  10.192  69.054  1.00  0.00    -0.132 C  
HETATM    5  C   UNL     1      -8.807  11.644  68.637  1.00  0.00    -0.084 C  
HETATM    6  C   UNL     1      -9.543  11.870  67.178  1.00  0.00    -0.186 C  
HETATM    7  O   UNL     1      -8.634  12.683  66.441  1.00  0.00    -0.417 OA 
HETATM    8  C   UNL     1     -11.094  12.264  66.704  1.00  0.00    -0.297 C  
HETATM    9  C   UNL     1     -11.316  12.574  65.222  1.00  0.00    -0.363 C  
HETATM   10  H   UNL     1      -9.057  12.813  65.601  1.00  0.00     0.000 HD 
HETATM   11  C   UNL     1     -10.627  11.441  64.485  1.00  0.00    -0.390 A  
HETATM   12  C   UNL     1     -10.519  11.459  63.101  1.00  0.00    -0.323 A  
HETATM   13  C   UNL     1      -9.605  10.604  62.457  1.00  0.00    -0.246 A  
HETATM   14  C   UNL     1      -8.824   9.702  63.213  1.00  0.00    -0.238 A  
HETATM   15  O   UNL     1      -7.743   9.122  62.609  1.00  0.00    -0.112 OA 
HETATM   16  C   UNL     1      -9.041   9.616  64.581  1.00  0.00    -0.235 A  
HETATM   17  H   UNL     1      -7.217   8.515  63.117  1.00  0.00     0.000 HD 
HETATM   18  C   UNL     1      -9.955  10.432  65.221  1.00  0.00    -0.376 A  
HETATM   19  C   UNL     1      -9.717  10.430  66.741  1.00  0.00    -0.224 C  
HETATM   20  C   UNL     1     -10.946  10.066  67.924  1.00  0.00    -0.311 C  
HETATM   21  C   UNL     1      -8.290   9.820  66.611  1.00  0.00    -0.124 C  
HETATM   22  O   UNL     1      -8.266   8.909  65.482  1.00  0.00    -0.115 OA 
HETATM   23  C   UNL     1     -11.831  11.454  68.642  1.00  0.00    -0.310 C  
HETATM   24  N   UNL     1     -11.983  12.659  67.763  1.00  0.00    -0.374 NA 
ENDROOT
BRANCH  24  25
HETATM   25  C   UNL     1     -11.664  14.044  68.103  1.00  0.00    -0.352 C  
BRANCH  25  26
HETATM   26  C   UNL     1     -11.532  14.378  69.585  1.00  0.00    -0.331 C  
HETATM   27  C   UNL     1     -11.316  15.918  69.832  1.00  0.00    -0.348 C  
HETATM   28  C   UNL     1     -11.953  15.698  71.216  1.00  0.00    -0.467 C  
HETATM   29  C   UNL     1     -12.756  14.547  70.552  1.00  0.00    -0.404 C  
ENDBRANCH  25  26
ENDBRANCH  24  25
TORSDOF 2
ENDMDL
MODEL       35
REMARK 921   NORMALIZED FREE ENERGY PREDICTED BY IDOCK:   -5.96 KCAL/MOL
REMARK 922        TOTAL FREE ENERGY PREDICTED BY IDOCK:   -7.20 KCAL/MOL
REMARK 923 INTER-LIGAND FREE ENERGY PREDICTED BY IDOCK:   -6.70 KCAL/MOL
REMARK 924 INTRA-LIGAND FREE ENERGY PREDICTED BY IDOCK:   -0.50 KCAL/MOL
REMARK 927      BINDING AFFINITY PREDICTED BY RF-SCORE:    0.00 PKD
ROOT
HETATM    1  O   UNL     1      -8.276  10.842  64.528  1.00  0.00    -0.369 OA 
HETATM    2  C   UNL     1      -9.287  10.009  65.134  1.00  0.00    -0.245 C  
HETATM    3  H   UNL     1      -8.694  11.641  64.227  1.00  0.00     0.000 HD 
HETATM    4  C   UNL     1      -8.613   8.719  65.618  1.00  0.00    -0.195 C  
HETATM    5  C   UNL     1      -8.320   8.627  67.212  1.00  0.00    -0.108 C  
HETATM    6  C   UNL     1      -9.306   9.381  68.298  1.00  0.00    -0.133 C  
HETATM    7  O   UNL     1      -8.520  10.453  68.811  1.00  0.00    -0.116 OA 
HETATM    8  C   UNL     1     -10.320   8.851  69.515  1.00  0.00    -0.213 C  
HETATM    9  C   UNL     1     -10.918   9.914  70.439  1.00  0.00    -0.379 C  
HETATM   10  H   UNL     1      -9.088  10.886  69.436  1.00  0.00     0.000 HD 
HETATM   11  C   UNL     1     -11.450  10.982  69.503  1.00  0.00    -0.370 A  
HETATM   12  C   UNL     1     -11.959  12.172  70.005  1.00  0.00    -0.391 A  
HETATM   13  C   UNL     1     -12.132  13.277  69.149  1.00  0.00    -0.283 A  
HETATM   14  C   UNL     1     -11.823  13.166  67.775  1.00  0.00    -0.348 A  
HETATM   15  O   UNL     1     -11.701  14.317  67.047  1.00  0.00    -0.366 OA 
HETATM   16  C   UNL     1     -11.434  11.931  67.277  1.00  0.00    -0.317 A  
HETATM   17  H   UNL     1     -11.493  14.242  66.123  1.00  0.00     0.000 HD 
HETATM   18  C   UNL     1     -11.287  10.831  68.102  1.00  0.00    -0.377 A  
HETATM   19  C   UNL     1     -10.476   9.728  67.401  1.00  0.00    -0.319 C  
HETATM   20  C   UNL     1     -11.017   8.080  67.221  1.00  0.00     0.030 C  
HETATM   21  C   UNL     1      -9.936  10.693  66.305  1.00  0.00    -0.222 C  
HETATM   22  O   UNL     1     -10.951  11.685  66.006  1.00  0.00    -0.289 OA 
HETATM   23  C   UNL     1     -10.472   6.898  68.459  1.00  0.00    -0.203 C  
HETATM   24  N   UNL     1     -10.228   7.451  69.831  1.00  0.00    -0.206 NA 
ENDROOT
BRANCH  24  25
HETATM   25  C   UNL     1      -9.035   7.270  70.654  1.00  0.00    -0.156 C  
BRANCH  25  26
HETATM   26  C   UNL     1      -9.244   6.712  72.058  1.00  0.00    -0.142 C  
HETATM   27  C   UNL     1      -9.468   7.848  73.125  1.00  0.00    -0.344 C  
HETATM   28  C   UNL     1     -10.252   6.808  73.944  1.00  0.00    -0.396 C  
HETATM   29  C   UNL     1     -10.616   6.159  72.581  1.00  0.00    -0.246 C  
ENDBRANCH  25  26
ENDBRANCH  24  25
TORSDOF 2
ENDMDL
MODEL       36
REMARK 921   NORMALIZED FREE ENERGY PREDICTED BY IDOCK:   -5.95 KCAL/MOL
REMARK 922        TOTAL FREE ENERGY PREDICTED BY IDOCK:   -7.19 KCAL/MOL
REMARK 923 INTER-LIGAND FREE ENERGY PREDICTED BY IDOCK:   -6.69 KCAL/MOL
REMARK 924 INTRA-LIGAND FREE ENERGY PREDICTED BY IDOCK:   -0.50 KCAL/MOL
REMARK 927      BINDING AFFINITY PREDICTED BY RF-SCORE:    0.00 PKD
ROOT
HETATM    1  O   UNL     1     -12.595  10.838  68.901  1.00  0.00    -0.735 OA 
HETATM    2  C   UNL     1     -11.469  10.440  69.711  1.00  0.00    -0.280 C  
HETATM    3  H   UNL     1     -12.281  10.998  68.018  1.00  0.00     0.000 HD 
HETATM    4  C   UNL     1     -11.975  10.182  71.135  1.00  0.00    -0.480 C  
HETATM    5  C   UNL     1     -12.162   8.624  71.551  1.00  0.00    -0.368 C  
HETATM    6  C   UNL     1     -11.197   7.454  70.903  1.00  0.00    -0.270 C  
HETATM    7  O   UNL     1     -12.058   6.719  70.039  1.00  0.00    -0.650 OA 
HETATM    8  C   UNL     1     -10.063   6.400  71.528  1.00  0.00    -0.192 C  
HETATM    9  C   UNL     1      -9.525   5.315  70.592  1.00  0.00    -0.222 C  
HETATM   10  H   UNL     1     -11.503   6.045  69.666  1.00  0.00     0.000 HD 
HETATM   11  C   UNL     1      -9.163   6.053  69.317  1.00  0.00    -0.133 A  
HETATM   12  C   UNL     1      -8.752   5.355  68.189  1.00  0.00    -0.105 A  
HETATM   13  C   UNL     1      -8.746   5.993  66.934  1.00  0.00    -0.112 A  
HETATM   14  C   UNL     1      -9.123   7.350  66.826  1.00  0.00    -0.151 A  
HETATM   15  O   UNL     1      -9.407   7.843  65.582  1.00  0.00    -0.404 OA 
HETATM   16  C   UNL     1      -9.410   8.057  67.984  1.00  0.00    -0.138 A  
HETATM   17  H   UNL     1      -9.661   8.756  65.509  1.00  0.00     0.000 HD 
HETATM   18  C   UNL     1      -9.392   7.449  69.226  1.00  0.00    -0.154 A  
HETATM   19  C   UNL     1     -10.124   8.314  70.267  1.00  0.00    -0.195 C  
HETATM   20  C   UNL     1      -9.426   8.823  71.782  1.00  0.00    -0.363 C  
HETATM   21  C   UNL     1     -10.826   9.187  69.184  1.00  0.00    -0.110 C  
HETATM   22  O   UNL     1      -9.940   9.332  68.046  1.00  0.00    -0.166 OA 
HETATM   23  C   UNL     1      -9.771   7.810  73.225  1.00  0.00    -0.294 C  
HETATM   24  N   UNL     1      -9.990   6.351  72.964  1.00  0.00    -0.169 NA 
ENDROOT
BRANCH  24  25
HETATM   25  C   UNL     1     -11.107   5.530  73.427  1.00  0.00    -0.228 C  
BRANCH  25  26
HETATM   26  C   UNL     1     -10.758   4.211  74.108  1.00  0.00    -0.289 C  
HETATM   27  C   UNL     1     -11.512   2.989  73.463  1.00  0.00    -0.176 C  
HETATM   28  C   UNL     1     -10.343   2.117  73.956  1.00  0.00    -0.185 C  
HETATM   29  C   UNL     1      -9.462   3.384  73.795  1.00  0.00    -0.119 C  
ENDBRANCH  25  26
ENDBRANCH  24  25
TORSDOF 2
ENDMDL
MODEL       37
REMARK 921   NORMALIZED FREE ENERGY PREDICTED BY IDOCK:   -5.89 KCAL/MOL
REMARK 922        TOTAL FREE ENERGY PREDICTED BY IDOCK:   -7.12 KCAL/MOL
REMARK 923 INTER-LIGAND FREE ENERGY PREDICTED BY IDOCK:   -6.84 KCAL/MOL
REMARK 924 INTRA-LIGAND FREE ENERGY PREDICTED BY IDOCK:   -0.28 KCAL/MOL
REMARK 927      BINDING AFFINITY PREDICTED BY RF-SCORE:    0.00 PKD
ROOT
HETATM    1  O   UNL     1      -6.532   9.393  64.753  1.00  0.00    -0.074 OA 
HETATM    2  C   UNL     1      -7.777   8.882  65.273  1.00  0.00    -0.100 C  
HETATM    3  H   UNL     1      -6.719   9.866  63.950  1.00  0.00     0.000 HD 
HETATM    4  C   UNL     1      -7.475   8.119  66.567  1.00  0.00    -0.088 C  
HETATM    5  C   UNL     1      -7.820   8.900  67.948  1.00  0.00    -0.102 C  
HETATM    6  C   UNL     1      -9.060   9.985  68.020  1.00  0.00    -0.131 C  
HETATM    7  O   UNL     1      -8.420  11.251  68.150  1.00  0.00    -0.132 OA 
HETATM    8  C   UNL     1     -10.508  10.046  68.848  1.00  0.00    -0.210 C  
HETATM    9  C   UNL     1     -11.298  11.355  68.781  1.00  0.00    -0.334 C  
HETATM   10  H   UNL     1      -9.134  11.876  68.191  1.00  0.00     0.000 HD 
HETATM   11  C   UNL     1     -11.322  11.714  67.307  1.00  0.00    -0.372 A  
HETATM   12  C   UNL     1     -11.856  12.922  66.882  1.00  0.00    -0.444 A  
HETATM   13  C   UNL     1     -11.576  13.396  65.585  1.00  0.00    -0.350 A  
HETATM   14  C   UNL     1     -10.783  12.627  64.705  1.00  0.00    -0.308 A  
HETATM   15  O   UNL     1     -10.275  13.240  63.593  1.00  0.00    -0.610 OA 
HETATM   16  C   UNL     1     -10.365  11.368  65.111  1.00  0.00    -0.290 A  
HETATM   17  H   UNL     1      -9.741  12.723  63.001  1.00  0.00     0.000 HD 
HETATM   18  C   UNL     1     -10.657  10.880  66.372  1.00  0.00    -0.289 A  
HETATM   19  C   UNL     1      -9.760   9.677  66.712  1.00  0.00    -0.252 C  
HETATM   20  C   UNL     1     -10.361   8.124  67.229  1.00  0.00    -0.373 C  
HETATM   21  C   UNL     1      -8.747   9.991  65.572  1.00  0.00    -0.155 C  
HETATM   22  O   UNL     1      -9.464  10.559  64.445  1.00  0.00    -0.229 OA 
HETATM   23  C   UNL     1     -10.452   7.827  68.998  1.00  0.00    -0.205 C  
HETATM   24  N   UNL     1     -10.689   9.033  69.854  1.00  0.00    -0.227 NA 
ENDROOT
BRANCH  24  25
HETATM   25  C   UNL     1      -9.923   9.447  71.027  1.00  0.00    -0.264 C  
BRANCH  25  26
HETATM   26  C   UNL     1     -10.050   8.578  72.275  1.00  0.00    -0.386 C  
HETATM   27  C   UNL     1     -11.500   7.990  72.448  1.00  0.00    -0.449 C  
HETATM   28  C   UNL     1     -10.847   6.837  73.229  1.00  0.00    -0.302 C  
HETATM   29  C   UNL     1      -9.596   7.078  72.343  1.00  0.00    -0.163 C  
ENDBRANCH  25  26
ENDBRANCH  24  25
TORSDOF 2
ENDMDL
MODEL       38
REMARK 921   NORMALIZED FREE ENERGY PREDICTED BY IDOCK:   -5.88 KCAL/MOL
REMARK 922        TOTAL FREE ENERGY PREDICTED BY IDOCK:   -7.11 KCAL/MOL
REMARK 923 INTER-LIGAND FREE ENERGY PREDICTED BY IDOCK:   -6.63 KCAL/MOL
REMARK 924 INTRA-LIGAND FREE ENERGY PREDICTED BY IDOCK:   -0.47 KCAL/MOL
REMARK 927      BINDING AFFINITY PREDICTED BY RF-SCORE:    0.00 PKD
ROOT
HETATM    1  O   UNL     1     -10.555   5.265  70.545  1.00  0.00    -0.262 OA 
HETATM    2  C   UNL     1      -9.765   6.458  70.739  1.00  0.00    -0.180 C  
HETATM    3  H   UNL     1     -11.145   5.178  71.285  1.00  0.00     0.000 HD 
HETATM    4  C   UNL     1      -8.813   6.597  69.546  1.00  0.00    -0.139 C  
HETATM    5  C   UNL     1      -9.239   7.688  68.421  1.00  0.00    -0.140 C  
HETATM    6  C   UNL     1     -10.086   9.042  68.834  1.00  0.00    -0.196 C  
HETATM    7  O   UNL     1     -11.382   8.835  68.282  1.00  0.00    -0.214 OA 
HETATM    8  C   UNL     1      -9.758  10.679  68.794  1.00  0.00    -0.189 C  
HETATM    9  C   UNL     1     -10.918  11.632  69.090  1.00  0.00    -0.270 C  
HETATM   10  H   UNL     1     -11.870   9.615  68.519  1.00  0.00     0.000 HD 
HETATM   11  C   UNL     1     -11.557  11.079  70.350  1.00  0.00    -0.389 A  
HETATM   12  C   UNL     1     -12.730  11.630  70.847  1.00  0.00    -0.351 A  
HETATM   13  C   UNL     1     -13.492  10.919  71.795  1.00  0.00    -0.283 A  
HETATM   14  C   UNL     1     -13.045   9.665  72.267  1.00  0.00    -0.382 A  
HETATM   15  O   UNL     1     -13.939   8.871  72.932  1.00  0.00    -0.931 OA 
HETATM   16  C   UNL     1     -11.809   9.196  71.847  1.00  0.00    -0.369 A  
HETATM   17  H   UNL     1     -13.639   8.027  73.249  1.00  0.00     0.000 HD 
HETATM   18  C   UNL     1     -11.039   9.897  70.938  1.00  0.00    -0.418 A  
HETATM   19  C   UNL     1      -9.944   8.997  70.341  1.00  0.00    -0.244 C  
HETATM   20  C   UNL     1      -8.245   9.391  70.341  1.00  0.00    -0.214 C  
HETATM   21  C   UNL     1     -10.631   7.684  70.822  1.00  0.00    -0.221 C  
HETATM   22  O   UNL     1     -11.297   7.934  72.086  1.00  0.00    -0.272 OA 
HETATM   23  C   UNL     1      -7.589  10.188  68.872  1.00  0.00    -0.090 C  
HETATM   24  N   UNL     1      -8.548  11.051  68.109  1.00  0.00    -0.134 NA 
ENDROOT
BRANCH  24  25
HETATM   25  C   UNL     1      -8.829  11.003  66.676  1.00  0.00    -0.164 C  
BRANCH  25  26
HETATM   26  C   UNL     1      -8.187   9.869  65.884  1.00  0.00    -0.124 C  
HETATM   27  C   UNL     1      -9.157   9.278  64.794  1.00  0.00    -0.201 C  
HETATM   28  C   UNL     1      -7.894   8.867  64.016  1.00  0.00    -0.137 C  
HETATM   29  C   UNL     1      -7.210  10.093  64.678  1.00  0.00    -0.124 C  
ENDBRANCH  25  26
ENDBRANCH  24  25
TORSDOF 2
ENDMDL
MODEL       39
REMARK 921   NORMALIZED FREE ENERGY PREDICTED BY IDOCK:   -5.83 KCAL/MOL
REMARK 922        TOTAL FREE ENERGY PREDICTED BY IDOCK:   -7.05 KCAL/MOL
REMARK 923 INTER-LIGAND FREE ENERGY PREDICTED BY IDOCK:   -6.66 KCAL/MOL
REMARK 924 INTRA-LIGAND FREE ENERGY PREDICTED BY IDOCK:   -0.40 KCAL/MOL
REMARK 927      BINDING AFFINITY PREDICTED BY RF-SCORE:    0.00 PKD
ROOT
HETATM    1  O   UNL     1      -7.203   8.610  68.075  1.00  0.00    -0.084 OA 
HETATM    2  C   UNL     1      -8.565   9.086  68.039  1.00  0.00    -0.129 C  
HETATM    3  H   UNL     1      -7.085   7.997  67.358  1.00  0.00     0.000 HD 
HETATM    4  C   UNL     1      -8.754  10.074  69.196  1.00  0.00    -0.168 C  
HETATM    5  C   UNL     1      -8.742  11.647  68.796  1.00  0.00    -0.015 C  
HETATM    6  C   UNL     1      -9.282  12.149  67.320  1.00  0.00    -0.185 C  
HETATM    7  O   UNL     1      -8.107  12.567  66.633  1.00  0.00    -0.398 OA 
HETATM    8  C   UNL     1     -10.553  13.103  66.807  1.00  0.00    -0.263 C  
HETATM    9  C   UNL     1     -10.584  13.489  65.327  1.00  0.00    -0.335 C  
HETATM   10  H   UNL     1      -8.418  12.856  65.783  1.00  0.00     0.000 HD 
HETATM   11  C   UNL     1     -10.344  12.188  64.584  1.00  0.00    -0.328 A  
HETATM   12  C   UNL     1     -10.183  12.179  63.206  1.00  0.00    -0.341 A  
HETATM   13  C   UNL     1      -9.634  11.049  62.570  1.00  0.00    -0.215 A  
HETATM   14  C   UNL     1      -9.279   9.912  63.329  1.00  0.00    -0.238 A  
HETATM   15  O   UNL     1      -8.473   8.974  62.745  1.00  0.00    -0.193 OA 
HETATM   16  C   UNL     1      -9.564   9.900  64.687  1.00  0.00    -0.252 A  
HETATM   17  H   UNL     1      -8.233   8.209  63.255  1.00  0.00     0.000 HD 
HETATM   18  C   UNL     1     -10.129  10.993  65.317  1.00  0.00    -0.332 A  
HETATM   19  C   UNL     1      -9.968  10.885  66.843  1.00  0.00    -0.232 C  
HETATM   20  C   UNL     1     -11.288  10.998  67.977  1.00  0.00    -0.374 C  
HETATM   21  C   UNL     1      -8.871   9.784  66.743  1.00  0.00    -0.138 C  
HETATM   22  O   UNL     1      -9.148   8.944  65.594  1.00  0.00    -0.204 OA 
HETATM   23  C   UNL     1     -11.613  12.609  68.700  1.00  0.00    -0.316 C  
HETATM   24  N   UNL     1     -11.268  13.792  67.847  1.00  0.00    -0.263 NA 
ENDROOT
BRANCH  24  25
HETATM   25  C   UNL     1     -10.465  14.951  68.230  1.00  0.00    -0.239 C  
BRANCH  25  26
HETATM   26  C   UNL     1     -10.937  16.313  67.732  1.00  0.00    -0.281 C  
HETATM   27  C   UNL     1     -10.359  17.497  68.594  1.00  0.00    -0.369 C  
HETATM   28  C   UNL     1     -10.516  18.374  67.339  1.00  0.00    -0.443 C  
HETATM   29  C   UNL     1     -10.286  17.073  66.524  1.00  0.00    -0.321 C  
ENDBRANCH  25  26
ENDBRANCH  24  25
TORSDOF 2
ENDMDL
MODEL       40
REMARK 921   NORMALIZED FREE ENERGY PREDICTED BY IDOCK:   -5.82 KCAL/MOL
REMARK 922        TOTAL FREE ENERGY PREDICTED BY IDOCK:   -7.04 KCAL/MOL
REMARK 923 INTER-LIGAND FREE ENERGY PREDICTED BY IDOCK:   -6.63 KCAL/MOL
REMARK 924 INTRA-LIGAND FREE ENERGY PREDICTED BY IDOCK:   -0.42 KCAL/MOL
REMARK 927      BINDING AFFINITY PREDICTED BY RF-SCORE:    0.00 PKD
ROOT
HETATM    1  O   UNL     1     -11.257   7.467  73.497  1.00  0.00    -0.603 OA 
HETATM    2  C   UNL     1     -10.148   7.466  72.574  1.00  0.00    -0.192 C  
HETATM    3  H   UNL     1     -11.439   8.368  73.739  1.00  0.00     0.000 HD 
HETATM    4  C   UNL     1      -9.854   6.013  72.185  1.00  0.00    -0.181 C  
HETATM    5  C   UNL     1     -10.394   5.546  70.726  1.00  0.00    -0.321 C  
HETATM    6  C   UNL     1     -10.504   6.621  69.480  1.00  0.00    -0.218 C  
HETATM    7  O   UNL     1     -11.903   6.806  69.290  1.00  0.00    -0.606 OA 
HETATM    8  C   UNL     1      -9.753   6.766  67.996  1.00  0.00    -0.124 C  
HETATM    9  C   UNL     1     -10.299   7.825  67.036  1.00  0.00    -0.405 C  
HETATM   10  H   UNL     1     -11.967   7.425  68.572  1.00  0.00     0.000 HD 
HETATM   11  C   UNL     1     -10.426   9.080  67.879  1.00  0.00    -0.291 A  
HETATM   12  C   UNL     1     -11.014  10.225  67.359  1.00  0.00    -0.317 A  
HETATM   13  C   UNL     1     -11.432  11.254  68.225  1.00  0.00    -0.378 A  
HETATM   14  C   UNL     1     -11.222  11.138  69.617  1.00  0.00    -0.264 A  
HETATM   15  O   UNL     1     -11.907  11.985  70.445  1.00  0.00    -0.470 OA 
HETATM   16  C   UNL     1     -10.522  10.041  70.098  1.00  0.00    -0.284 A  
HETATM   17  H   UNL     1     -11.766  11.907  71.381  1.00  0.00     0.000 HD 
HETATM   18  C   UNL     1     -10.082   9.037  69.255  1.00  0.00    -0.197 A  
HETATM   19  C   UNL     1      -9.710   7.777  70.055  1.00  0.00    -0.176 C  
HETATM   20  C   UNL     1      -8.170   6.967  69.944  1.00  0.00    -0.127 C  
HETATM   21  C   UNL     1     -10.463   8.253  71.332  1.00  0.00    -0.219 C  
HETATM   22  O   UNL     1     -10.367   9.697  71.428  1.00  0.00    -0.242 OA 
HETATM   23  C   UNL     1      -8.051   5.583  68.806  1.00  0.00    -0.099 C  
HETATM   24  N   UNL     1      -8.941   5.646  67.602  1.00  0.00    -0.109 NA 
ENDROOT
BRANCH  24  25
HETATM   25  C   UNL     1      -9.845   4.605  67.118  1.00  0.00    -0.195 C  
BRANCH  25  26
HETATM   26  C   UNL     1      -9.528   3.993  65.758  1.00  0.00    -0.178 C  
HETATM   27  C   UNL     1     -10.783   3.970  64.807  1.00  0.00    -0.140 C  
HETATM   28  C   UNL     1      -9.787   4.000  63.633  1.00  0.00    -0.143 C  
HETATM   29  C   UNL     1      -8.843   4.780  64.586  1.00  0.00    -0.152 C  
ENDBRANCH  25  26
ENDBRANCH  24  25
TORSDOF 2
ENDMDL
MODEL       41
REMARK 921   NORMALIZED FREE ENERGY PREDICTED BY IDOCK:   -5.81 KCAL/MOL
REMARK 922        TOTAL FREE ENERGY PREDICTED BY IDOCK:   -7.03 KCAL/MOL
REMARK 923 INTER-LIGAND FREE ENERGY PREDICTED BY IDOCK:   -6.64 KCAL/MOL
REMARK 924 INTRA-LIGAND FREE ENERGY PREDICTED BY IDOCK:   -0.39 KCAL/MOL
REMARK 927      BINDING AFFINITY PREDICTED BY RF-SCORE:    0.00 PKD
ROOT
HETATM    1  O   UNL     1      -9.613   3.668  68.802  1.00  0.00    -0.163 OA 
HETATM    2  C   UNL     1      -8.855   4.895  68.884  1.00  0.00    -0.093 C  
HETATM    3  H   UNL     1      -9.903   3.442  69.677  1.00  0.00     0.000 HD 
HETATM    4  C   UNL     1      -8.386   5.259  67.471  1.00  0.00    -0.106 C  
HETATM    5  C   UNL     1      -9.222   6.435  66.726  1.00  0.00    -0.154 C  
HETATM    6  C   UNL     1      -9.927   7.650  67.592  1.00  0.00    -0.175 C  
HETATM    7  O   UNL     1     -11.325   7.397  67.490  1.00  0.00    -0.489 OA 
HETATM    8  C   UNL     1      -9.702   9.302  67.677  1.00  0.00    -0.157 C  
HETATM    9  C   UNL     1     -10.724  10.107  68.483  1.00  0.00    -0.264 C  
HETATM   10  H   UNL     1     -11.731   8.097  67.988  1.00  0.00     0.000 HD 
HETATM   11  C   UNL     1     -10.860   9.353  69.792  1.00  0.00    -0.250 A  
HETATM   12  C   UNL     1     -11.808   9.734  70.732  1.00  0.00    -0.400 A  
HETATM   13  C   UNL     1     -12.160   8.851  71.771  1.00  0.00    -0.432 A  
HETATM   14  C   UNL     1     -11.525   7.593  71.878  1.00  0.00    -0.272 A  
HETATM   15  O   UNL     1     -12.097   6.650  72.686  1.00  0.00    -0.496 OA 
HETATM   16  C   UNL     1     -10.495   7.289  71.001  1.00  0.00    -0.215 A  
HETATM   17  H   UNL     1     -11.671   5.804  72.758  1.00  0.00     0.000 HD 
HETATM   18  C   UNL     1     -10.121   8.159  69.994  1.00  0.00    -0.196 A  
HETATM   19  C   UNL     1      -9.266   7.437  68.938  1.00  0.00    -0.142 C  
HETATM   20  C   UNL     1      -7.692   7.977  68.416  1.00  0.00    -0.117 C  
HETATM   21  C   UNL     1      -9.688   6.021  69.430  1.00  0.00    -0.142 C  
HETATM   22  O   UNL     1      -9.880   6.058  70.868  1.00  0.00    -0.178 OA 
HETATM   23  C   UNL     1      -7.624   9.000  66.941  1.00  0.00    -0.094 C  
HETATM   24  N   UNL     1      -8.824   9.859  66.682  1.00  0.00    -0.134 NA 
ENDROOT
BRANCH  24  25
HETATM   25  C   UNL     1      -9.585   9.959  65.439  1.00  0.00    -0.285 C  
BRANCH  25  26
HETATM   26  C   UNL     1      -9.914  11.363  64.943  1.00  0.00    -0.311 C  
HETATM   27  C   UNL     1     -10.444  11.363  63.461  1.00  0.00    -0.477 C  
HETATM   28  C   UNL     1     -11.186  12.663  63.816  1.00  0.00    -0.519 C  
HETATM   29  C   UNL     1     -11.256  12.109  65.264  1.00  0.00    -0.381 C  
ENDBRANCH  25  26
ENDBRANCH  24  25
TORSDOF 2
ENDMDL
MODEL       42
REMARK 921   NORMALIZED FREE ENERGY PREDICTED BY IDOCK:   -5.76 KCAL/MOL
REMARK 922        TOTAL FREE ENERGY PREDICTED BY IDOCK:   -6.97 KCAL/MOL
REMARK 923 INTER-LIGAND FREE ENERGY PREDICTED BY IDOCK:   -6.44 KCAL/MOL
REMARK 924 INTRA-LIGAND FREE ENERGY PREDICTED BY IDOCK:   -0.53 KCAL/MOL
REMARK 927      BINDING AFFINITY PREDICTED BY RF-SCORE:    0.00 PKD
ROOT
HETATM    1  O   UNL     1      -9.435  20.567  65.588  1.00  0.00    -0.571 OA 
HETATM    2  C   UNL     1      -9.962  19.695  66.610  1.00  0.00    -0.423 C  
HETATM    3  H   UNL     1      -8.898  21.227  66.011  1.00  0.00     0.000 HD 
HETATM    4  C   UNL     1     -10.829  18.630  65.927  1.00  0.00    -0.125 C  
HETATM    5  C   UNL     1     -10.151  17.165  65.757  1.00  0.00    -0.192 C  
HETATM    6  C   UNL     1      -9.052  16.609  66.855  1.00  0.00    -0.228 C  
HETATM    7  O   UNL     1      -7.812  16.617  66.153  1.00  0.00    -0.308 OA 
HETATM    8  C   UNL     1      -9.028  15.340  67.940  1.00  0.00    -0.170 C  
HETATM    9  C   UNL     1      -7.703  15.051  68.649  1.00  0.00    -0.128 C  
HETATM   10  H   UNL     1      -7.179  16.296  66.785  1.00  0.00     0.000 HD 
HETATM   11  C   UNL     1      -7.231  16.404  69.147  1.00  0.00    -0.222 A  
HETATM   12  C   UNL     1      -5.984  16.544  69.740  1.00  0.00    -0.208 A  
HETATM   13  C   UNL     1      -5.416  17.824  69.888  1.00  0.00    -0.229 A  
HETATM   14  C   UNL     1      -6.129  18.968  69.467  1.00  0.00    -0.263 A  
HETATM   15  O   UNL     1      -5.442  20.143  69.333  1.00  0.00    -0.219 OA 
HETATM   16  C   UNL     1      -7.424  18.811  68.993  1.00  0.00    -0.241 A  
HETATM   17  H   UNL     1      -5.921  20.913  69.049  1.00  0.00     0.000 HD 
HETATM   18  C   UNL     1      -8.002  17.562  68.868  1.00  0.00    -0.180 A  
HETATM   19  C   UNL     1      -9.244  17.623  67.963  1.00  0.00    -0.271 C  
HETATM   20  C   UNL     1     -10.822  17.040  68.424  1.00  0.00    -0.333 C  
HETATM   21  C   UNL     1      -8.861  19.014  67.375  1.00  0.00    -0.287 C  
HETATM   22  O   UNL     1      -8.195  19.794  68.401  1.00  0.00    -0.321 OA 
HETATM   23  C   UNL     1     -11.253  15.367  67.933  1.00  0.00    -0.329 C  
HETATM   24  N   UNL     1     -10.112  14.402  67.819  1.00  0.00    -0.225 NA 
ENDROOT
BRANCH  24  25
HETATM   25  C   UNL     1      -9.806  13.529  66.688  1.00  0.00    -0.279 C  
BRANCH  25  26
HETATM   26  C   UNL     1      -9.601  12.049  66.995  1.00  0.00    -0.200 C  
HETATM   27  C   UNL     1      -8.078  11.658  67.059  1.00  0.00    -0.164 C  
HETATM   28  C   UNL     1      -8.498  10.515  68.000  1.00  0.00    -0.120 C  
HETATM   29  C   UNL     1      -9.663  11.442  68.441  1.00  0.00    -0.203 C  
ENDBRANCH  25  26
ENDBRANCH  24  25
TORSDOF 2
ENDMDL
MODEL       43
REMARK 921   NORMALIZED FREE ENERGY PREDICTED BY IDOCK:   -5.75 KCAL/MOL
REMARK 922        TOTAL FREE ENERGY PREDICTED BY IDOCK:   -6.96 KCAL/MOL
REMARK 923 INTER-LIGAND FREE ENERGY PREDICTED BY IDOCK:   -6.53 KCAL/MOL
REMARK 924 INTRA-LIGAND FREE ENERGY PREDICTED BY IDOCK:   -0.43 KCAL/MOL
REMARK 927      BINDING AFFINITY PREDICTED BY RF-SCORE:    0.00 PKD
ROOT
HETATM    1  O   UNL     1     -12.709  13.648  71.730  1.00  0.00    -0.321 OA 
HETATM    2  C   UNL     1     -12.732  14.446  70.527  1.00  0.00    -0.340 C  
HETATM    3  H   UNL     1     -13.068  12.793  71.524  1.00  0.00     0.000 HD 
HETATM    4  C   UNL     1     -12.153  15.826  70.859  1.00  0.00    -0.459 C  
HETATM    5  C   UNL     1     -10.623  16.087  70.383  1.00  0.00    -0.127 C  
HETATM    6  C   UNL     1     -10.021  15.356  69.033  1.00  0.00    -0.229 C  
HETATM    7  O   UNL     1      -9.084  14.405  69.530  1.00  0.00    -0.365 OA 
HETATM    8  C   UNL     1      -9.470  15.907  67.556  1.00  0.00    -0.219 C  
HETATM    9  C   UNL     1      -8.797  14.887  66.635  1.00  0.00    -0.287 C  
HETATM   10  H   UNL     1      -8.736  13.984  68.752  1.00  0.00     0.000 HD 
HETATM   11  C   UNL     1      -9.738  13.696  66.629  1.00  0.00    -0.287 A  
HETATM   12  C   UNL     1      -9.383  12.518  65.986  1.00  0.00    -0.091 A  
HETATM   13  C   UNL     1     -10.085  11.329  66.262  1.00  0.00    -0.271 A  
HETATM   14  C   UNL     1     -11.171  11.340  67.165  1.00  0.00    -0.275 A  
HETATM   15  O   UNL     1     -11.621  10.142  67.646  1.00  0.00    -0.574 OA 
HETATM   16  C   UNL     1     -11.583  12.553  67.699  1.00  0.00    -0.355 A  
HETATM   17  H   UNL     1     -12.352  10.149  68.254  1.00  0.00     0.000 HD 
HETATM   18  C   UNL     1     -10.919  13.732  67.413  1.00  0.00    -0.296 A  
HETATM   19  C   UNL     1     -11.302  14.831  68.419  1.00  0.00    -0.317 C  
HETATM   20  C   UNL     1     -11.904  16.404  67.967  1.00  0.00     0.409 C  
HETATM   21  C   UNL     1     -11.910  13.819  69.435  1.00  0.00    -0.341 C  
HETATM   22  O   UNL     1     -12.515  12.721  68.705  1.00  0.00     0.130 OA 
HETATM   23  C   UNL     1     -10.705  17.736  67.842  1.00  0.00    -0.319 C  
HETATM   24  N   UNL     1      -9.317  17.333  67.446  1.00  0.00    -0.234 NA 
ENDROOT
BRANCH  24  25
HETATM   25  C   UNL     1      -8.070  17.688  68.119  1.00  0.00    -0.252 C  
BRANCH  25  26
HETATM   26  C   UNL     1      -7.181  18.716  67.427  1.00  0.00    -0.211 C  
HETATM   27  C   UNL     1      -7.211  18.573  65.860  1.00  0.00    -0.265 C  
HETATM   28  C   UNL     1      -6.857  20.069  65.801  1.00  0.00    -0.304 C  
HETATM   29  C   UNL     1      -7.614  20.198  67.150  1.00  0.00    -0.334 C  
ENDBRANCH  25  26
ENDBRANCH  24  25
TORSDOF 2
ENDMDL
MODEL       44
REMARK 921   NORMALIZED FREE ENERGY PREDICTED BY IDOCK:   -5.74 KCAL/MOL
REMARK 922        TOTAL FREE ENERGY PREDICTED BY IDOCK:   -6.95 KCAL/MOL
REMARK 923 INTER-LIGAND FREE ENERGY PREDICTED BY IDOCK:   -7.02 KCAL/MOL
REMARK 924 INTRA-LIGAND FREE ENERGY PREDICTED BY IDOCK:    0.07 KCAL/MOL
REMARK 927      BINDING AFFINITY PREDICTED BY RF-SCORE:    0.00 PKD
ROOT
HETATM    1  O   UNL     1     -12.519  13.911  62.694  1.00  0.00    -0.711 OA 
HETATM    2  C   UNL     1     -11.546  14.235  63.710  1.00  0.00     0.266 C  
HETATM    3  H   UNL     1     -12.084  13.399  62.022  1.00  0.00     0.000 HD 
HETATM    4  C   UNL     1     -12.247  15.061  64.795  1.00  0.00    -0.223 C  
HETATM    5  C   UNL     1     -12.634  14.263  66.155  1.00  0.00    -0.280 C  
HETATM    6  C   UNL     1     -11.714  13.002  66.687  1.00  0.00    -0.381 C  
HETATM    7  O   UNL     1     -12.529  11.852  66.478  1.00  0.00     0.099 OA 
HETATM    8  C   UNL     1     -10.774  12.734  68.041  1.00  0.00    -0.230 C  
HETATM    9  C   UNL     1     -10.232  11.318  68.248  1.00  0.00    -0.198 C  
HETATM   10  H   UNL     1     -11.999  11.126  66.785  1.00  0.00     0.000 HD 
HETATM   11  C   UNL     1      -9.645  10.931  66.903  1.00  0.00    -0.203 A  
HETATM   12  C   UNL     1      -9.167   9.647  66.684  1.00  0.00    -0.187 A  
HETATM   13  C   UNL     1      -8.943   9.196  65.369  1.00  0.00    -0.255 A  
HETATM   14  C   UNL     1      -9.171  10.061  64.275  1.00  0.00    -0.269 A  
HETATM   15  O   UNL     1      -9.249   9.512  63.025  1.00  0.00    -0.400 OA 
HETATM   16  C   UNL     1      -9.529  11.377  64.528  1.00  0.00    -0.138 A  
HETATM   17  H   UNL     1      -9.403  10.093  62.289  1.00  0.00     0.000 HD 
HETATM   18  C   UNL     1      -9.725  11.839  65.817  1.00  0.00    -0.260 A  
HETATM   19  C   UNL     1     -10.493  13.172  65.807  1.00  0.00    -0.291 C  
HETATM   20  C   UNL     1      -9.942  14.624  66.600  1.00  0.00    -0.281 C  
HETATM   21  C   UNL     1     -10.968  12.995  64.334  1.00  0.00    -0.374 C  
HETATM   22  O   UNL     1      -9.937  12.302  63.585  1.00  0.00    -0.382 OA 
HETATM   23  C   UNL     1     -10.559  14.939  68.257  1.00  0.00    -0.240 C  
HETATM   24  N   UNL     1     -10.884  13.727  69.076  1.00  0.00    -0.242 NA 
ENDROOT
BRANCH  24  25
HETATM   25  C   UNL     1     -12.124  13.460  69.802  1.00  0.00    -0.310 C  
BRANCH  25  26
HETATM   26  C   UNL     1     -12.121  12.272  70.759  1.00  0.00    -0.259 C  
HETATM   27  C   UNL     1     -13.369  12.276  71.718  1.00  0.00    -0.353 C  
HETATM   28  C   UNL     1     -13.203  10.748  71.801  1.00  0.00    -0.523 C  
HETATM   29  C   UNL     1     -12.615  10.836  70.367  1.00  0.00    -0.395 C  
ENDBRANCH  25  26
ENDBRANCH  24  25
TORSDOF 2
ENDMDL
MODEL       45
REMARK 921   NORMALIZED FREE ENERGY PREDICTED BY IDOCK:   -5.72 KCAL/MOL
REMARK 922        TOTAL FREE ENERGY PREDICTED BY IDOCK:   -6.94 KCAL/MOL
REMARK 923 INTER-LIGAND FREE ENERGY PREDICTED BY IDOCK:   -6.40 KCAL/MOL
REMARK 924 INTRA-LIGAND FREE ENERGY PREDICTED BY IDOCK:   -0.54 KCAL/MOL
REMARK 927      BINDING AFFINITY PREDICTED BY RF-SCORE:    0.00 PKD
ROOT
HETATM    1  O   UNL     1      -5.790  13.097  68.852  1.00  0.00    -0.071 OA 
HETATM    2  C   UNL     1      -7.110  13.486  69.287  1.00  0.00     0.038 C  
HETATM    3  H   UNL     1      -5.792  12.159  68.703  1.00  0.00     0.000 HD 
HETATM    4  C   UNL     1      -7.105  15.000  69.528  1.00  0.00    -0.192 C  
HETATM    5  C   UNL     1      -7.788  15.905  68.366  1.00  0.00    -0.145 C  
HETATM    6  C   UNL     1      -9.036  15.320  67.460  1.00  0.00    -0.185 C  
HETATM    7  O   UNL     1      -8.477  15.125  66.165  1.00  0.00    -0.388 OA 
HETATM    8  C   UNL     1     -10.641  15.743  67.277  1.00  0.00    -0.313 C  
HETATM    9  C   UNL     1     -11.424  15.047  66.162  1.00  0.00    -0.222 C  
HETATM   10  H   UNL     1      -9.196  14.788  65.643  1.00  0.00     0.000 HD 
HETATM   11  C   UNL     1     -11.106  13.573  66.330  1.00  0.00    -0.308 A  
HETATM   12  C   UNL     1     -11.554  12.643  65.402  1.00  0.00    -0.400 A  
HETATM   13  C   UNL     1     -10.986  11.355  65.370  1.00  0.00    -0.249 A  
HETATM   14  C   UNL     1      -9.987  10.997  66.302  1.00  0.00    -0.224 A  
HETATM   15  O   UNL     1      -9.245   9.875  66.053  1.00  0.00    -0.153 OA 
HETATM   16  C   UNL     1      -9.646  11.903  67.296  1.00  0.00    -0.177 A  
HETATM   17  H   UNL     1      -8.573   9.635  66.679  1.00  0.00     0.000 HD 
HETATM   18  C   UNL     1     -10.217  13.161  67.355  1.00  0.00    -0.232 A  
HETATM   19  C   UNL     1      -9.397  14.090  68.267  1.00  0.00    -0.208 C  
HETATM   20  C   UNL     1     -10.065  14.983  69.608  1.00  0.00    -0.139 C  
HETATM   21  C   UNL     1      -8.150  13.157  68.252  1.00  0.00    -0.152 C  
HETATM   22  O   UNL     1      -8.593  11.777  68.182  1.00  0.00    -0.147 OA 
HETATM   23  C   UNL     1     -10.566  16.679  69.294  1.00  0.00    -0.343 C  
HETATM   24  N   UNL     1     -11.030  16.979  67.901  1.00  0.00    -0.298 NA 
ENDROOT
BRANCH  24  25
HETATM   25  C   UNL     1     -10.576  18.064  67.034  1.00  0.00    -0.308 C  
BRANCH  25  26
HETATM   26  C   UNL     1      -9.509  18.997  67.598  1.00  0.00    -0.355 C  
HETATM   27  C   UNL     1      -8.317  19.217  66.594  1.00  0.00    -0.319 C  
HETATM   28  C   UNL     1      -8.094  20.572  67.288  1.00  0.00    -0.362 C  
HETATM   29  C   UNL     1      -9.620  20.562  67.576  1.00  0.00    -0.545 C  
ENDBRANCH  25  26
ENDBRANCH  24  25
TORSDOF 2
ENDMDL
MODEL       46
REMARK 921   NORMALIZED FREE ENERGY PREDICTED BY IDOCK:   -5.71 KCAL/MOL
REMARK 922        TOTAL FREE ENERGY PREDICTED BY IDOCK:   -6.92 KCAL/MOL
REMARK 923 INTER-LIGAND FREE ENERGY PREDICTED BY IDOCK:   -6.53 KCAL/MOL
REMARK 924 INTRA-LIGAND FREE ENERGY PREDICTED BY IDOCK:   -0.40 KCAL/MOL
REMARK 927      BINDING AFFINITY PREDICTED BY RF-SCORE:    0.00 PKD
ROOT
HETATM    1  O   UNL     1     -13.146   8.678  72.743  1.00  0.00    -0.632 OA 
HETATM    2  C   UNL     1     -11.742   8.475  72.478  1.00  0.00    -0.320 C  
HETATM    3  H   UNL     1     -13.358   9.581  72.534  1.00  0.00     0.000 HD 
HETATM    4  C   UNL     1     -11.399   7.019  72.816  1.00  0.00    -0.256 C  
HETATM    5  C   UNL     1     -11.252   6.012  71.551  1.00  0.00    -0.326 C  
HETATM    6  C   UNL     1     -10.717   6.561  70.091  1.00  0.00    -0.252 C  
HETATM    7  O   UNL     1     -11.864   6.510  69.248  1.00  0.00    -0.608 OA 
HETATM    8  C   UNL     1      -9.369   6.256  69.154  1.00  0.00    -0.131 C  
HETATM    9  C   UNL     1      -9.353   6.841  67.740  1.00  0.00    -0.116 C  
HETATM   10  H   UNL     1     -11.556   6.826  68.407  1.00  0.00     0.000 HD 
HETATM   11  C   UNL     1      -9.764   8.291  67.920  1.00  0.00    -0.192 A  
HETATM   12  C   UNL     1      -9.977   9.107  66.818  1.00  0.00    -0.322 A  
HETATM   13  C   UNL     1     -10.673  10.322  66.968  1.00  0.00    -0.281 A  
HETATM   14  C   UNL     1     -11.123  10.728  68.244  1.00  0.00    -0.271 A  
HETATM   15  O   UNL     1     -12.050  11.731  68.312  1.00  0.00    -0.525 OA 
HETATM   16  C   UNL     1     -10.788   9.954  69.347  1.00  0.00    -0.237 A  
HETATM   17  H   UNL     1     -12.353  12.004  69.170  1.00  0.00     0.000 HD 
HETATM   18  C   UNL     1     -10.082   8.773  69.215  1.00  0.00    -0.206 A  
HETATM   19  C   UNL     1     -10.195   7.925  70.493  1.00  0.00    -0.198 C  
HETATM   20  C   UNL     1      -8.827   7.303  71.379  1.00  0.00    -0.130 C  
HETATM   21  C   UNL     1     -11.410   8.734  71.034  1.00  0.00    -0.278 C  
HETATM   22  O   UNL     1     -11.273  10.121  70.631  1.00  0.00    -0.305 OA 
HETATM   23  C   UNL     1      -8.298   5.628  71.001  1.00  0.00    -0.122 C  
HETATM   24  N   UNL     1      -8.542   5.165  69.597  1.00  0.00    -0.092 NA 
ENDROOT
BRANCH  24  25
HETATM   25  C   UNL     1      -9.197   3.928  69.178  1.00  0.00    -0.156 C  
BRANCH  25  26
HETATM   26  C   UNL     1      -8.522   3.133  68.064  1.00  0.00    -0.105 C  
HETATM   27  C   UNL     1      -9.163   1.708  67.876  1.00  0.00    -0.204 C  
HETATM   28  C   UNL     1      -8.683   1.778  66.415  1.00  0.00    -0.117 C  
HETATM   29  C   UNL     1      -8.850   3.317  66.541  1.00  0.00    -0.147 C  
ENDBRANCH  25  26
ENDBRANCH  24  25
TORSDOF 2
ENDMDL
MODEL       47
REMARK 921   NORMALIZED FREE ENERGY PREDICTED BY IDOCK:   -5.68 KCAL/MOL
REMARK 922        TOTAL FREE ENERGY PREDICTED BY IDOCK:   -6.89 KCAL/MOL
REMARK 923 INTER-LIGAND FREE ENERGY PREDICTED BY IDOCK:   -6.47 KCAL/MOL
REMARK 924 INTRA-LIGAND FREE ENERGY PREDICTED BY IDOCK:   -0.42 KCAL/MOL
REMARK 927      BINDING AFFINITY PREDICTED BY RF-SCORE:    0.00 PKD
ROOT
HETATM    1  O   UNL     1     -12.592  14.222  68.105  1.00  0.00    -0.490 OA 
HETATM    2  C   UNL     1     -11.220  13.780  68.182  1.00  0.00    -0.271 C  
HETATM    3  H   UNL     1     -12.719  14.643  67.262  1.00  0.00     0.000 HD 
HETATM    4  C   UNL     1     -11.014  13.101  69.541  1.00  0.00     0.024 C  
HETATM    5  C   UNL     1     -10.991  11.478  69.527  1.00  0.00    -0.186 C  
HETATM    6  C   UNL     1     -10.434  10.651  68.213  1.00  0.00    -0.187 C  
HETATM    7  O   UNL     1     -11.598  10.055  67.647  1.00  0.00    -0.535 OA 
HETATM    8  C   UNL     1      -9.142   9.630  67.941  1.00  0.00    -0.125 C  
HETATM    9  C   UNL     1      -9.096   8.902  66.595  1.00  0.00    -0.192 C  
HETATM   10  H   UNL     1     -11.277   9.579  66.891  1.00  0.00     0.000 HD 
HETATM   11  C   UNL     1      -9.361   9.983  65.565  1.00  0.00    -0.271 A  
HETATM   12  C   UNL     1      -9.516   9.659  64.224  1.00  0.00    -0.089 A  
HETATM   13  C   UNL     1     -10.087  10.593  63.338  1.00  0.00    -0.266 A  
HETATM   14  C   UNL     1     -10.470  11.870  63.804  1.00  0.00    -0.423 A  
HETATM   15  O   UNL     1     -11.293  12.625  63.014  1.00  0.00    -0.753 OA 
HETATM   16  C   UNL     1     -10.190  12.212  65.119  1.00  0.00    -0.278 A  
HETATM   17  H   UNL     1     -11.551  13.484  63.327  1.00  0.00     0.000 HD 
HETATM   18  C   UNL     1      -9.604  11.314  65.991  1.00  0.00    -0.245 A  
HETATM   19  C   UNL     1      -9.774  11.779  67.448  1.00  0.00    -0.186 C  
HETATM   20  C   UNL     1      -8.456  11.969  68.574  1.00  0.00    -0.098 C  
HETATM   21  C   UNL     1     -10.894  12.800  67.090  1.00  0.00    -0.256 C  
HETATM   22  O   UNL     1     -10.631  13.348  65.772  1.00  0.00    -0.274 OA 
HETATM   23  C   UNL     1      -8.099  10.583  69.660  1.00  0.00    -0.043 C  
HETATM   24  N   UNL     1      -8.416   9.224  69.115  1.00  0.00    -0.128 NA 
ENDROOT
BRANCH  24  25
HETATM   25  C   UNL     1      -9.196   8.173  69.764  1.00  0.00    -0.151 C  
BRANCH  25  26
HETATM   26  C   UNL     1      -9.184   8.147  71.289  1.00  0.00    -0.193 C  
HETATM   27  C   UNL     1     -10.631   8.266  71.898  1.00  0.00    -0.350 C  
HETATM   28  C   UNL     1     -10.084   7.512  73.124  1.00  0.00    -0.362 C  
HETATM   29  C   UNL     1      -9.097   6.831  72.138  1.00  0.00    -0.140 C  
ENDBRANCH  25  26
ENDBRANCH  24  25
TORSDOF 2
ENDMDL
MODEL       48
REMARK 921   NORMALIZED FREE ENERGY PREDICTED BY IDOCK:   -5.68 KCAL/MOL
REMARK 922        TOTAL FREE ENERGY PREDICTED BY IDOCK:   -6.88 KCAL/MOL
REMARK 923 INTER-LIGAND FREE ENERGY PREDICTED BY IDOCK:   -6.52 KCAL/MOL
REMARK 924 INTRA-LIGAND FREE ENERGY PREDICTED BY IDOCK:   -0.37 KCAL/MOL
REMARK 927      BINDING AFFINITY PREDICTED BY RF-SCORE:    0.00 PKD
ROOT
HETATM    1  O   UNL     1      -9.208   9.189  64.489  1.00  0.00    -0.430 OA 
HETATM    2  C   UNL     1      -8.626   8.924  65.783  1.00  0.00    -0.160 C  
HETATM    3  H   UNL     1      -8.783   8.625  63.853  1.00  0.00     0.000 HD 
HETATM    4  C   UNL     1      -9.311   9.835  66.808  1.00  0.00    -0.190 C  
HETATM    5  C   UNL     1     -10.433   9.131  67.746  1.00  0.00    -0.306 C  
HETATM    6  C   UNL     1     -10.313   7.539  68.159  1.00  0.00    -0.200 C  
HETATM    7  O   UNL     1     -11.361   6.901  67.436  1.00  0.00    -0.615 OA 
HETATM    8  C   UNL     1     -10.103   6.721  69.600  1.00  0.00    -0.183 C  
HETATM    9  C   UNL     1     -10.244   5.198  69.567  1.00  0.00    -0.318 C  
HETATM   10  H   UNL     1     -11.292   5.985  67.674  1.00  0.00     0.000 HD 
HETATM   11  C   UNL     1      -9.399   4.759  68.386  1.00  0.00    -0.177 A  
HETATM   12  C   UNL     1      -9.390   3.433  67.976  1.00  0.00    -0.241 A  
HETATM   13  C   UNL     1      -8.889   3.094  66.705  1.00  0.00    -0.153 A  
HETATM   14  C   UNL     1      -8.363   4.097  65.860  1.00  0.00    -0.109 A  
HETATM   15  O   UNL     1      -8.179   3.796  64.539  1.00  0.00    -0.092 OA 
HETATM   16  C   UNL     1      -8.269   5.394  66.343  1.00  0.00    -0.109 A  
HETATM   17  H   UNL     1      -7.826   4.470  63.970  1.00  0.00     0.000 HD 
HETATM   18  C   UNL     1      -8.732   5.734  67.600  1.00  0.00    -0.107 A  
HETATM   19  C   UNL     1      -8.887   7.259  67.731  1.00  0.00    -0.124 C  
HETATM   20  C   UNL     1      -8.163   8.211  69.000  1.00  0.00    -0.127 C  
HETATM   21  C   UNL     1      -8.822   7.491  66.192  1.00  0.00    -0.159 C  
HETATM   22  O   UNL     1      -7.928   6.511  65.603  1.00  0.00    -0.101 OA 
HETATM   23  C   UNL     1      -9.175   8.560  70.442  1.00  0.00    -0.160 C  
HETATM   24  N   UNL     1     -10.203   7.526  70.788  1.00  0.00    -0.194 NA 
ENDROOT
BRANCH  24  25
HETATM   25  C   UNL     1     -11.625   7.747  71.042  1.00  0.00    -0.283 C  
BRANCH  25  26
HETATM   26  C   UNL     1     -12.002   9.022  71.789  1.00  0.00    -0.438 C  
HETATM   27  C   UNL     1     -12.189  10.248  70.819  1.00  0.00    -0.447 C  
HETATM   28  C   UNL     1     -13.141  10.832  71.878  1.00  0.00    -0.557 C  
HETATM   29  C   UNL     1     -13.462   9.361  72.254  1.00  0.00    -0.539 C  
ENDBRANCH  25  26
ENDBRANCH  24  25
TORSDOF 2
ENDMDL
MODEL       49
REMARK 921   NORMALIZED FREE ENERGY PREDICTED BY IDOCK:   -5.63 KCAL/MOL
REMARK 922        TOTAL FREE ENERGY PREDICTED BY IDOCK:   -6.83 KCAL/MOL
REMARK 923 INTER-LIGAND FREE ENERGY PREDICTED BY IDOCK:   -6.57 KCAL/MOL
REMARK 924 INTRA-LIGAND FREE ENERGY PREDICTED BY IDOCK:   -0.26 KCAL/MOL
REMARK 927      BINDING AFFINITY PREDICTED BY RF-SCORE:    0.00 PKD
ROOT
HETATM    1  O   UNL     1      -6.788   7.983  64.737  1.00  0.00    -0.060 OA 
HETATM    2  C   UNL     1      -8.108   7.667  65.227  1.00  0.00    -0.133 C  
HETATM    3  H   UNL     1      -6.880   8.575  63.999  1.00  0.00     0.000 HD 
HETATM    4  C   UNL     1      -7.958   6.711  66.415  1.00  0.00    -0.106 C  
HETATM    5  C   UNL     1      -8.136   7.374  67.887  1.00  0.00    -0.119 C  
HETATM    6  C   UNL     1      -9.137   8.664  68.118  1.00  0.00    -0.141 C  
HETATM    7  O   UNL     1      -8.258   9.755  68.377  1.00  0.00    -0.104 OA 
HETATM    8  C   UNL     1     -10.541   8.909  68.987  1.00  0.00    -0.183 C  
HETATM    9  C   UNL     1     -11.056  10.346  69.093  1.00  0.00    -0.296 C  
HETATM   10  H   UNL     1      -8.834  10.499  68.510  1.00  0.00     0.000 HD 
HETATM   11  C   UNL     1     -11.014  10.876  67.672  1.00  0.00    -0.350 A  
HETATM   12  C   UNL     1     -11.300  12.208  67.405  1.00  0.00    -0.393 A  
HETATM   13  C   UNL     1     -10.937  12.769  66.166  1.00  0.00    -0.310 A  
HETATM   14  C   UNL     1     -10.314  11.970  65.181  1.00  0.00    -0.276 A  
HETATM   15  O   UNL     1      -9.699  12.599  64.134  1.00  0.00    -0.585 OA 
HETATM   16  C   UNL     1     -10.152  10.614  65.427  1.00  0.00    -0.291 A  
HETATM   17  H   UNL     1      -9.280  12.062  63.472  1.00  0.00     0.000 HD 
HETATM   18  C   UNL     1     -10.530  10.045  66.629  1.00  0.00    -0.244 A  
HETATM   19  C   UNL     1      -9.888   8.659  66.803  1.00  0.00    -0.322 C  
HETATM   20  C   UNL     1     -10.783   7.203  67.151  1.00  0.00    -0.422 C  
HETATM   21  C   UNL     1      -8.837   8.902  65.679  1.00  0.00    -0.191 C  
HETATM   22  O   UNL     1      -9.432   9.729  64.646  1.00  0.00    -0.280 OA 
HETATM   23  C   UNL     1     -10.924   6.720  68.876  1.00  0.00    -0.218 C  
HETATM   24  N   UNL     1     -10.915   7.839  69.872  1.00  0.00    -0.228 NA 
ENDROOT
BRANCH  24  25
HETATM   25  C   UNL     1     -10.078   7.951  71.065  1.00  0.00    -0.192 C  
BRANCH  25  26
HETATM   26  C   UNL     1     -10.376   6.988  72.210  1.00  0.00    -0.216 C  
HETATM   27  C   UNL     1     -11.881   6.526  72.224  1.00  0.00    -0.299 C  
HETATM   28  C   UNL     1     -11.393   5.250  72.932  1.00  0.00    -0.368 C  
HETATM   29  C   UNL     1     -10.061   5.452  72.161  1.00  0.00    -0.237 C  
ENDBRANCH  25  26
ENDBRANCH  24  25
TORSDOF 2
ENDMDL
MODEL       50
REMARK 921   NORMALIZED FREE ENERGY PREDICTED BY IDOCK:   -5.57 KCAL/MOL
REMARK 922        TOTAL FREE ENERGY PREDICTED BY IDOCK:   -6.77 KCAL/MOL
REMARK 923 INTER-LIGAND FREE ENERGY PREDICTED BY IDOCK:   -6.51 KCAL/MOL
REMARK 924 INTRA-LIGAND FREE ENERGY PREDICTED BY IDOCK:   -0.25 KCAL/MOL
REMARK 927      BINDING AFFINITY PREDICTED BY RF-SCORE:    0.00 PKD
ROOT
HETATM    1  O   UNL     1     -13.148  14.105  65.139  1.00  0.00    -0.757 OA 
HETATM    2  C   UNL     1     -11.818  14.040  65.697  1.00  0.00    -0.377 C  
HETATM    3  H   UNL     1     -13.732  13.621  65.711  1.00  0.00     0.000 HD 
HETATM    4  C   UNL     1     -10.876  14.819  64.773  1.00  0.00    -0.395 C  
HETATM    5  C   UNL     1     -10.453  16.303  65.279  1.00  0.00    -0.324 C  
HETATM    6  C   UNL     1     -10.338  16.647  66.889  1.00  0.00    -0.299 C  
HETATM    7  O   UNL     1     -11.440  17.512  67.148  1.00  0.00     0.450 OA 
HETATM    8  C   UNL     1      -9.085  17.084  67.901  1.00  0.00    -0.232 C  
HETATM    9  C   UNL     1      -9.451  17.512  69.323  1.00  0.00     0.102 C  
HETATM   10  H   UNL     1     -11.375  17.710  68.074  1.00  0.00     0.000 HD 
HETATM   11  C   UNL     1     -10.402  16.438  69.815  1.00  0.00    -0.197 A  
HETATM   12  C   UNL     1     -11.041  16.566  71.041  1.00  0.00     0.116 A  
HETATM   13  C   UNL     1     -12.157  15.760  71.338  1.00  0.00    -0.494 A  
HETATM   14  C   UNL     1     -12.605  14.798  70.407  1.00  0.00    -0.346 A  
HETATM   15  O   UNL     1     -13.851  14.262  70.582  1.00  0.00    -0.264 OA 
HETATM   16  C   UNL     1     -11.874  14.605  69.243  1.00  0.00    -0.321 A  
HETATM   17  H   UNL     1     -14.153  13.615  69.955  1.00  0.00     0.000 HD 
HETATM   18  C   UNL     1     -10.761  15.371  68.952  1.00  0.00    -0.244 A  
HETATM   19  C   UNL     1     -10.387  15.247  67.465  1.00  0.00    -0.244 C  
HETATM   20  C   UNL     1      -8.804  14.796  66.888  1.00  0.00    -0.274 C  
HETATM   21  C   UNL     1     -11.768  14.643  67.073  1.00  0.00    -0.362 C  
HETATM   22  O   UNL     1     -12.255  13.825  68.167  1.00  0.00    -0.331 OA 
HETATM   23  C   UNL     1      -7.673  16.127  66.471  1.00  0.00    -0.184 C  
HETATM   24  N   UNL     1      -7.842  17.398  67.246  1.00  0.00    -0.194 NA 
ENDROOT
BRANCH  24  25
HETATM   25  C   UNL     1      -7.967  18.750  66.706  1.00  0.00    -0.255 C  
BRANCH  25  26
HETATM   26  C   UNL     1      -6.671  19.495  66.405  1.00  0.00    -0.201 C  
HETATM   27  C   UNL     1      -6.571  19.931  64.895  1.00  0.00    -0.267 C  
HETATM   28  C   UNL     1      -5.652  21.069  65.374  1.00  0.00    -0.260 C  
HETATM   29  C   UNL     1      -6.451  21.019  66.704  1.00  0.00    -0.361 C  
ENDBRANCH  25  26
ENDBRANCH  24  25
TORSDOF 2
ENDMDL
MODEL       51
REMARK 921   NORMALIZED FREE ENERGY PREDICTED BY IDOCK:   -5.54 KCAL/MOL
REMARK 922        TOTAL FREE ENERGY PREDICTED BY IDOCK:   -6.73 KCAL/MOL
REMARK 923 INTER-LIGAND FREE ENERGY PREDICTED BY IDOCK:   -6.40 KCAL/MOL
REMARK 924 INTRA-LIGAND FREE ENERGY PREDICTED BY IDOCK:   -0.33 KCAL/MOL
REMARK 927      BINDING AFFINITY PREDICTED BY RF-SCORE:    0.00 PKD
ROOT
HETATM    1  O   UNL     1     -12.285  10.858  68.579  1.00  0.00    -0.799 OA 
HETATM    2  C   UNL     1     -11.661  11.543  67.472  1.00  0.00    -0.184 C  
HETATM    3  H   UNL     1     -11.937   9.975  68.614  1.00  0.00     0.000 HD 
HETATM    4  C   UNL     1     -12.225  12.967  67.415  1.00  0.00    -0.155 C  
HETATM    5  C   UNL     1     -11.263  14.135  68.005  1.00  0.00    -0.302 C  
HETATM    6  C   UNL     1      -9.621  14.001  67.920  1.00  0.00    -0.221 C  
HETATM    7  O   UNL     1      -9.209  13.794  69.268  1.00  0.00    -0.281 OA 
HETATM    8  C   UNL     1      -8.421  14.857  67.135  1.00  0.00    -0.220 C  
HETATM    9  C   UNL     1      -6.972  14.514  67.488  1.00  0.00    -0.188 C  
HETATM   10  H   UNL     1      -8.264  13.717  69.219  1.00  0.00     0.000 HD 
HETATM   11  C   UNL     1      -6.908  13.000  67.418  1.00  0.00    -0.126 A  
HETATM   12  C   UNL     1      -5.759  12.322  67.804  1.00  0.00    -0.097 A  
HETATM   13  C   UNL     1      -5.814  10.939  68.060  1.00  0.00    -0.045 A  
HETATM   14  C   UNL     1      -7.025  10.233  67.891  1.00  0.00    -0.083 A  
HETATM   15  O   UNL     1      -7.126   8.984  68.438  1.00  0.00    -0.074 OA 
HETATM   16  C   UNL     1      -8.127  10.910  67.386  1.00  0.00    -0.114 A  
HETATM   17  H   UNL     1      -7.941   8.509  68.326  1.00  0.00     0.000 HD 
HETATM   18  C   UNL     1      -8.078  12.263  67.105  1.00  0.00    -0.173 A  
HETATM   19  C   UNL     1      -9.496  12.840  66.956  1.00  0.00    -0.233 C  
HETATM   20  C   UNL     1     -10.045  13.741  65.567  1.00  0.00    -0.303 C  
HETATM   21  C   UNL     1     -10.168  11.611  67.638  1.00  0.00    -0.188 C  
HETATM   22  O   UNL     1      -9.415  10.416  67.308  1.00  0.00    -0.152 OA 
HETATM   23  C   UNL     1      -9.945  15.532  65.661  1.00  0.00    -0.360 C  
HETATM   24  N   UNL     1      -8.842  16.084  66.513  1.00  0.00    -0.274 NA 
ENDROOT
BRANCH  24  25
HETATM   25  C   UNL     1      -8.961  17.087  67.568  1.00  0.00    -0.219 C  
BRANCH  25  26
HETATM   26  C   UNL     1     -10.094  18.098  67.435  1.00  0.00    -0.359 C  
HETATM   27  C   UNL     1      -9.859  19.379  68.320  1.00  0.00    -0.500 C  
HETATM   28  C   UNL     1     -10.734  20.137  67.306  1.00  0.00    -0.227 C  
HETATM   29  C   UNL     1     -10.214  19.122  66.252  1.00  0.00    -0.527 C  
ENDBRANCH  25  26
ENDBRANCH  24  25
TORSDOF 2
ENDMDL
MODEL       52
REMARK 921   NORMALIZED FREE ENERGY PREDICTED BY IDOCK:   -5.47 KCAL/MOL
REMARK 922        TOTAL FREE ENERGY PREDICTED BY IDOCK:   -6.65 KCAL/MOL
REMARK 923 INTER-LIGAND FREE ENERGY PREDICTED BY IDOCK:   -6.28 KCAL/MOL
REMARK 924 INTRA-LIGAND FREE ENERGY PREDICTED BY IDOCK:   -0.37 KCAL/MOL
REMARK 927      BINDING AFFINITY PREDICTED BY RF-SCORE:    0.00 PKD
ROOT
HETATM    1  O   UNL     1      -7.732   9.218  65.040  1.00  0.00    -0.104 OA 
HETATM    2  C   UNL     1      -8.876   8.568  65.633  1.00  0.00    -0.173 C  
HETATM    3  H   UNL     1      -8.031  10.012  64.613  1.00  0.00     0.000 HD 
HETATM    4  C   UNL     1      -8.392   7.287  66.321  1.00  0.00    -0.129 C  
HETATM    5  C   UNL     1      -8.250   7.359  67.937  1.00  0.00    -0.120 C  
HETATM    6  C   UNL     1      -9.238   8.333  68.830  1.00  0.00    -0.147 C  
HETATM    7  O   UNL     1      -8.386   9.376  69.295  1.00  0.00    -0.118 OA 
HETATM    8  C   UNL     1     -10.405   8.057  69.992  1.00  0.00    -0.218 C  
HETATM    9  C   UNL     1     -10.960   9.277  70.729  1.00  0.00    -0.349 C  
HETATM   10  H   UNL     1      -8.955   9.936  69.809  1.00  0.00     0.000 HD 
HETATM   11  C   UNL     1     -11.289  10.272  69.632  1.00  0.00    -0.315 A  
HETATM   12  C   UNL     1     -11.706  11.558  69.945  1.00  0.00    -0.420 A  
HETATM   13  C   UNL     1     -11.682  12.564  68.959  1.00  0.00    -0.368 A  
HETATM   14  C   UNL     1     -11.270  12.257  67.644  1.00  0.00    -0.290 A  
HETATM   15  O   UNL     1     -10.960  13.294  66.807  1.00  0.00    -0.281 OA 
HETATM   16  C   UNL     1     -10.977  10.938  67.327  1.00  0.00    -0.294 A  
HETATM   17  H   UNL     1     -10.682  13.087  65.922  1.00  0.00     0.000 HD 
HETATM   18  C   UNL     1     -11.023   9.937  68.279  1.00  0.00    -0.248 A  
HETATM   19  C   UNL     1     -10.281   8.683  67.789  1.00  0.00    -0.282 C  
HETATM   20  C   UNL     1     -10.982   7.086  67.741  1.00  0.00    -0.234 C  
HETATM   21  C   UNL     1      -9.545   9.450  66.651  1.00  0.00    -0.192 C  
HETATM   22  O   UNL     1     -10.415  10.494  66.144  1.00  0.00    -0.230 OA 
HETATM   23  C   UNL     1     -10.679   6.015  69.150  1.00  0.00    -0.331 C  
HETATM   24  N   UNL     1     -10.495   6.702  70.469  1.00  0.00    -0.199 NA 
ENDROOT
BRANCH  24  25
HETATM   25  C   UNL     1      -9.404   6.506  71.421  1.00  0.00    -0.151 C  
BRANCH  25  26
HETATM   26  C   UNL     1      -9.591   5.412  72.467  1.00  0.00    -0.169 C  
HETATM   27  C   UNL     1     -11.027   5.442  73.112  1.00  0.00    -0.353 C  
HETATM   28  C   UNL     1     -10.844   3.938  73.382  1.00  0.00    -0.318 C  
HETATM   29  C   UNL     1      -9.943   3.923  72.119  1.00  0.00    -0.243 C  
ENDBRANCH  25  26
ENDBRANCH  24  25
TORSDOF 2
ENDMDL
MODEL       53
REMARK 921   NORMALIZED FREE ENERGY PREDICTED BY IDOCK:   -5.45 KCAL/MOL
REMARK 922        TOTAL FREE ENERGY PREDICTED BY IDOCK:   -6.63 KCAL/MOL
REMARK 923 INTER-LIGAND FREE ENERGY PREDICTED BY IDOCK:   -6.49 KCAL/MOL
REMARK 924 INTRA-LIGAND FREE ENERGY PREDICTED BY IDOCK:   -0.13 KCAL/MOL
REMARK 927      BINDING AFFINITY PREDICTED BY RF-SCORE:    0.00 PKD
ROOT
HETATM    1  O   UNL     1     -13.833   9.601  71.569  1.00  0.00    -0.274 OA 
HETATM    2  C   UNL     1     -12.398   9.475  71.649  1.00  0.00    -0.398 C  
HETATM    3  H   UNL     1     -14.034  10.409  71.111  1.00  0.00     0.000 HD 
HETATM    4  C   UNL     1     -12.075   8.172  72.389  1.00  0.00    -0.406 C  
HETATM    5  C   UNL     1     -11.613   6.923  71.459  1.00  0.00    -0.329 C  
HETATM    6  C   UNL     1     -10.797   7.176  70.048  1.00  0.00    -0.254 C  
HETATM    7  O   UNL     1     -11.730   6.830  69.029  1.00  0.00    -0.586 OA 
HETATM    8  C   UNL     1      -9.265   6.794  69.503  1.00  0.00    -0.147 C  
HETATM    9  C   UNL     1      -8.967   7.045  68.024  1.00  0.00    -0.126 C  
HETATM   10  H   UNL     1     -11.260   6.975  68.217  1.00  0.00     0.000 HD 
HETATM   11  C   UNL     1      -9.469   8.452  67.763  1.00  0.00    -0.171 A  
HETATM   12  C   UNL     1      -9.473   8.975  66.477  1.00  0.00    -0.266 A  
HETATM   13  C   UNL     1     -10.236  10.122  66.188  1.00  0.00    -0.285 A  
HETATM   14  C   UNL     1     -10.970  10.762  67.212  1.00  0.00    -0.297 A  
HETATM   15  O   UNL     1     -11.932  11.664  66.849  1.00  0.00    -0.567 OA 
HETATM   16  C   UNL     1     -10.850  10.292  68.512  1.00  0.00    -0.240 A  
HETATM   17  H   UNL     1     -12.426  12.094  67.537  1.00  0.00     0.000 HD 
HETATM   18  C   UNL     1     -10.082   9.183  68.813  1.00  0.00    -0.212 A  
HETATM   19  C   UNL     1     -10.433   8.638  70.208  1.00  0.00    -0.229 C  
HETATM   20  C   UNL     1      -9.266   8.362  71.474  1.00  0.00    -0.257 C  
HETATM   21  C   UNL     1     -11.772   9.431  70.283  1.00  0.00    -0.083 C  
HETATM   22  O   UNL     1     -11.610  10.698  69.594  1.00  0.00    -0.255 OA 
HETATM   23  C   UNL     1      -8.596   6.703  71.624  1.00  0.00    -0.123 C  
HETATM   24  N   UNL     1      -8.508   5.913  70.353  1.00  0.00    -0.129 NA 
ENDROOT
BRANCH  24  25
HETATM   25  C   UNL     1      -9.002   4.558  70.121  1.00  0.00    -0.090 C  
BRANCH  25  26
HETATM   26  C   UNL     1      -9.835   3.927  71.232  1.00  0.00    -0.227 C  
HETATM   27  C   UNL     1      -9.775   2.354  71.203  1.00  0.00    -0.180 C  
HETATM   28  C   UNL     1     -10.069   2.400  72.713  1.00  0.00    -0.219 C  
HETATM   29  C   UNL     1      -9.337   3.769  72.711  1.00  0.00    -0.143 C  
ENDBRANCH  25  26
ENDBRANCH  24  25
TORSDOF 2
ENDMDL
MODEL       54
REMARK 921   NORMALIZED FREE ENERGY PREDICTED BY IDOCK:   -5.44 KCAL/MOL
REMARK 922        TOTAL FREE ENERGY PREDICTED BY IDOCK:   -6.61 KCAL/MOL
REMARK 923 INTER-LIGAND FREE ENERGY PREDICTED BY IDOCK:   -6.21 KCAL/MOL
REMARK 924 INTRA-LIGAND FREE ENERGY PREDICTED BY IDOCK:   -0.40 KCAL/MOL
REMARK 927      BINDING AFFINITY PREDICTED BY RF-SCORE:    0.00 PKD
ROOT
HETATM    1  O   UNL     1      -9.020  13.887  68.808  1.00  0.00    -0.341 OA 
HETATM    2  C   UNL     1      -9.720  12.786  68.190  1.00  0.00    -0.223 C  
HETATM    3  H   UNL     1      -9.662  14.447  69.228  1.00  0.00     0.000 HD 
HETATM    4  C   UNL     1      -8.684  11.883  67.511  1.00  0.00    -0.163 C  
HETATM    5  C   UNL     1      -8.305  10.518  68.304  1.00  0.00    -0.122 C  
HETATM    6  C   UNL     1      -9.415   9.757  69.257  1.00  0.00    -0.194 C  
HETATM    7  O   UNL     1      -8.947   9.964  70.586  1.00  0.00    -0.343 OA 
HETATM    8  C   UNL     1     -10.178   8.273  69.200  1.00  0.00    -0.218 C  
HETATM    9  C   UNL     1     -11.013   7.868  70.417  1.00  0.00    -0.251 C  
HETATM   10  H   UNL     1      -9.586   9.526  71.135  1.00  0.00     0.000 HD 
HETATM   11  C   UNL     1     -11.871   9.083  70.716  1.00  0.00    -0.251 A  
HETATM   12  C   UNL     1     -12.676   9.119  71.846  1.00  0.00    -0.464 A  
HETATM   13  C   UNL     1     -13.198  10.347  72.297  1.00  0.00    -0.285 A  
HETATM   14  C   UNL     1     -12.932  11.535  71.581  1.00  0.00    -0.394 A  
HETATM   15  O   UNL     1     -13.179  12.729  72.201  1.00  0.00    -0.475 OA 
HETATM   16  C   UNL     1     -12.229  11.453  70.388  1.00  0.00    -0.362 A  
HETATM   17  H   UNL     1     -13.000  13.529  71.720  1.00  0.00     0.000 HD 
HETATM   18  C   UNL     1     -11.735  10.249  69.920  1.00  0.00    -0.298 A  
HETATM   19  C   UNL     1     -10.675  10.481  68.830  1.00  0.00    -0.253 C  
HETATM   20  C   UNL     1     -10.729   9.759  67.243  1.00  0.00    -0.296 C  
HETATM   21  C   UNL     1     -10.484  11.981  69.204  1.00  0.00     0.033 C  
HETATM   22  O   UNL     1     -11.754  12.522  69.652  1.00  0.00    -0.300 OA 
HETATM   23  C   UNL     1      -9.812   8.233  67.005  1.00  0.00    -0.232 C  
HETATM   24  N   UNL     1      -9.675   7.356  68.212  1.00  0.00    -0.150 NA 
ENDROOT
BRANCH  24  25
HETATM   25  C   UNL     1      -8.444   6.778  68.746  1.00  0.00    -0.124 C  
BRANCH  25  26
HETATM   26  C   UNL     1      -8.294   5.263  68.647  1.00  0.00    -0.089 C  
HETATM   27  C   UNL     1      -9.597   4.569  68.103  1.00  0.00    -0.203 C  
HETATM   28  C   UNL     1      -8.682   3.442  67.592  1.00  0.00    -0.131 C  
HETATM   29  C   UNL     1      -7.587   4.533  67.452  1.00  0.00    -0.082 C  
ENDBRANCH  25  26
ENDBRANCH  24  25
TORSDOF 2
ENDMDL
MODEL       55
REMARK 921   NORMALIZED FREE ENERGY PREDICTED BY IDOCK:   -5.43 KCAL/MOL
REMARK 922        TOTAL FREE ENERGY PREDICTED BY IDOCK:   -6.61 KCAL/MOL
REMARK 923 INTER-LIGAND FREE ENERGY PREDICTED BY IDOCK:   -6.08 KCAL/MOL
REMARK 924 INTRA-LIGAND FREE ENERGY PREDICTED BY IDOCK:   -0.53 KCAL/MOL
REMARK 927      BINDING AFFINITY PREDICTED BY RF-SCORE:    0.00 PKD
ROOT
HETATM    1  O   UNL     1     -11.771  13.286  70.374  1.00  0.00    -0.520 OA 
HETATM    2  C   UNL     1     -11.775  12.193  69.432  1.00  0.00    -0.329 C  
HETATM    3  H   UNL     1     -12.487  13.152  70.984  1.00  0.00     0.000 HD 
HETATM    4  C   UNL     1     -10.620  12.409  68.446  1.00  0.00    -0.251 C  
HETATM    5  C   UNL     1      -9.295  11.505  68.697  1.00  0.00    -0.142 C  
HETATM    6  C   UNL     1      -9.411   9.998  69.357  1.00  0.00    -0.223 C  
HETATM    7  O   UNL     1      -8.849  10.134  70.658  1.00  0.00    -0.284 OA 
HETATM    8  C   UNL     1      -9.082   8.456  68.806  1.00  0.00    -0.143 C  
HETATM    9  C   UNL     1      -9.144   7.320  69.829  1.00  0.00    -0.141 C  
HETATM   10  H   UNL     1      -8.915   9.266  71.038  1.00  0.00     0.000 HD 
HETATM   11  C   UNL     1     -10.454   7.534  70.562  1.00  0.00    -0.224 A  
HETATM   12  C   UNL     1     -10.788   6.750  71.658  1.00  0.00    -0.259 A  
HETATM   13  C   UNL     1     -11.816   7.161  72.528  1.00  0.00    -0.166 A  
HETATM   14  C   UNL     1     -12.532   8.350  72.268  1.00  0.00    -0.361 A  
HETATM   15  O   UNL     1     -13.292   8.879  73.275  1.00  0.00    -0.912 OA 
HETATM   16  C   UNL     1     -12.263   9.049  71.100  1.00  0.00    -0.275 A  
HETATM   17  H   UNL     1     -13.773   9.679  73.100  1.00  0.00     0.000 HD 
HETATM   18  C   UNL     1     -11.274   8.641  70.224  1.00  0.00    -0.196 A  
HETATM   19  C   UNL     1     -10.905   9.774  69.251  1.00  0.00    -0.240 C  
HETATM   20  C   UNL     1     -10.908   9.614  67.515  1.00  0.00    -0.265 C  
HETATM   21  C   UNL     1     -11.589  10.870  70.122  1.00  0.00    -0.338 C  
HETATM   22  O   UNL     1     -12.754  10.299  70.771  1.00  0.00    -0.335 OA 
HETATM   23  C   UNL     1      -9.347   9.204  66.727  1.00  0.00    -0.165 C  
HETATM   24  N   UNL     1      -8.395   8.384  67.544  1.00  0.00    -0.128 NA 
ENDROOT
BRANCH  24  25
HETATM   25  C   UNL     1      -6.985   8.665  67.801  1.00  0.00    -0.075 C  
BRANCH  25  26
HETATM   26  C   UNL     1      -6.016   7.492  67.693  1.00  0.00    -0.039 C  
HETATM   27  C   UNL     1      -5.648   6.890  69.100  1.00  0.00    -0.018 C  
HETATM   28  C   UNL     1      -5.382   5.563  68.368  1.00  0.00    -0.004 C  
HETATM   29  C   UNL     1      -6.458   6.026  67.349  1.00  0.00    -0.047 C  
ENDBRANCH  25  26
ENDBRANCH  24  25
TORSDOF 2
ENDMDL
MODEL       56
REMARK 921   NORMALIZED FREE ENERGY PREDICTED BY IDOCK:   -5.42 KCAL/MOL
REMARK 922        TOTAL FREE ENERGY PREDICTED BY IDOCK:   -6.60 KCAL/MOL
REMARK 923 INTER-LIGAND FREE ENERGY PREDICTED BY IDOCK:   -6.27 KCAL/MOL
REMARK 924 INTRA-LIGAND FREE ENERGY PREDICTED BY IDOCK:   -0.33 KCAL/MOL
REMARK 927      BINDING AFFINITY PREDICTED BY RF-SCORE:    0.00 PKD
ROOT
HETATM    1  O   UNL     1     -13.033  10.049  70.664  1.00  0.00    -0.530 OA 
HETATM    2  C   UNL     1     -11.711  10.512  70.318  1.00  0.00    -0.332 C  
HETATM    3  H   UNL     1     -13.396  10.644  71.310  1.00  0.00     0.000 HD 
HETATM    4  C   UNL     1     -11.127   9.551  69.276  1.00  0.00    -0.109 C  
HETATM    5  C   UNL     1     -11.147  10.072  67.739  1.00  0.00    -0.246 C  
HETATM    6  C   UNL     1     -11.025  11.680  67.389  1.00  0.00    -0.261 C  
HETATM    7  O   UNL     1     -12.318  12.040  66.912  1.00  0.00    -0.334 OA 
HETATM    8  C   UNL     1      -9.896  12.616  66.592  1.00  0.00    -0.244 C  
HETATM    9  C   UNL     1     -10.269  14.073  66.310  1.00  0.00    -0.300 C  
HETATM   10  H   UNL     1     -12.248  12.966  66.710  1.00  0.00     0.000 HD 
HETATM   11  C   UNL     1     -10.803  14.596  67.631  1.00  0.00    -0.284 A  
HETATM   12  C   UNL     1     -11.356  15.866  67.717  1.00  0.00    -0.199 A  
HETATM   13  C   UNL     1     -12.143  16.214  68.832  1.00  0.00     0.133 A  
HETATM   14  C   UNL     1     -12.340  15.286  69.879  1.00  0.00    -0.288 A  
HETATM   15  O   UNL     1     -13.343  15.530  70.776  1.00  0.00    -0.665 OA 
HETATM   16  C   UNL     1     -11.674  14.070  69.826  1.00  0.00    -0.313 A  
HETATM   17  H   UNL     1     -13.476  14.906  71.480  1.00  0.00     0.000 HD 
HETATM   18  C   UNL     1     -10.877  13.727  68.750  1.00  0.00    -0.281 A  
HETATM   19  C   UNL     1     -10.595  12.215  68.739  1.00  0.00    -0.230 C  
HETATM   20  C   UNL     1      -8.998  11.517  68.672  1.00  0.00    -0.115 C  
HETATM   21  C   UNL     1     -11.747  11.899  69.739  1.00  0.00    -0.331 C  
HETATM   22  O   UNL     1     -11.874  12.999  70.677  1.00  0.00    -0.223 OA 
HETATM   23  C   UNL     1      -8.368  11.065  67.053  1.00  0.00    -0.137 C  
HETATM   24  N   UNL     1      -8.864  11.889  65.903  1.00  0.00    -0.027 NA 
ENDROOT
BRANCH  24  25
HETATM   25  C   UNL     1      -9.441  11.400  64.652  1.00  0.00    -0.148 C  
BRANCH  25  26
HETATM   26  C   UNL     1      -8.884  10.092  64.100  1.00  0.00    -0.243 C  
HETATM   27  C   UNL     1      -9.196   9.910  62.568  1.00  0.00    -0.307 C  
HETATM   28  C   UNL     1      -7.940   9.024  62.504  1.00  0.00    -0.134 C  
HETATM   29  C   UNL     1      -7.389   9.895  63.665  1.00  0.00    -0.126 C  
ENDBRANCH  25  26
ENDBRANCH  24  25
TORSDOF 2
ENDMDL
MODEL       57
REMARK 921   NORMALIZED FREE ENERGY PREDICTED BY IDOCK:   -5.41 KCAL/MOL
REMARK 922        TOTAL FREE ENERGY PREDICTED BY IDOCK:   -6.58 KCAL/MOL
REMARK 923 INTER-LIGAND FREE ENERGY PREDICTED BY IDOCK:   -6.09 KCAL/MOL
REMARK 924 INTRA-LIGAND FREE ENERGY PREDICTED BY IDOCK:   -0.50 KCAL/MOL
REMARK 927      BINDING AFFINITY PREDICTED BY RF-SCORE:    0.00 PKD
ROOT
HETATM    1  O   UNL     1      -5.927   8.352  68.632  1.00  0.00    -0.042 OA 
HETATM    2  C   UNL     1      -7.353   8.380  68.408  1.00  0.00    -0.094 C  
HETATM    3  H   UNL     1      -5.556   7.669  68.086  1.00  0.00     0.000 HD 
HETATM    4  C   UNL     1      -7.951   9.482  69.290  1.00  0.00    -0.094 C  
HETATM    5  C   UNL     1      -8.329  10.869  68.535  1.00  0.00    -0.142 C  
HETATM    6  C   UNL     1      -8.801  10.870  66.954  1.00  0.00    -0.142 C  
HETATM    7  O   UNL     1      -7.714  11.470  66.257  1.00  0.00    -0.353 OA 
HETATM    8  C   UNL     1     -10.214  11.272  66.161  1.00  0.00    -0.245 C  
HETATM    9  C   UNL     1     -10.169  11.318  64.632  1.00  0.00    -0.357 C  
HETATM   10  H   UNL     1      -7.986  11.471  65.347  1.00  0.00     0.000 HD 
HETATM   11  C   UNL     1      -9.486  10.024  64.229  1.00  0.00    -0.336 A  
HETATM   12  C   UNL     1      -9.161   9.780  62.902  1.00  0.00    -0.275 A  
HETATM   13  C   UNL     1      -8.244   8.761  62.580  1.00  0.00    -0.194 A  
HETATM   14  C   UNL     1      -7.682   7.964  63.602  1.00  0.00    -0.136 A  
HETATM   15  O   UNL     1      -6.581   7.211  63.301  1.00  0.00    -0.050 OA 
HETATM   16  C   UNL     1      -8.118   8.147  64.907  1.00  0.00    -0.153 A  
HETATM   17  H   UNL     1      -6.202   6.675  63.988  1.00  0.00     0.000 HD 
HETATM   18  C   UNL     1      -9.038   9.126  65.232  1.00  0.00    -0.252 A  
HETATM   19  C   UNL     1      -9.043   9.389  66.747  1.00  0.00    -0.168 C  
HETATM   20  C   UNL     1     -10.472   9.333  67.746  1.00  0.00    -0.313 C  
HETATM   21  C   UNL     1      -7.679   8.672  66.970  1.00  0.00    -0.095 C  
HETATM   22  O   UNL     1      -7.566   7.568  66.035  1.00  0.00    -0.083 OA 
HETATM   23  C   UNL     1     -11.320  10.886  68.053  1.00  0.00    -0.312 C  
HETATM   24  N   UNL     1     -11.216  11.915  66.969  1.00  0.00    -0.304 NA 
ENDROOT
BRANCH  24  25
HETATM   25  C   UNL     1     -10.821  13.314  67.116  1.00  0.00    -0.258 C  
BRANCH  25  26
HETATM   26  C   UNL     1     -11.574  14.336  66.270  1.00  0.00    -0.379 C  
HETATM   27  C   UNL     1     -10.774  14.744  64.976  1.00  0.00    -0.452 C  
HETATM   28  C   UNL     1     -12.137  15.066  64.338  1.00  0.00    -0.373 C  
HETATM   29  C   UNL     1     -12.717  13.961  65.262  1.00  0.00    -0.485 C  
ENDBRANCH  25  26
ENDBRANCH  24  25
TORSDOF 2
ENDMDL
MODEL       58
REMARK 921   NORMALIZED FREE ENERGY PREDICTED BY IDOCK:   -5.41 KCAL/MOL
REMARK 922        TOTAL FREE ENERGY PREDICTED BY IDOCK:   -6.58 KCAL/MOL
REMARK 923 INTER-LIGAND FREE ENERGY PREDICTED BY IDOCK:   -6.31 KCAL/MOL
REMARK 924 INTRA-LIGAND FREE ENERGY PREDICTED BY IDOCK:   -0.27 KCAL/MOL
REMARK 927      BINDING AFFINITY PREDICTED BY RF-SCORE:    0.00 PKD
ROOT
HETATM    1  O   UNL     1      -8.525   5.061  74.211  1.00  0.00    -0.108 OA 
HETATM    2  C   UNL     1      -9.797   5.383  73.609  1.00  0.00    -0.163 C  
HETATM    3  H   UNL     1      -8.291   4.178  73.952  1.00  0.00     0.000 HD 
HETATM    4  C   UNL     1     -10.175   6.808  74.028  1.00  0.00    -0.399 C  
HETATM    5  C   UNL     1      -9.942   7.962  72.910  1.00  0.00    -0.360 C  
HETATM    6  C   UNL     1     -10.076   7.620  71.301  1.00  0.00    -0.186 C  
HETATM    7  O   UNL     1      -8.741   7.695  70.809  1.00  0.00    -0.136 OA 
HETATM    8  C   UNL     1     -11.108   8.116  70.086  1.00  0.00    -0.187 C  
HETATM    9  C   UNL     1     -10.756   7.700  68.656  1.00  0.00    -0.095 C  
HETATM   10  H   UNL     1      -8.818   7.498  69.882  1.00  0.00     0.000 HD 
HETATM   11  C   UNL     1     -10.453   6.216  68.752  1.00  0.00    -0.295 A  
HETATM   12  C   UNL     1      -9.972   5.521  67.651  1.00  0.00    -0.187 A  
HETATM   13  C   UNL     1      -9.380   4.255  67.825  1.00  0.00    -0.200 A  
HETATM   14  C   UNL     1      -9.307   3.677  69.111  1.00  0.00    -0.174 A  
HETATM   15  O   UNL     1      -8.463   2.616  69.295  1.00  0.00    -0.057 OA 
HETATM   16  C   UNL     1      -9.906   4.338  70.175  1.00  0.00    -0.201 A  
HETATM   17  H   UNL     1      -8.414   2.227  70.160  1.00  0.00     0.000 HD 
HETATM   18  C   UNL     1     -10.514   5.568  70.012  1.00  0.00    -0.373 A  
HETATM   19  C   UNL     1     -10.728   6.255  71.371  1.00  0.00    -0.297 C  
HETATM   20  C   UNL     1     -12.266   6.856  71.933  1.00  0.00    -0.370 C  
HETATM   21  C   UNL     1      -9.730   5.313  72.109  1.00  0.00    -0.164 C  
HETATM   22  O   UNL     1      -9.794   3.994  71.509  1.00  0.00    -0.176 OA 
HETATM   23  C   UNL     1     -12.622   8.593  71.646  1.00  0.00    -0.338 C  
HETATM   24  N   UNL     1     -11.991   9.199  70.429  1.00  0.00    -0.040 NA 
ENDROOT
BRANCH  24  25
HETATM   25  C   UNL     1     -11.211  10.432  70.362  1.00  0.00    -0.321 C  
BRANCH  25  26
HETATM   26  C   UNL     1     -11.827  11.597  69.594  1.00  0.00    -0.419 C  
HETATM   27  C   UNL     1     -12.186  12.808  70.534  1.00  0.00    -0.389 C  
HETATM   28  C   UNL     1     -12.017  13.708  69.297  1.00  0.00    -0.384 C  
HETATM   29  C   UNL     1     -10.988  12.658  68.798  1.00  0.00    -0.289 C  
ENDBRANCH  25  26
ENDBRANCH  24  25
TORSDOF 2
ENDMDL
MODEL       59
REMARK 921   NORMALIZED FREE ENERGY PREDICTED BY IDOCK:   -5.39 KCAL/MOL
REMARK 922        TOTAL FREE ENERGY PREDICTED BY IDOCK:   -6.57 KCAL/MOL
REMARK 923 INTER-LIGAND FREE ENERGY PREDICTED BY IDOCK:   -6.09 KCAL/MOL
REMARK 924 INTRA-LIGAND FREE ENERGY PREDICTED BY IDOCK:   -0.48 KCAL/MOL
REMARK 927      BINDING AFFINITY PREDICTED BY RF-SCORE:    0.00 PKD
ROOT
HETATM    1  O   UNL     1     -13.543   9.654  71.124  1.00  0.00    -0.469 OA 
HETATM    2  C   UNL     1     -12.102   9.744  71.143  1.00  0.00    -0.370 C  
HETATM    3  H   UNL     1     -13.894  10.536  71.157  1.00  0.00     0.000 HD 
HETATM    4  C   UNL     1     -11.536   8.320  71.091  1.00  0.00    -0.307 C  
HETATM    5  C   UNL     1     -10.967   7.835  69.650  1.00  0.00    -0.128 C  
HETATM    6  C   UNL     1     -10.308   8.916  68.593  1.00  0.00    -0.204 C  
HETATM    7  O   UNL     1     -11.255   9.002  67.533  1.00  0.00    -0.397 OA 
HETATM    8  C   UNL     1      -8.783   9.133  67.948  1.00  0.00    -0.128 C  
HETATM    9  C   UNL     1      -8.639  10.162  66.825  1.00  0.00    -0.129 C  
HETATM   10  H   UNL     1     -10.875   9.625  66.924  1.00  0.00     0.000 HD 
HETATM   11  C   UNL     1      -9.361  11.394  67.338  1.00  0.00    -0.171 A  
HETATM   12  C   UNL     1      -9.539  12.501  66.519  1.00  0.00    -0.242 A  
HETATM   13  C   UNL     1     -10.483  13.486  66.868  1.00  0.00    -0.271 A  
HETATM   14  C   UNL     1     -11.223  13.368  68.066  1.00  0.00    -0.268 A  
HETATM   15  O   UNL     1     -12.332  14.153  68.219  1.00  0.00    -0.574 OA 
HETATM   16  C   UNL     1     -10.936  12.317  68.925  1.00  0.00    -0.219 A  
HETATM   17  H   UNL     1     -12.829  14.074  69.024  1.00  0.00     0.000 HD 
HETATM   18  C   UNL     1      -9.992  11.358  68.607  1.00  0.00    -0.209 A  
HETATM   19  C   UNL     1     -10.152  10.117  69.502  1.00  0.00    -0.258 C  
HETATM   20  C   UNL     1      -8.864   9.420  70.448  1.00  0.00    -0.290 C  
HETATM   21  C   UNL     1     -11.583  10.522  69.966  1.00  0.00    -0.313 C  
HETATM   22  O   UNL     1     -11.662  11.968  70.049  1.00  0.00    -0.312 OA 
HETATM   23  C   UNL     1      -7.947   8.063  69.711  1.00  0.00    -0.115 C  
HETATM   24  N   UNL     1      -7.842   8.078  68.216  1.00  0.00    -0.120 NA 
ENDROOT
BRANCH  24  25
HETATM   25  C   UNL     1      -8.147   6.982  67.300  1.00  0.00    -0.115 C  
BRANCH  25  26
HETATM   26  C   UNL     1      -8.064   5.567  67.864  1.00  0.00    -0.100 C  
HETATM   27  C   UNL     1      -9.461   4.842  67.864  1.00  0.00    -0.172 C  
HETATM   28  C   UNL     1      -8.679   3.519  67.789  1.00  0.00    -0.129 C  
HETATM   29  C   UNL     1      -7.587   4.324  67.034  1.00  0.00    -0.081 C  
ENDBRANCH  25  26
ENDBRANCH  24  25
TORSDOF 2
ENDMDL
MODEL       60
REMARK 921   NORMALIZED FREE ENERGY PREDICTED BY IDOCK:   -5.36 KCAL/MOL
REMARK 922        TOTAL FREE ENERGY PREDICTED BY IDOCK:   -6.53 KCAL/MOL
REMARK 923 INTER-LIGAND FREE ENERGY PREDICTED BY IDOCK:   -6.27 KCAL/MOL
REMARK 924 INTRA-LIGAND FREE ENERGY PREDICTED BY IDOCK:   -0.26 KCAL/MOL
REMARK 927      BINDING AFFINITY PREDICTED BY RF-SCORE:    0.00 PKD
ROOT
HETATM    1  O   UNL     1     -12.978  14.794  64.279  1.00  0.00    -0.512 OA 
HETATM    2  C   UNL     1     -12.798  13.944  65.431  1.00  0.00    -0.427 C  
HETATM    3  H   UNL     1     -13.159  15.675  64.586  1.00  0.00     0.000 HD 
HETATM    4  C   UNL     1     -12.506  12.524  64.934  1.00  0.00    -0.524 C  
HETATM    5  C   UNL     1     -10.953  12.056  64.996  1.00  0.00    -0.355 C  
HETATM    6  C   UNL     1      -9.939  12.639  66.160  1.00  0.00    -0.261 C  
HETATM    7  O   UNL     1      -9.043  13.494  65.457  1.00  0.00    -0.179 OA 
HETATM    8  C   UNL     1      -9.109  11.950  67.434  1.00  0.00    -0.178 C  
HETATM    9  C   UNL     1      -8.099  12.833  68.170  1.00  0.00    -0.158 C  
HETATM   10  H   UNL     1      -8.460  13.830  66.126  1.00  0.00     0.000 HD 
HETATM   11  C   UNL     1      -8.845  14.126  68.441  1.00  0.00    -0.187 A  
HETATM   12  C   UNL     1      -8.190  15.217  68.994  1.00  0.00    -0.205 A  
HETATM   13  C   UNL     1      -8.779  16.495  68.930  1.00  0.00    -0.247 A  
HETATM   14  C   UNL     1     -10.050  16.661  68.337  1.00  0.00    -0.268 A  
HETATM   15  O   UNL     1     -10.449  17.928  68.012  1.00  0.00    -0.369 OA 
HETATM   16  C   UNL     1     -10.737  15.536  67.905  1.00  0.00    -0.294 A  
HETATM   17  H   UNL     1     -11.303  18.040  67.612  1.00  0.00     0.000 HD 
HETATM   18  C   UNL     1     -10.181  14.272  67.987  1.00  0.00    -0.226 A  
HETATM   19  C   UNL     1     -10.945  13.281  67.093  1.00  0.00    -0.288 C  
HETATM   20  C   UNL     1     -11.611  11.770  67.654  1.00  0.00    -0.364 C  
HETATM   21  C   UNL     1     -11.653  14.410  66.287  1.00  0.00    -0.372 C  
HETATM   22  O   UNL     1     -11.907  15.533  67.169  1.00  0.00     0.001 OA 
HETATM   23  C   UNL     1     -10.602  10.300  67.440  1.00  0.00    -0.270 C  
HETATM   24  N   UNL     1      -9.119  10.511  67.473  1.00  0.00    -0.138 NA 
ENDROOT
BRANCH  24  25
HETATM   25  C   UNL     1      -8.140  10.045  66.495  1.00  0.00    -0.119 C  
BRANCH  25  26
HETATM   26  C   UNL     1      -8.068   8.540  66.254  1.00  0.00    -0.107 C  
HETATM   27  C   UNL     1      -6.887   8.146  65.290  1.00  0.00    -0.059 C  
HETATM   28  C   UNL     1      -6.887   6.775  65.990  1.00  0.00    -0.063 C  
HETATM   29  C   UNL     1      -7.394   7.530  67.248  1.00  0.00    -0.098 C  
ENDBRANCH  25  26
ENDBRANCH  24  25
TORSDOF 2
ENDMDL
MODEL       61
REMARK 921   NORMALIZED FREE ENERGY PREDICTED BY IDOCK:   -5.34 KCAL/MOL
REMARK 922        TOTAL FREE ENERGY PREDICTED BY IDOCK:   -6.51 KCAL/MOL
REMARK 923 INTER-LIGAND FREE ENERGY PREDICTED BY IDOCK:   -6.16 KCAL/MOL
REMARK 924 INTRA-LIGAND FREE ENERGY PREDICTED BY IDOCK:   -0.35 KCAL/MOL
REMARK 927      BINDING AFFINITY PREDICTED BY RF-SCORE:    0.00 PKD
ROOT
HETATM    1  O   UNL     1     -10.171  10.493  62.799  1.00  0.00    -0.706 OA 
HETATM    2  C   UNL     1      -9.338  10.932  63.893  1.00  0.00    -0.240 C  
HETATM    3  H   UNL     1      -9.982   9.577  62.634  1.00  0.00     0.000 HD 
HETATM    4  C   UNL     1      -9.641  12.411  64.159  1.00  0.00     0.119 C  
HETATM    5  C   UNL     1     -10.590  12.722  65.439  1.00  0.00    -0.309 C  
HETATM    6  C   UNL     1     -10.576  11.737  66.762  1.00  0.00    -0.238 C  
HETATM    7  O   UNL     1     -11.837  11.076  66.729  1.00  0.00    -0.160 OA 
HETATM    8  C   UNL     1     -10.136  11.939  68.360  1.00  0.00    -0.206 C  
HETATM    9  C   UNL     1     -10.471  10.801  69.326  1.00  0.00    -0.243 C  
HETATM   10  H   UNL     1     -11.829  10.509  67.490  1.00  0.00     0.000 HD 
HETATM   11  C   UNL     1      -9.989   9.545  68.623  1.00  0.00    -0.181 A  
HETATM   12  C   UNL     1     -10.244   8.291  69.162  1.00  0.00    -0.223 A  
HETATM   13  C   UNL     1     -10.104   7.142  68.360  1.00  0.00    -0.182 A  
HETATM   14  C   UNL     1      -9.670   7.260  67.021  1.00  0.00    -0.181 A  
HETATM   15  O   UNL     1      -9.844   6.187  66.191  1.00  0.00    -0.355 OA 
HETATM   16  C   UNL     1      -9.304   8.511  66.546  1.00  0.00    -0.203 A  
HETATM   17  H   UNL     1      -9.553   6.266  65.290  1.00  0.00     0.000 HD 
HETATM   18  C   UNL     1      -9.411   9.644  67.332  1.00  0.00    -0.155 A  
HETATM   19  C   UNL     1      -9.338  10.915  66.469  1.00  0.00    -0.195 C  
HETATM   20  C   UNL     1      -8.221  12.225  66.749  1.00  0.00    -0.058 C  
HETATM   21  C   UNL     1      -9.610  10.143  65.144  1.00  0.00    -0.292 C  
HETATM   22  O   UNL     1      -9.010   8.825  65.232  1.00  0.00    -0.194 OA 
HETATM   23  C   UNL     1      -8.813  13.612  67.725  1.00  0.00    -0.190 C  
HETATM   24  N   UNL     1      -9.851  13.292  68.757  1.00  0.00    -0.079 NA 
ENDROOT
BRANCH  24  25
HETATM   25  C   UNL     1     -11.133  13.964  68.956  1.00  0.00    -0.268 C  
BRANCH  25  26
HETATM   26  C   UNL     1     -11.609  14.131  70.395  1.00  0.00    -0.236 C  
HETATM   27  C   UNL     1     -12.906  15.018  70.496  1.00  0.00    -0.380 C  
HETATM   28  C   UNL     1     -13.222  14.257  71.796  1.00  0.00    -0.444 C  
HETATM   29  C   UNL     1     -12.462  13.061  71.162  1.00  0.00    -0.364 C  
ENDBRANCH  25  26
ENDBRANCH  24  25
TORSDOF 2
ENDMDL
MODEL       62
REMARK 921   NORMALIZED FREE ENERGY PREDICTED BY IDOCK:   -5.33 KCAL/MOL
REMARK 922        TOTAL FREE ENERGY PREDICTED BY IDOCK:   -6.50 KCAL/MOL
REMARK 923 INTER-LIGAND FREE ENERGY PREDICTED BY IDOCK:   -6.13 KCAL/MOL
REMARK 924 INTRA-LIGAND FREE ENERGY PREDICTED BY IDOCK:   -0.37 KCAL/MOL
REMARK 927      BINDING AFFINITY PREDICTED BY RF-SCORE:    0.00 PKD
ROOT
HETATM    1  O   UNL     1     -10.192  18.057  68.818  1.00  0.00    -0.377 OA 
HETATM    2  C   UNL     1     -10.408  16.656  69.091  1.00  0.00    -0.326 C  
HETATM    3  H   UNL     1      -9.454  18.349  69.340  1.00  0.00     0.000 HD 
HETATM    4  C   UNL     1     -11.599  16.185  68.249  1.00  0.00    -0.181 C  
HETATM    5  C   UNL     1     -11.234  15.336  66.915  1.00  0.00    -0.256 C  
HETATM    6  C   UNL     1      -9.887  14.384  66.860  1.00  0.00    -0.261 C  
HETATM    7  O   UNL     1      -9.011  15.057  65.961  1.00  0.00    -0.477 OA 
HETATM    8  C   UNL     1      -9.626  12.742  66.709  1.00  0.00    -0.244 C  
HETATM    9  C   UNL     1      -8.183  12.280  66.499  1.00  0.00     0.110 C  
HETATM   10  H   UNL     1      -8.236  14.510  65.929  1.00  0.00     0.000 HD 
HETATM   11  C   UNL     1      -7.384  13.019  67.556  1.00  0.00    -0.154 A  
HETATM   12  C   UNL     1      -5.999  12.935  67.583  1.00  0.00    -0.148 A  
HETATM   13  C   UNL     1      -5.254  13.869  68.330  1.00  0.00    -0.110 A  
HETATM   14  C   UNL     1      -5.915  14.867  69.078  1.00  0.00    -0.096 A  
HETATM   15  O   UNL     1      -5.179  15.929  69.527  1.00  0.00    -0.106 OA 
HETATM   16  C   UNL     1      -7.301  14.853  69.133  1.00  0.00    -0.158 A  
HETATM   17  H   UNL     1      -5.624  16.602  70.030  1.00  0.00     0.000 HD 
HETATM   18  C   UNL     1      -8.044  13.924  68.427  1.00  0.00    -0.145 A  
HETATM   19  C   UNL     1      -9.515  14.363  68.328  1.00  0.00    -0.207 C  
HETATM   20  C   UNL     1     -10.866  13.372  68.808  1.00  0.00    -0.275 C  
HETATM   21  C   UNL     1      -9.200  15.833  68.736  1.00  0.00    -0.216 C  
HETATM   22  O   UNL     1      -8.102  15.836  69.684  1.00  0.00    -0.197 OA 
HETATM   23  C   UNL     1     -11.667  12.400  67.527  1.00  0.00    -0.357 C  
HETATM   24  N   UNL     1     -10.790  11.957  66.396  1.00  0.00    -0.267 NA 
ENDROOT
BRANCH  24  25
HETATM   25  C   UNL     1     -11.047  12.115  64.967  1.00  0.00    -0.320 C  
BRANCH  25  26
HETATM   26  C   UNL     1     -10.616  10.969  64.057  1.00  0.00    -0.395 C  
HETATM   27  C   UNL     1      -9.625  11.443  62.929  1.00  0.00    -0.366 C  
HETATM   28  C   UNL     1      -9.083  10.003  62.919  1.00  0.00    -0.301 C  
HETATM   29  C   UNL     1      -9.479   9.950  64.419  1.00  0.00    -0.304 C  
ENDBRANCH  25  26
ENDBRANCH  24  25
TORSDOF 2
ENDMDL
MODEL       63
REMARK 921   NORMALIZED FREE ENERGY PREDICTED BY IDOCK:   -5.33 KCAL/MOL
REMARK 922        TOTAL FREE ENERGY PREDICTED BY IDOCK:   -6.49 KCAL/MOL
REMARK 923 INTER-LIGAND FREE ENERGY PREDICTED BY IDOCK:   -6.13 KCAL/MOL
REMARK 924 INTRA-LIGAND FREE ENERGY PREDICTED BY IDOCK:   -0.36 KCAL/MOL
REMARK 927      BINDING AFFINITY PREDICTED BY RF-SCORE:    0.00 PKD
ROOT
HETATM    1  O   UNL     1     -10.989  11.012  63.929  1.00  0.00    -0.506 OA 
HETATM    2  C   UNL     1      -9.991  10.990  64.972  1.00  0.00    -0.285 C  
HETATM    3  H   UNL     1     -10.585  10.699  63.128  1.00  0.00     0.000 HD 
HETATM    4  C   UNL     1     -10.642  11.497  66.264  1.00  0.00    -0.309 C  
HETATM    5  C   UNL     1     -11.051  10.358  67.347  1.00  0.00    -0.297 C  
HETATM    6  C   UNL     1     -10.184   8.960  67.472  1.00  0.00    -0.248 C  
HETATM    7  O   UNL     1     -11.052   7.954  66.961  1.00  0.00    -0.419 OA 
HETATM    8  C   UNL     1      -9.242   8.276  68.670  1.00  0.00    -0.143 C  
HETATM    9  C   UNL     1      -8.763   6.840  68.449  1.00  0.00    -0.123 C  
HETATM   10  H   UNL     1     -10.553   7.149  67.034  1.00  0.00     0.000 HD 
HETATM   11  C   UNL     1      -8.209   6.833  67.036  1.00  0.00    -0.113 A  
HETATM   12  C   UNL     1      -7.793   5.648  66.446  1.00  0.00    -0.101 A  
HETATM   13  C   UNL     1      -7.604   5.586  65.052  1.00  0.00    -0.081 A  
HETATM   14  C   UNL     1      -7.803   6.738  64.258  1.00  0.00    -0.109 A  
HETATM   15  O   UNL     1      -7.920   6.575  62.905  1.00  0.00    -0.107 OA 
HETATM   16  C   UNL     1      -8.098   7.939  64.887  1.00  0.00    -0.144 A  
HETATM   17  H   UNL     1      -8.055   7.349  62.371  1.00  0.00     0.000 HD 
HETATM   18  C   UNL     1      -8.259   8.018  66.258  1.00  0.00    -0.116 A  
HETATM   19  C   UNL     1      -8.965   9.327  66.650  1.00  0.00    -0.165 C  
HETATM   20  C   UNL     1      -8.340  10.466  67.813  1.00  0.00    -0.114 C  
HETATM   21  C   UNL     1      -9.464   9.601  65.200  1.00  0.00    -0.265 C  
HETATM   22  O   UNL     1      -8.473   9.112  64.259  1.00  0.00    -0.175 OA 
HETATM   23  C   UNL     1      -8.925  10.315  69.505  1.00  0.00    -0.157 C  
HETATM   24  N   UNL     1      -9.296   8.932  69.949  1.00  0.00    -0.160 NA 
ENDROOT
BRANCH  24  25
HETATM   25  C   UNL     1     -10.539   8.518  70.596  1.00  0.00    -0.209 C  
BRANCH  25  26
HETATM   26  C   UNL     1     -11.297   9.584  71.380  1.00  0.00    -0.462 C  
HETATM   27  C   UNL     1     -12.369  10.326  70.497  1.00  0.00    -0.371 C  
HETATM   28  C   UNL     1     -13.135  10.597  71.803  1.00  0.00    -0.571 C  
HETATM   29  C   UNL     1     -12.511   9.274  72.324  1.00  0.00    -0.377 C  
ENDBRANCH  25  26
ENDBRANCH  24  25
TORSDOF 2
ENDMDL
MODEL       64
REMARK 921   NORMALIZED FREE ENERGY PREDICTED BY IDOCK:   -5.32 KCAL/MOL
REMARK 922        TOTAL FREE ENERGY PREDICTED BY IDOCK:   -6.48 KCAL/MOL
REMARK 923 INTER-LIGAND FREE ENERGY PREDICTED BY IDOCK:   -6.03 KCAL/MOL
REMARK 924 INTRA-LIGAND FREE ENERGY PREDICTED BY IDOCK:   -0.45 KCAL/MOL
REMARK 927      BINDING AFFINITY PREDICTED BY RF-SCORE:    0.00 PKD
ROOT
HETATM    1  O   UNL     1     -13.536  15.588  70.350  1.00  0.00    -0.791 OA 
HETATM    2  C   UNL     1     -12.204  15.110  70.062  1.00  0.00    -0.338 C  
HETATM    3  H   UNL     1     -13.460  16.362  70.895  1.00  0.00     0.000 HD 
HETATM    4  C   UNL     1     -12.326  13.860  69.184  1.00  0.00    -0.159 C  
HETATM    5  C   UNL     1     -12.031  14.073  67.602  1.00  0.00    -0.404 C  
HETATM    6  C   UNL     1     -10.960  15.217  67.087  1.00  0.00    -0.331 C  
HETATM    7  O   UNL     1     -11.771  16.213  66.470  1.00  0.00     0.555 OA 
HETATM    8  C   UNL     1      -9.497  15.168  66.285  1.00  0.00    -0.309 C  
HETATM    9  C   UNL     1      -8.911  16.501  65.815  1.00  0.00     0.034 C  
HETATM   10  H   UNL     1     -11.154  16.872  66.174  1.00  0.00     0.000 HD 
HETATM   11  C   UNL     1      -9.014  17.413  67.023  1.00  0.00    -0.253 A  
HETATM   12  C   UNL     1      -8.684  18.758  66.923  1.00  0.00    -0.298 A  
HETATM   13  C   UNL     1      -9.095  19.657  67.926  1.00  0.00    -0.396 A  
HETATM   14  C   UNL     1      -9.810  19.188  69.049  1.00  0.00    -0.375 A  
HETATM   15  O   UNL     1     -10.457  20.105  69.831  1.00  0.00    -0.627 OA 
HETATM   16  C   UNL     1     -10.019  17.823  69.185  1.00  0.00    -0.189 A  
HETATM   17  H   UNL     1     -10.939  19.789  70.586  1.00  0.00     0.000 HD 
HETATM   18  C   UNL     1      -9.596  16.926  68.221  1.00  0.00    -0.258 A  
HETATM   19  C   UNL     1     -10.289  15.565  68.400  1.00  0.00    -0.230 C  
HETATM   20  C   UNL     1      -9.443  14.047  68.539  1.00  0.00    -0.191 C  
HETATM   21  C   UNL     1     -11.394  16.146  69.333  1.00  0.00    -0.323 C  
HETATM   22  O   UNL     1     -10.825  17.216  70.130  1.00  0.00     0.029 OA 
HETATM   23  C   UNL     1      -9.221  13.091  67.035  1.00  0.00    -0.232 C  
HETATM   24  N   UNL     1      -9.120  13.880  65.765  1.00  0.00     0.308 NA 
ENDROOT
BRANCH  24  25
HETATM   25  C   UNL     1      -9.878  13.671  64.534  1.00  0.00     0.305 C  
BRANCH  25  26
HETATM   26  C   UNL     1     -11.074  12.727  64.612  1.00  0.00    -0.349 C  
HETATM   27  C   UNL     1     -12.376  13.362  63.995  1.00  0.00    -0.402 C  
HETATM   28  C   UNL     1     -12.842  11.923  63.715  1.00  0.00    -0.396 C  
HETATM   29  C   UNL     1     -11.336  11.567  63.590  1.00  0.00    -0.412 C  
ENDBRANCH  25  26
ENDBRANCH  24  25
TORSDOF 2
ENDMDL
MODEL       65
REMARK 921   NORMALIZED FREE ENERGY PREDICTED BY IDOCK:   -5.29 KCAL/MOL
REMARK 922        TOTAL FREE ENERGY PREDICTED BY IDOCK:   -6.45 KCAL/MOL
REMARK 923 INTER-LIGAND FREE ENERGY PREDICTED BY IDOCK:   -6.31 KCAL/MOL
REMARK 924 INTRA-LIGAND FREE ENERGY PREDICTED BY IDOCK:   -0.14 KCAL/MOL
REMARK 927      BINDING AFFINITY PREDICTED BY RF-SCORE:    0.00 PKD
ROOT
HETATM    1  O   UNL     1      -5.635  14.051  67.729  1.00  0.00    -0.237 OA 
HETATM    2  C   UNL     1      -6.927  13.998  67.088  1.00  0.00     0.385 C  
HETATM    3  H   UNL     1      -5.149  14.777  67.354  1.00  0.00     0.000 HD 
HETATM    4  C   UNL     1      -7.711  12.828  67.692  1.00  0.00    -0.162 C  
HETATM    5  C   UNL     1      -8.847  13.223  68.783  1.00  0.00     0.146 C  
HETATM    6  C   UNL     1      -9.652  14.659  68.685  1.00  0.00    -0.219 C  
HETATM    7  O   UNL     1      -9.164  15.418  69.787  1.00  0.00    -0.373 OA 
HETATM    8  C   UNL     1     -11.244  15.087  68.422  1.00  0.00    -0.293 C  
HETATM    9  C   UNL     1     -11.612  16.561  68.607  1.00  0.00    -0.034 C  
HETATM   10  H   UNL     1      -9.628  16.245  69.730  1.00  0.00     0.000 HD 
HETATM   11  C   UNL     1     -10.549  17.322  67.836  1.00  0.00    -0.384 A  
HETATM   12  C   UNL     1     -10.496  18.708  67.886  1.00  0.00    -0.431 A  
HETATM   13  C   UNL     1      -9.334  19.381  67.462  1.00  0.00    -0.386 A  
HETATM   14  C   UNL     1      -8.238  18.651  66.953  1.00  0.00    -0.261 A  
HETATM   15  O   UNL     1      -7.032  19.288  66.848  1.00  0.00    -0.198 OA 
HETATM   16  C   UNL     1      -8.364  17.278  66.799  1.00  0.00    -0.245 A  
HETATM   17  H   UNL     1      -6.294  18.797  66.506  1.00  0.00     0.000 HD 
HETATM   18  C   UNL     1      -9.510  16.608  67.186  1.00  0.00    -0.236 A  
HETATM   19  C   UNL     1      -9.249  15.096  67.291  1.00  0.00    -0.208 C  
HETATM   20  C   UNL     1     -10.196  13.880  66.476  1.00  0.00    -0.280 C  
HETATM   21  C   UNL     1      -7.701  15.270  67.301  1.00  0.00    -0.211 C  
HETATM   22  O   UNL     1      -7.347  16.402  66.467  1.00  0.00    -0.229 OA 
HETATM   23  C   UNL     1     -11.542  13.132  67.401  1.00  0.00    -0.356 C  
HETATM   24  N   UNL     1     -12.187  14.000  68.438  1.00  0.00    -0.274 NA 
ENDROOT
BRANCH  24  25
HETATM   25  C   UNL     1     -12.438  13.665  69.838  1.00  0.00    -0.167 C  
BRANCH  25  26
HETATM   26  C   UNL     1     -11.930  12.312  70.325  1.00  0.00    -0.373 C  
HETATM   27  C   UNL     1     -12.802  11.736  71.503  1.00  0.00    -0.450 C  
HETATM   28  C   UNL     1     -12.351  10.339  71.040  1.00  0.00    -0.483 C  
HETATM   29  C   UNL     1     -12.259  10.951  69.617  1.00  0.00    -0.354 C  
ENDBRANCH  25  26
ENDBRANCH  24  25
TORSDOF 2
ENDMDL
MODEL       66
REMARK 921   NORMALIZED FREE ENERGY PREDICTED BY IDOCK:   -5.24 KCAL/MOL
REMARK 922        TOTAL FREE ENERGY PREDICTED BY IDOCK:   -6.40 KCAL/MOL
REMARK 923 INTER-LIGAND FREE ENERGY PREDICTED BY IDOCK:   -5.95 KCAL/MOL
REMARK 924 INTRA-LIGAND FREE ENERGY PREDICTED BY IDOCK:   -0.45 KCAL/MOL
REMARK 927      BINDING AFFINITY PREDICTED BY RF-SCORE:    0.00 PKD
ROOT
HETATM    1  O   UNL     1      -6.926  14.309  70.116  1.00  0.00    -0.388 OA 
HETATM    2  C   UNL     1      -6.854  13.520  68.909  1.00  0.00    -0.111 C  
HETATM    3  H   UNL     1      -7.262  15.168  69.888  1.00  0.00     0.000 HD 
HETATM    4  C   UNL     1      -6.311  12.135  69.277  1.00  0.00    -0.103 C  
HETATM    5  C   UNL     1      -7.411  10.944  69.370  1.00  0.00    -0.116 C  
HETATM    6  C   UNL     1      -8.763  10.964  68.425  1.00  0.00    -0.147 C  
HETATM    7  O   UNL     1      -9.829  11.224  69.332  1.00  0.00    -0.420 OA 
HETATM    8  C   UNL     1      -9.345   9.987  67.203  1.00  0.00    -0.149 C  
HETATM    9  C   UNL     1     -10.769  10.255  66.711  1.00  0.00    -0.216 C  
HETATM   10  H   UNL     1     -10.608  11.236  68.788  1.00  0.00     0.000 HD 
HETATM   11  C   UNL     1     -10.823  11.755  66.490  1.00  0.00    -0.323 A  
HETATM   12  C   UNL     1     -12.018  12.378  66.156  1.00  0.00    -0.397 A  
HETATM   13  C   UNL     1     -12.141  13.775  66.284  1.00  0.00    -0.484 A  
HETATM   14  C   UNL     1     -11.040  14.547  66.718  1.00  0.00    -0.325 A  
HETATM   15  O   UNL     1     -11.275  15.830  67.128  1.00  0.00    -0.246 OA 
HETATM   16  C   UNL     1      -9.823  13.915  66.926  1.00  0.00    -0.268 A  
HETATM   17  H   UNL     1     -10.535  16.349  67.420  1.00  0.00     0.000 HD 
HETATM   18  C   UNL     1      -9.682  12.547  66.777  1.00  0.00    -0.234 A  
HETATM   19  C   UNL     1      -8.386  12.056  67.444  1.00  0.00    -0.171 C  
HETATM   20  C   UNL     1      -7.165  11.111  66.634  1.00  0.00    -0.144 C  
HETATM   21  C   UNL     1      -8.206  13.364  68.271  1.00  0.00    -0.160 C  
HETATM   22  O   UNL     1      -8.700  14.486  67.494  1.00  0.00    -0.168 OA 
HETATM   23  C   UNL     1      -7.256   9.327  66.813  1.00  0.00    -0.083 C  
HETATM   24  N   UNL     1      -8.629   8.756  67.001  1.00  0.00    -0.115 NA 
ENDROOT
BRANCH  24  25
HETATM   25  C   UNL     1      -9.062   7.827  68.042  1.00  0.00    -0.128 C  
BRANCH  25  26
HETATM   26  C   UNL     1      -9.447   6.420  67.595  1.00  0.00    -0.120 C  
HETATM   27  C   UNL     1     -10.992   6.283  67.322  1.00  0.00    -0.455 C  
HETATM   28  C   UNL     1     -10.632   5.148  66.348  1.00  0.00    -0.336 C  
HETATM   29  C   UNL     1      -9.293   5.901  66.123  1.00  0.00    -0.150 C  
ENDBRANCH  25  26
ENDBRANCH  24  25
TORSDOF 2
ENDMDL
MODEL       67
REMARK 921   NORMALIZED FREE ENERGY PREDICTED BY IDOCK:   -5.24 KCAL/MOL
REMARK 922        TOTAL FREE ENERGY PREDICTED BY IDOCK:   -6.40 KCAL/MOL
REMARK 923 INTER-LIGAND FREE ENERGY PREDICTED BY IDOCK:   -6.00 KCAL/MOL
REMARK 924 INTRA-LIGAND FREE ENERGY PREDICTED BY IDOCK:   -0.39 KCAL/MOL
REMARK 927      BINDING AFFINITY PREDICTED BY RF-SCORE:    0.00 PKD
ROOT
HETATM    1  O   UNL     1     -11.235  17.159  67.900  1.00  0.00    -0.200 OA 
HETATM    2  C   UNL     1     -10.050  16.443  67.491  1.00  0.00    -0.261 C  
HETATM    3  H   UNL     1     -11.706  17.421  67.118  1.00  0.00     0.000 HD 
HETATM    4  C   UNL     1      -9.290  16.020  68.754  1.00  0.00    -0.222 C  
HETATM    5  C   UNL     1      -9.448  14.465  69.190  1.00  0.00     0.041 C  
HETATM    6  C   UNL     1      -9.683  13.288  68.059  1.00  0.00    -0.223 C  
HETATM    7  O   UNL     1     -11.031  12.870  68.252  1.00  0.00    -0.235 OA 
HETATM    8  C   UNL     1      -8.798  11.967  67.549  1.00  0.00    -0.172 C  
HETATM    9  C   UNL     1      -9.482  10.995  66.586  1.00  0.00    -0.207 C  
HETATM   10  H   UNL     1     -11.167  12.193  67.601  1.00  0.00     0.000 HD 
HETATM   11  C   UNL     1     -10.093  11.880  65.516  1.00  0.00    -0.277 A  
HETATM   12  C   UNL     1     -10.907  11.339  64.531  1.00  0.00    -0.354 A  
HETATM   13  C   UNL     1     -11.731  12.182  63.760  1.00  0.00    -0.576 A  
HETATM   14  C   UNL     1     -11.705  13.579  63.964  1.00  0.00    -0.395 A  
HETATM   15  O   UNL     1     -12.721  14.327  63.437  1.00  0.00    -0.947 OA 
HETATM   16  C   UNL     1     -10.793  14.104  64.868  1.00  0.00    -0.411 A  
HETATM   17  H   UNL     1     -12.704  15.267  63.575  1.00  0.00     0.000 HD 
HETATM   18  C   UNL     1      -9.959  13.289  65.611  1.00  0.00    -0.242 A  
HETATM   19  C   UNL     1      -9.357  14.061  66.798  1.00  0.00    -0.289 C  
HETATM   20  C   UNL     1      -7.648  14.168  67.130  1.00  0.00     0.024 C  
HETATM   21  C   UNL     1     -10.396  15.217  66.693  1.00  0.00    -0.274 C  
HETATM   22  O   UNL     1     -10.741  15.417  65.298  1.00  0.00    -0.363 OA 
HETATM   23  C   UNL     1      -6.962  12.983  68.293  1.00  0.00    -0.101 C  
HETATM   24  N   UNL     1      -7.644  11.650  68.349  1.00  0.00    -0.119 NA 
ENDROOT
BRANCH  24  25
HETATM   25  C   UNL     1      -8.123  10.954  69.541  1.00  0.00     0.101 C  
BRANCH  25  26
HETATM   26  C   UNL     1      -7.175   9.940  70.174  1.00  0.00    -0.159 C  
HETATM   27  C   UNL     1      -6.196   9.300  69.121  1.00  0.00    -0.042 C  
HETATM   28  C   UNL     1      -5.223   9.071  70.291  1.00  0.00    -0.027 C  
HETATM   29  C   UNL     1      -5.860  10.332  70.935  1.00  0.00    -0.074 C  
ENDBRANCH  25  26
ENDBRANCH  24  25
TORSDOF 2
ENDMDL
MODEL       68
REMARK 921   NORMALIZED FREE ENERGY PREDICTED BY IDOCK:   -5.05 KCAL/MOL
REMARK 922        TOTAL FREE ENERGY PREDICTED BY IDOCK:   -6.18 KCAL/MOL
REMARK 923 INTER-LIGAND FREE ENERGY PREDICTED BY IDOCK:   -5.82 KCAL/MOL
REMARK 924 INTRA-LIGAND FREE ENERGY PREDICTED BY IDOCK:   -0.36 KCAL/MOL
REMARK 927      BINDING AFFINITY PREDICTED BY RF-SCORE:    0.00 PKD
ROOT
HETATM    1  O   UNL     1     -13.535   8.890  73.104  1.00  0.00    -0.968 OA 
HETATM    2  C   UNL     1     -12.977   8.389  71.871  1.00  0.00    -0.355 C  
HETATM    3  H   UNL     1     -13.794   8.146  73.635  1.00  0.00     0.000 HD 
HETATM    4  C   UNL     1     -12.560   9.590  71.014  1.00  0.00    -0.331 C  
HETATM    5  C   UNL     1     -10.971   9.926  70.989  1.00  0.00    -0.360 C  
HETATM    6  C   UNL     1      -9.850   8.726  71.151  1.00  0.00    -0.244 C  
HETATM    7  O   UNL     1      -9.279   8.942  72.437  1.00  0.00    -0.362 OA 
HETATM    8  C   UNL     1      -8.668   8.095  70.155  1.00  0.00    -0.130 C  
HETATM    9  C   UNL     1      -7.691   7.095  70.777  1.00  0.00    -0.094 C  
HETATM   10  H   UNL     1      -8.634   8.251  72.530  1.00  0.00     0.000 HD 
HETATM   11  C   UNL     1      -8.571   6.111  71.525  1.00  0.00    -0.131 A  
HETATM   12  C   UNL     1      -8.010   5.123  72.321  1.00  0.00    -0.109 A  
HETATM   13  C   UNL     1      -8.806   4.443  73.263  1.00  0.00    -0.106 A  
HETATM   14  C   UNL     1     -10.182   4.741  73.374  1.00  0.00    -0.172 A  
HETATM   15  O   UNL     1     -10.849   4.304  74.485  1.00  0.00    -0.250 OA 
HETATM   16  C   UNL     1     -10.744   5.643  72.482  1.00  0.00    -0.239 A  
HETATM   17  H   UNL     1     -11.774   4.505  74.560  1.00  0.00     0.000 HD 
HETATM   18  C   UNL     1      -9.978   6.297  71.534  1.00  0.00    -0.208 A  
HETATM   19  C   UNL     1     -10.733   7.509  70.964  1.00  0.00    -0.243 C  
HETATM   20  C   UNL     1     -11.002   7.783  69.262  1.00  0.00    -0.007 C  
HETATM   21  C   UNL     1     -11.774   7.523  72.122  1.00  0.00    -0.303 C  
HETATM   22  O   UNL     1     -12.025   6.159  72.549  1.00  0.00    -0.244 OA 
HETATM   23  C   UNL     1      -9.826   8.835  68.405  1.00  0.00    -0.171 C  
HETATM   24  N   UNL     1      -8.426   8.827  68.941  1.00  0.00    -0.130 NA 
ENDROOT
BRANCH  24  25
HETATM   25  C   UNL     1      -7.609   9.986  69.289  1.00  0.00    -0.109 C  
BRANCH  25  26
HETATM   26  C   UNL     1      -7.978  11.313  68.634  1.00  0.00    -0.145 C  
HETATM   27  C   UNL     1      -6.876  12.415  68.856  1.00  0.00    -0.099 C  
HETATM   28  C   UNL     1      -7.377  13.059  67.552  1.00  0.00    -0.154 C  
HETATM   29  C   UNL     1      -7.765  11.622  67.111  1.00  0.00    -0.159 C  
ENDBRANCH  25  26
ENDBRANCH  24  25
TORSDOF 2
ENDMDL
MODEL       69
REMARK 921   NORMALIZED FREE ENERGY PREDICTED BY IDOCK:   -5.04 KCAL/MOL
REMARK 922        TOTAL FREE ENERGY PREDICTED BY IDOCK:   -6.17 KCAL/MOL
REMARK 923 INTER-LIGAND FREE ENERGY PREDICTED BY IDOCK:   -6.11 KCAL/MOL
REMARK 924 INTRA-LIGAND FREE ENERGY PREDICTED BY IDOCK:   -0.06 KCAL/MOL
REMARK 927      BINDING AFFINITY PREDICTED BY RF-SCORE:    0.00 PKD
ROOT
HETATM    1  O   UNL     1     -10.320  16.377  67.239  1.00  0.00    -0.278 OA 
HETATM    2  C   UNL     1     -10.979  15.222  66.676  1.00  0.00    -0.297 C  
HETATM    3  H   UNL     1     -10.860  16.710  67.946  1.00  0.00     0.000 HD 
HETATM    4  C   UNL     1     -10.107  14.686  65.535  1.00  0.00    -0.405 C  
HETATM    5  C   UNL     1      -9.223  13.368  65.876  1.00  0.00     0.181 C  
HETATM    6  C   UNL     1      -9.756  12.251  66.966  1.00  0.00    -0.205 C  
HETATM    7  O   UNL     1      -8.889  12.403  68.086  1.00  0.00    -0.182 OA 
HETATM    8  C   UNL     1     -10.201  10.644  66.866  1.00  0.00    -0.223 C  
HETATM    9  C   UNL     1     -10.453   9.905  68.182  1.00  0.00    -0.256 C  
HETATM   10  H   UNL     1      -9.196  11.759  68.714  1.00  0.00     0.000 HD 
HETATM   11  C   UNL     1     -11.356  10.831  68.976  1.00  0.00    -0.349 A  
HETATM   12  C   UNL     1     -11.693  10.534  70.289  1.00  0.00    -0.420 A  
HETATM   13  C   UNL     1     -12.236  11.535  71.118  1.00  0.00    -0.287 A  
HETATM   14  C   UNL     1     -12.469  12.830  70.605  1.00  0.00    -0.246 A  
HETATM   15  O   UNL     1     -12.693  13.845  71.494  1.00  0.00    -0.338 OA 
HETATM   16  C   UNL     1     -12.239  13.066  69.257  1.00  0.00    -0.089 A  
HETATM   17  H   UNL     1     -12.850  14.716  71.149  1.00  0.00     0.000 HD 
HETATM   18  C   UNL     1     -11.732  12.083  68.427  1.00  0.00    -0.390 A  
HETATM   19  C   UNL     1     -11.196  12.695  67.121  1.00  0.00    -0.348 C  
HETATM   20  C   UNL     1     -11.682  12.179  65.527  1.00  0.00    -0.384 C  
HETATM   21  C   UNL     1     -11.165  14.139  67.702  1.00  0.00    -0.297 C  
HETATM   22  O   UNL     1     -12.266  14.299  68.633  1.00  0.00    -0.291 OA 
HETATM   23  C   UNL     1     -10.646  10.961  64.709  1.00  0.00    -0.246 C  
HETATM   24  N   UNL     1      -9.925  10.003  65.608  1.00  0.00    -0.288 NA 
ENDROOT
BRANCH  24  25
HETATM   25  C   UNL     1      -8.500   9.680  65.590  1.00  0.00    -0.132 C  
BRANCH  25  26
HETATM   26  C   UNL     1      -7.912   9.084  66.865  1.00  0.00    -0.105 C  
HETATM   27  C   UNL     1      -7.834   7.513  66.808  1.00  0.00    -0.110 C  
HETATM   28  C   UNL     1      -6.667   7.619  67.806  1.00  0.00    -0.067 C  
HETATM   29  C   UNL     1      -6.373   9.000  67.159  1.00  0.00    -0.060 C  
ENDBRANCH  25  26
ENDBRANCH  24  25
TORSDOF 2
ENDMDL
MODEL       70
REMARK 921   NORMALIZED FREE ENERGY PREDICTED BY IDOCK:   -5.04 KCAL/MOL
REMARK 922        TOTAL FREE ENERGY PREDICTED BY IDOCK:   -6.17 KCAL/MOL
REMARK 923 INTER-LIGAND FREE ENERGY PREDICTED BY IDOCK:   -5.78 KCAL/MOL
REMARK 924 INTRA-LIGAND FREE ENERGY PREDICTED BY IDOCK:   -0.39 KCAL/MOL
REMARK 927      BINDING AFFINITY PREDICTED BY RF-SCORE:    0.00 PKD
ROOT
HETATM    1  O   UNL     1      -9.779   2.566  67.905  1.00  0.00    -0.330 OA 
HETATM    2  C   UNL     1      -8.990   3.728  68.237  1.00  0.00    -0.125 C  
HETATM    3  H   UNL     1      -9.804   1.998  68.667  1.00  0.00     0.000 HD 
HETATM    4  C   UNL     1      -8.950   4.643  67.008  1.00  0.00    -0.115 C  
HETATM    5  C   UNL     1      -9.929   5.937  67.055  1.00  0.00    -0.195 C  
HETATM    6  C   UNL     1     -10.301   6.665  68.488  1.00  0.00    -0.192 C  
HETATM    7  O   UNL     1     -11.674   6.351  68.702  1.00  0.00    -0.433 OA 
HETATM    8  C   UNL     1     -10.004   8.172  69.142  1.00  0.00    -0.192 C  
HETATM    9  C   UNL     1     -10.711   8.518  70.454  1.00  0.00    -0.246 C  
HETATM   10  H   UNL     1     -11.889   6.770  69.526  1.00  0.00     0.000 HD 
HETATM   11  C   UNL     1     -10.477   7.312  71.345  1.00  0.00    -0.219 A  
HETATM   12  C   UNL     1     -11.089   7.223  72.588  1.00  0.00    -0.355 A  
HETATM   13  C   UNL     1     -11.146   5.983  73.254  1.00  0.00    -0.188 A  
HETATM   14  C   UNL     1     -10.553   4.839  72.676  1.00  0.00    -0.211 A  
HETATM   15  O   UNL     1     -10.891   3.614  73.180  1.00  0.00    -0.181 OA 
HETATM   16  C   UNL     1      -9.841   4.982  71.493  1.00  0.00    -0.180 A  
HETATM   17  H   UNL     1     -10.492   2.844  72.791  1.00  0.00     0.000 HD 
HETATM   18  C   UNL     1      -9.754   6.200  70.844  1.00  0.00    -0.203 A  
HETATM   19  C   UNL     1      -9.278   6.012  69.394  1.00  0.00    -0.140 C  
HETATM   20  C   UNL     1      -7.913   6.843  68.696  1.00  0.00    -0.120 C  
HETATM   21  C   UNL     1      -9.583   4.484  69.394  1.00  0.00    -0.194 C  
HETATM   22  O   UNL     1      -9.337   3.953  70.721  1.00  0.00    -0.116 OA 
HETATM   23  C   UNL     1      -8.251   8.352  67.784  1.00  0.00    -0.126 C  
HETATM   24  N   UNL     1      -9.443   9.139  68.236  1.00  0.00    -0.142 NA 
ENDROOT
BRANCH  24  25
HETATM   25  C   UNL     1     -10.536   9.640  67.406  1.00  0.00    -0.257 C  
BRANCH  25  26
HETATM   26  C   UNL     1     -11.224  10.920  67.871  1.00  0.00    -0.387 C  
HETATM   27  C   UNL     1     -10.215  11.938  68.522  1.00  0.00    -0.221 C  
HETATM   28  C   UNL     1     -11.191  13.048  68.095  1.00  0.00    -0.305 C  
HETATM   29  C   UNL     1     -11.580  12.114  66.918  1.00  0.00    -0.408 C  
ENDBRANCH  25  26
ENDBRANCH  24  25
TORSDOF 2
ENDMDL
MODEL       71
REMARK 921   NORMALIZED FREE ENERGY PREDICTED BY IDOCK:   -4.96 KCAL/MOL
REMARK 922        TOTAL FREE ENERGY PREDICTED BY IDOCK:   -6.08 KCAL/MOL
REMARK 923 INTER-LIGAND FREE ENERGY PREDICTED BY IDOCK:   -5.70 KCAL/MOL
REMARK 924 INTRA-LIGAND FREE ENERGY PREDICTED BY IDOCK:   -0.38 KCAL/MOL
REMARK 927      BINDING AFFINITY PREDICTED BY RF-SCORE:    0.00 PKD
ROOT
HETATM    1  O   UNL     1     -10.664  10.928  64.518  1.00  0.00    -0.327 OA 
HETATM    2  C   UNL     1      -9.708  10.715  65.578  1.00  0.00    -0.237 C  
HETATM    3  H   UNL     1     -10.293  10.587  63.713  1.00  0.00     0.000 HD 
HETATM    4  C   UNL     1     -10.307  11.266  66.877  1.00  0.00    -0.272 C  
HETATM    5  C   UNL     1     -10.909  10.162  67.904  1.00  0.00    -0.336 C  
HETATM    6  C   UNL     1     -10.266   8.645  67.989  1.00  0.00    -0.210 C  
HETATM    7  O   UNL     1     -11.264   7.802  67.421  1.00  0.00    -0.465 OA 
HETATM    8  C   UNL     1      -9.469   7.782  69.175  1.00  0.00    -0.151 C  
HETATM    9  C   UNL     1      -9.206   6.299  68.904  1.00  0.00    -0.123 C  
HETATM   10  H   UNL     1     -10.893   6.929  67.470  1.00  0.00     0.000 HD 
HETATM   11  C   UNL     1      -8.625   6.261  67.504  1.00  0.00    -0.107 A  
HETATM   12  C   UNL     1      -8.377   5.050  66.874  1.00  0.00    -0.107 A  
HETATM   13  C   UNL     1      -8.165   5.013  65.482  1.00  0.00    -0.118 A  
HETATM   14  C   UNL     1      -8.169   6.210  64.732  1.00  0.00    -0.112 A  
HETATM   15  O   UNL     1      -8.275   6.119  63.372  1.00  0.00    -0.236 OA 
HETATM   16  C   UNL     1      -8.295   7.418  65.404  1.00  0.00    -0.117 A  
HETATM   17  H   UNL     1      -8.278   6.924  62.868  1.00  0.00     0.000 HD 
HETATM   18  C   UNL     1      -8.476   7.468  66.774  1.00  0.00    -0.124 A  
HETATM   19  C   UNL     1      -8.986   8.854  67.206  1.00  0.00    -0.140 C  
HETATM   20  C   UNL     1      -8.226   9.840  68.426  1.00  0.00    -0.105 C  
HETATM   21  C   UNL     1      -9.401   9.255  65.759  1.00  0.00    -0.244 C  
HETATM   22  O   UNL     1      -8.473   8.657  64.818  1.00  0.00    -0.172 OA 
HETATM   23  C   UNL     1      -8.868   9.716  70.099  1.00  0.00    -0.231 C  
HETATM   24  N   UNL     1      -9.455   8.390  70.479  1.00  0.00    -0.166 NA 
ENDROOT
BRANCH  24  25
HETATM   25  C   UNL     1     -10.762   8.145  71.085  1.00  0.00    -0.221 C  
BRANCH  25  26
HETATM   26  C   UNL     1     -10.789   7.898  72.590  1.00  0.00    -0.428 C  
HETATM   27  C   UNL     1     -10.883   6.366  72.940  1.00  0.00    -0.286 C  
HETATM   28  C   UNL     1     -10.189   6.715  74.269  1.00  0.00    -0.354 C  
HETATM   29  C   UNL     1      -9.506   7.872  73.492  1.00  0.00    -0.312 C  
ENDBRANCH  25  26
ENDBRANCH  24  25
TORSDOF 2
ENDMDL
MODEL       72
REMARK 921   NORMALIZED FREE ENERGY PREDICTED BY IDOCK:   -4.86 KCAL/MOL
REMARK 922        TOTAL FREE ENERGY PREDICTED BY IDOCK:   -5.98 KCAL/MOL
REMARK 923 INTER-LIGAND FREE ENERGY PREDICTED BY IDOCK:   -5.50 KCAL/MOL
REMARK 924 INTRA-LIGAND FREE ENERGY PREDICTED BY IDOCK:   -0.47 KCAL/MOL
REMARK 927      BINDING AFFINITY PREDICTED BY RF-SCORE:    0.00 PKD
ROOT
HETATM    1  O   UNL     1      -8.851   8.187  71.314  1.00  0.00    -0.130 OA 
HETATM    2  C   UNL     1      -8.568   8.499  69.934  1.00  0.00    -0.131 C  
HETATM    3  H   UNL     1      -8.066   8.354  71.822  1.00  0.00     0.000 HD 
HETATM    4  C   UNL     1      -9.835   8.229  69.115  1.00  0.00    -0.179 C  
HETATM    5  C   UNL     1     -10.699   9.537  68.692  1.00  0.00    -0.218 C  
HETATM    6  C   UNL     1      -9.962  10.989  68.428  1.00  0.00    -0.186 C  
HETATM    7  O   UNL     1     -10.368  11.801  69.526  1.00  0.00    -0.414 OA 
HETATM    8  C   UNL     1      -9.774  11.975  67.094  1.00  0.00    -0.197 C  
HETATM    9  C   UNL     1      -9.176  13.364  67.329  1.00  0.00    -0.222 C  
HETATM   10  H   UNL     1      -9.944  12.637  69.374  1.00  0.00     0.000 HD 
HETATM   11  C   UNL     1      -7.952  13.115  68.190  1.00  0.00    -0.154 A  
HETATM   12  C   UNL     1      -7.223  14.177  68.707  1.00  0.00    -0.120 A  
HETATM   13  C   UNL     1      -6.314  13.958  69.760  1.00  0.00    -0.125 A  
HETATM   14  C   UNL     1      -6.118  12.655  70.268  1.00  0.00    -0.066 A  
HETATM   15  O   UNL     1      -5.483  12.521  71.472  1.00  0.00    -0.379 OA 
HETATM   16  C   UNL     1      -6.766  11.594  69.652  1.00  0.00    -0.059 A  
HETATM   17  H   UNL     1      -5.351  11.644  71.814  1.00  0.00     0.000 HD 
HETATM   18  C   UNL     1      -7.640  11.793  68.599  1.00  0.00    -0.125 A  
HETATM   19  C   UNL     1      -8.514  10.547  68.372  1.00  0.00    -0.128 C  
HETATM   20  C   UNL     1      -8.670   9.726  66.842  1.00  0.00    -0.143 C  
HETATM   21  C   UNL     1      -8.172   9.940  69.765  1.00  0.00    -0.180 C  
HETATM   22  O   UNL     1      -6.808  10.292  70.113  1.00  0.00    -0.127 OA 
HETATM   23  C   UNL     1     -10.060  10.186  65.802  1.00  0.00    -0.254 C  
HETATM   24  N   UNL     1     -10.539  11.600  65.935  1.00  0.00    -0.264 NA 
ENDROOT
BRANCH  24  25
HETATM   25  C   UNL     1     -11.911  12.049  66.157  1.00  0.00    -0.148 C  
BRANCH  25  26
HETATM   26  C   UNL     1     -12.467  13.079  65.179  1.00  0.00    -0.552 C  
HETATM   27  C   UNL     1     -12.090  14.552  65.585  1.00  0.00    -0.295 C  
HETATM   28  C   UNL     1     -12.216  14.905  64.093  1.00  0.00    -0.280 C  
HETATM   29  C   UNL     1     -11.785  13.441  63.813  1.00  0.00    -0.426 C  
ENDBRANCH  25  26
ENDBRANCH  24  25
TORSDOF 2
ENDMDL
MODEL       73
REMARK 921   NORMALIZED FREE ENERGY PREDICTED BY IDOCK:   -4.86 KCAL/MOL
REMARK 922        TOTAL FREE ENERGY PREDICTED BY IDOCK:   -5.97 KCAL/MOL
REMARK 923 INTER-LIGAND FREE ENERGY PREDICTED BY IDOCK:   -5.81 KCAL/MOL
REMARK 924 INTRA-LIGAND FREE ENERGY PREDICTED BY IDOCK:   -0.16 KCAL/MOL
REMARK 927      BINDING AFFINITY PREDICTED BY RF-SCORE:    0.00 PKD
ROOT
HETATM    1  O   UNL     1      -5.463  12.618  67.525  1.00  0.00    -0.118 OA 
HETATM    2  C   UNL     1      -6.577  11.998  66.850  1.00  0.00    -0.047 C  
HETATM    3  H   UNL     1      -5.528  13.558  67.401  1.00  0.00     0.000 HD 
HETATM    4  C   UNL     1      -6.471  10.482  67.050  1.00  0.00    -0.076 C  
HETATM    5  C   UNL     1      -7.462   9.842  68.166  1.00  0.00    -0.080 C  
HETATM    6  C   UNL     1      -8.940  10.511  68.469  1.00  0.00    -0.147 C  
HETATM    7  O   UNL     1      -8.811  11.090  69.764  1.00  0.00    -0.206 OA 
HETATM    8  C   UNL     1     -10.515   9.989  68.286  1.00  0.00    -0.213 C  
HETATM    9  C   UNL     1     -11.616  10.866  68.886  1.00  0.00    -0.378 C  
HETATM   10  H   UNL     1      -9.661  11.475  69.938  1.00  0.00     0.000 HD 
HETATM   11  C   UNL     1     -11.288  12.270  68.416  1.00  0.00    -0.340 A  
HETATM   12  C   UNL     1     -12.017  13.358  68.877  1.00  0.00    -0.362 A  
HETATM   13  C   UNL     1     -11.510  14.662  68.715  1.00  0.00    -0.322 A  
HETATM   14  C   UNL     1     -10.279  14.867  68.054  1.00  0.00    -0.228 A  
HETATM   15  O   UNL     1      -9.670  16.084  68.187  1.00  0.00    -0.214 OA 
HETATM   16  C   UNL     1      -9.632  13.774  67.494  1.00  0.00    -0.219 A  
HETATM   17  H   UNL     1      -8.842  16.222  67.743  1.00  0.00     0.000 HD 
HETATM   18  C   UNL     1     -10.134  12.492  67.623  1.00  0.00    -0.217 A  
HETATM   19  C   UNL     1      -9.056  11.448  67.284  1.00  0.00    -0.162 C  
HETATM   20  C   UNL     1      -9.262  10.175  66.110  1.00  0.00    -0.196 C  
HETATM   21  C   UNL     1      -7.891  12.475  67.402  1.00  0.00    -0.175 C  
HETATM   22  O   UNL     1      -8.359  13.774  66.956  1.00  0.00    -0.176 OA 
HETATM   23  C   UNL     1      -9.804   8.576  66.721  1.00  0.00    -0.257 C  
HETATM   24  N   UNL     1     -10.670   8.600  67.943  1.00  0.00    -0.152 NA 
ENDROOT
BRANCH  24  25
HETATM   25  C   UNL     1     -10.486   7.829  69.170  1.00  0.00    -0.211 C  
BRANCH  25  26
HETATM   26  C   UNL     1     -11.401   8.167  70.342  1.00  0.00    -0.181 C  
HETATM   27  C   UNL     1     -11.961   6.879  71.054  1.00  0.00    -0.422 C  
HETATM   28  C   UNL     1     -12.086   7.738  72.324  1.00  0.00    -0.332 C  
HETATM   29  C   UNL     1     -10.882   8.548  71.773  1.00  0.00    -0.374 C  
ENDBRANCH  25  26
ENDBRANCH  24  25
TORSDOF 2
ENDMDL
MODEL       74
REMARK 921   NORMALIZED FREE ENERGY PREDICTED BY IDOCK:   -4.84 KCAL/MOL
REMARK 922        TOTAL FREE ENERGY PREDICTED BY IDOCK:   -5.94 KCAL/MOL
REMARK 923 INTER-LIGAND FREE ENERGY PREDICTED BY IDOCK:   -5.40 KCAL/MOL
REMARK 924 INTRA-LIGAND FREE ENERGY PREDICTED BY IDOCK:   -0.54 KCAL/MOL
REMARK 927      BINDING AFFINITY PREDICTED BY RF-SCORE:    0.00 PKD
ROOT
HETATM    1  O   UNL     1      -9.832  10.544  68.980  1.00  0.00    -0.194 OA 
HETATM    2  C   UNL     1     -10.486   9.377  68.437  1.00  0.00    -0.218 C  
HETATM    3  H   UNL     1     -10.307  10.814  69.757  1.00  0.00     0.000 HD 
HETATM    4  C   UNL     1      -9.720   8.942  67.183  1.00  0.00    -0.241 C  
HETATM    5  C   UNL     1      -8.733   7.666  67.361  1.00  0.00    -0.124 C  
HETATM    6  C   UNL     1      -9.079   6.474  68.448  1.00  0.00    -0.123 C  
HETATM    7  O   UNL     1      -8.101   6.630  69.472  1.00  0.00    -0.121 OA 
HETATM    8  C   UNL     1      -9.443   4.850  68.320  1.00  0.00    -0.138 C  
HETATM    9  C   UNL     1      -9.505   4.042  69.618  1.00  0.00    -0.262 C  
HETATM   10  H   UNL     1      -8.300   5.944  70.098  1.00  0.00     0.000 HD 
HETATM   11  C   UNL     1     -10.363   4.878  70.550  1.00  0.00    -0.242 A  
HETATM   12  C   UNL     1     -10.534   4.507  71.876  1.00  0.00    -0.141 A  
HETATM   13  C   UNL     1     -11.034   5.438  72.806  1.00  0.00    -0.328 A  
HETATM   14  C   UNL     1     -11.394   6.737  72.385  1.00  0.00    -0.268 A  
HETATM   15  O   UNL     1     -11.572   7.699  73.342  1.00  0.00    -0.641 OA 
HETATM   16  C   UNL     1     -11.329   7.043  71.034  1.00  0.00    -0.287 A  
HETATM   17  H   UNL     1     -11.813   8.573  73.059  1.00  0.00     0.000 HD 
HETATM   18  C   UNL     1     -10.866   6.128  70.106  1.00  0.00    -0.395 A  
HETATM   19  C   UNL     1     -10.514   6.825  68.781  1.00  0.00    -0.231 C  
HETATM   20  C   UNL     1     -11.146   6.349  67.227  1.00  0.00    -0.416 C  
HETATM   21  C   UNL     1     -10.497   8.243  69.424  1.00  0.00    -0.220 C  
HETATM   22  O   UNL     1     -11.493   8.297  70.477  1.00  0.00    -0.257 OA 
HETATM   23  C   UNL     1     -10.145   5.230  66.242  1.00  0.00    -0.207 C  
HETATM   24  N   UNL     1      -9.276   4.280  67.009  1.00  0.00    -0.137 NA 
ENDROOT
BRANCH  24  25
HETATM   25  C   UNL     1      -7.847   4.043  66.820  1.00  0.00    -0.093 C  
BRANCH  25  26
HETATM   26  C   UNL     1      -7.151   4.853  65.730  1.00  0.00    -0.067 C  
HETATM   27  C   UNL     1      -5.907   5.646  66.279  1.00  0.00    -0.018 C  
HETATM   28  C   UNL     1      -5.339   5.576  64.850  1.00  0.00    -0.010 C  
HETATM   29  C   UNL     1      -6.125   4.244  64.712  1.00  0.00    -0.023 C  
ENDBRANCH  25  26
ENDBRANCH  24  25
TORSDOF 2
ENDMDL
MODEL       75
REMARK 921   NORMALIZED FREE ENERGY PREDICTED BY IDOCK:   -4.82 KCAL/MOL
REMARK 922        TOTAL FREE ENERGY PREDICTED BY IDOCK:   -5.93 KCAL/MOL
REMARK 923 INTER-LIGAND FREE ENERGY PREDICTED BY IDOCK:   -5.54 KCAL/MOL
REMARK 924 INTRA-LIGAND FREE ENERGY PREDICTED BY IDOCK:   -0.38 KCAL/MOL
REMARK 927      BINDING AFFINITY PREDICTED BY RF-SCORE:    0.00 PKD
ROOT
HETATM    1  O   UNL     1     -12.513  14.614  67.483  1.00  0.00    -0.551 OA 
HETATM    2  C   UNL     1     -11.431  14.925  68.387  1.00  0.00    -0.318 C  
HETATM    3  H   UNL     1     -13.022  15.406  67.349  1.00  0.00     0.000 HD 
HETATM    4  C   UNL     1     -10.611  13.648  68.604  1.00  0.00    -0.260 C  
HETATM    5  C   UNL     1      -9.211  13.557  67.786  1.00  0.00    -0.213 C  
HETATM    6  C   UNL     1      -8.351  14.917  67.426  1.00  0.00    -0.194 C  
HETATM    7  O   UNL     1      -8.488  15.063  66.015  1.00  0.00    -0.288 OA 
HETATM    8  C   UNL     1      -6.848  15.497  67.865  1.00  0.00    -0.148 C  
HETATM    9  C   UNL     1      -6.336  16.739  67.134  1.00  0.00    -0.223 C  
HETATM   10  H   UNL     1      -7.993  15.847  65.808  1.00  0.00     0.000 HD 
HETATM   11  C   UNL     1      -7.498  17.714  67.173  1.00  0.00    -0.217 A  
HETATM   12  C   UNL     1      -7.433  18.920  66.488  1.00  0.00    -0.256 A  
HETATM   13  C   UNL     1      -8.610  19.654  66.245  1.00  0.00    -0.393 A  
HETATM   14  C   UNL     1      -9.851  19.183  66.728  1.00  0.00    -0.342 A  
HETATM   15  O   UNL     1     -10.993  19.737  66.219  1.00  0.00    -0.365 OA 
HETATM   16  C   UNL     1      -9.871  18.041  67.515  1.00  0.00    -0.309 A  
HETATM   17  H   UNL     1     -11.828  19.421  66.543  1.00  0.00     0.000 HD 
HETATM   18  C   UNL     1      -8.718  17.326  67.784  1.00  0.00    -0.226 A  
HETATM   19  C   UNL     1      -9.057  15.922  68.312  1.00  0.00    -0.185 C  
HETATM   20  C   UNL     1      -8.439  15.262  69.804  1.00  0.00     0.003 C  
HETATM   21  C   UNL     1     -10.536  15.995  67.827  1.00  0.00    -0.298 C  
HETATM   22  O   UNL     1     -11.002  17.364  67.934  1.00  0.00    -0.332 OA 
HETATM   23  C   UNL     1      -6.965  14.242  69.700  1.00  0.00    -0.049 C  
HETATM   24  N   UNL     1      -6.016  14.572  68.588  1.00  0.00    -0.085 NA 
ENDROOT
BRANCH  24  25
HETATM   25  C   UNL     1      -5.448  13.647  67.610  1.00  0.00     0.015 C  
BRANCH  25  26
HETATM   26  C   UNL     1      -6.027  12.236  67.577  1.00  0.00    -0.136 C  
HETATM   27  C   UNL     1      -5.647  11.466  66.257  1.00  0.00    -0.082 C  
HETATM   28  C   UNL     1      -5.804  10.169  67.070  1.00  0.00    -0.050 C  
HETATM   29  C   UNL     1      -5.374  11.008  68.303  1.00  0.00    -0.039 C  
ENDBRANCH  25  26
ENDBRANCH  24  25
TORSDOF 2
ENDMDL
MODEL       76
REMARK 921   NORMALIZED FREE ENERGY PREDICTED BY IDOCK:   -4.78 KCAL/MOL
REMARK 922        TOTAL FREE ENERGY PREDICTED BY IDOCK:   -5.89 KCAL/MOL
REMARK 923 INTER-LIGAND FREE ENERGY PREDICTED BY IDOCK:   -5.62 KCAL/MOL
REMARK 924 INTRA-LIGAND FREE ENERGY PREDICTED BY IDOCK:   -0.27 KCAL/MOL
REMARK 927      BINDING AFFINITY PREDICTED BY RF-SCORE:    0.00 PKD
ROOT
HETATM    1  O   UNL     1      -6.978  11.917  67.769  1.00  0.00    -0.086 OA 
HETATM    2  C   UNL     1      -7.968  12.834  68.279  1.00  0.00    -0.151 C  
HETATM    3  H   UNL     1      -7.430  11.160  67.414  1.00  0.00     0.000 HD 
HETATM    4  C   UNL     1      -7.238  14.053  68.852  1.00  0.00    -0.108 C  
HETATM    5  C   UNL     1      -7.240  15.384  67.922  1.00  0.00    -0.160 C  
HETATM    6  C   UNL     1      -8.501  15.705  66.908  1.00  0.00    -0.251 C  
HETATM    7  O   UNL     1      -7.970  15.505  65.602  1.00  0.00     0.868 OA 
HETATM    8  C   UNL     1      -9.649  16.915  66.823  1.00  0.00    -0.262 C  
HETATM    9  C   UNL     1     -10.541  16.947  65.580  1.00  0.00    -0.231 C  
HETATM   10  H   UNL     1      -8.696  15.690  65.018  1.00  0.00     0.000 HD 
HETATM   11  C   UNL     1     -11.021  15.517  65.415  1.00  0.00    -0.365 A  
HETATM   12  C   UNL     1     -11.763  15.144  64.303  1.00  0.00    -0.234 A  
HETATM   13  C   UNL     1     -11.913  13.781  63.984  1.00  0.00    -0.451 A  
HETATM   14  C   UNL     1     -11.340  12.792  64.813  1.00  0.00    -0.309 A  
HETATM   15  O   UNL     1     -11.232  11.520  64.320  1.00  0.00    -0.338 OA 
HETATM   16  C   UNL     1     -10.709  13.186  65.984  1.00  0.00    -0.276 A  
HETATM   17  H   UNL     1     -10.846  10.855  64.877  1.00  0.00     0.000 HD 
HETATM   18  C   UNL     1     -10.580  14.520  66.323  1.00  0.00    -0.304 A  
HETATM   19  C   UNL     1      -9.517  14.704  67.419  1.00  0.00    -0.201 C  
HETATM   20  C   UNL     1      -9.799  15.537  68.926  1.00  0.00    -0.219 C  
HETATM   21  C   UNL     1      -8.908  13.288  67.197  1.00  0.00    -0.222 C  
HETATM   22  O   UNL     1      -9.968  12.372  66.820  1.00  0.00    -0.218 OA 
HETATM   23  C   UNL     1      -9.349  17.274  68.999  1.00  0.00    -0.120 C  
HETATM   24  N   UNL     1      -9.439  18.030  67.708  1.00  0.00    -0.260 NA 
ENDROOT
BRANCH  24  25
HETATM   25  C   UNL     1      -8.409  18.873  67.105  1.00  0.00    -0.274 C  
BRANCH  25  26
HETATM   26  C   UNL     1      -7.770  19.929  68.001  1.00  0.00    -0.323 C  
HETATM   27  C   UNL     1      -6.582  19.348  68.855  1.00  0.00    -0.339 C  
HETATM   28  C   UNL     1      -6.012  20.777  68.878  1.00  0.00    -0.356 C  
HETATM   29  C   UNL     1      -6.706  20.967  67.502  1.00  0.00    -0.428 C  
ENDBRANCH  25  26
ENDBRANCH  24  25
TORSDOF 2
ENDMDL
MODEL       77
REMARK 921   NORMALIZED FREE ENERGY PREDICTED BY IDOCK:   -4.73 KCAL/MOL
REMARK 922        TOTAL FREE ENERGY PREDICTED BY IDOCK:   -5.82 KCAL/MOL
REMARK 923 INTER-LIGAND FREE ENERGY PREDICTED BY IDOCK:   -5.35 KCAL/MOL
REMARK 924 INTRA-LIGAND FREE ENERGY PREDICTED BY IDOCK:   -0.47 KCAL/MOL
REMARK 927      BINDING AFFINITY PREDICTED BY RF-SCORE:    0.00 PKD
ROOT
HETATM    1  O   UNL     1     -12.559  13.065  66.700  1.00  0.00    -0.260 OA 
HETATM    2  C   UNL     1     -11.244  12.735  67.195  1.00  0.00    -0.292 C  
HETATM    3  H   UNL     1     -12.466  13.404  65.817  1.00  0.00     0.000 HD 
HETATM    4  C   UNL     1     -11.395  12.190  68.619  1.00  0.00    -0.330 C  
HETATM    5  C   UNL     1     -11.290  10.577  68.776  1.00  0.00    -0.310 C  
HETATM    6  C   UNL     1     -10.348   9.687  67.756  1.00  0.00    -0.236 C  
HETATM    7  O   UNL     1     -11.275   8.961  66.956  1.00  0.00    -0.127 OA 
HETATM    8  C   UNL     1      -8.982   8.746  67.953  1.00  0.00    -0.140 C  
HETATM    9  C   UNL     1      -8.527   7.914  66.753  1.00  0.00    -0.129 C  
HETATM   10  H   UNL     1     -10.733   8.448  66.368  1.00  0.00     0.000 HD 
HETATM   11  C   UNL     1      -8.544   8.883  65.585  1.00  0.00    -0.188 A  
HETATM   12  C   UNL     1      -8.301   8.437  64.293  1.00  0.00    -0.091 A  
HETATM   13  C   UNL     1      -8.646   9.248  63.195  1.00  0.00    -0.209 A  
HETATM   14  C   UNL     1      -9.205  10.528  63.406  1.00  0.00    -0.276 A  
HETATM   15  O   UNL     1      -9.810  11.150  62.349  1.00  0.00    -0.571 OA 
HETATM   16  C   UNL     1      -9.322  10.999  64.706  1.00  0.00    -0.209 A  
HETATM   17  H   UNL     1     -10.187  12.011  62.491  1.00  0.00     0.000 HD 
HETATM   18  C   UNL     1      -8.961  10.223  65.792  1.00  0.00    -0.185 A  
HETATM   19  C   UNL     1      -9.554  10.793  67.092  1.00  0.00    -0.185 C  
HETATM   20  C   UNL     1      -8.616  11.174  68.511  1.00  0.00    -0.157 C  
HETATM   21  C   UNL     1     -10.578  11.694  66.338  1.00  0.00    -0.258 C  
HETATM   22  O   UNL     1      -9.983  12.149  65.096  1.00  0.00    -0.257 OA 
HETATM   23  C   UNL     1      -8.511   9.915  69.787  1.00  0.00    -0.192 C  
HETATM   24  N   UNL     1      -8.596   8.495  69.316  1.00  0.00    -0.128 NA 
ENDROOT
BRANCH  24  25
HETATM   25  C   UNL     1      -9.474   7.447  69.829  1.00  0.00    -0.159 C  
BRANCH  25  26
HETATM   26  C   UNL     1      -8.804   6.187  70.368  1.00  0.00    -0.149 C  
HETATM   27  C   UNL     1      -9.330   4.882  69.663  1.00  0.00    -0.190 C  
HETATM   28  C   UNL     1      -7.970   4.250  70.006  1.00  0.00    -0.055 C  
HETATM   29  C   UNL     1      -7.391   5.686  69.906  1.00  0.00    -0.070 C  
ENDBRANCH  25  26
ENDBRANCH  24  25
TORSDOF 2
ENDMDL
MODEL       78
REMARK 921   NORMALIZED FREE ENERGY PREDICTED BY IDOCK:   -4.65 KCAL/MOL
REMARK 922        TOTAL FREE ENERGY PREDICTED BY IDOCK:   -5.73 KCAL/MOL
REMARK 923 INTER-LIGAND FREE ENERGY PREDICTED BY IDOCK:   -5.28 KCAL/MOL
REMARK 924 INTRA-LIGAND FREE ENERGY PREDICTED BY IDOCK:   -0.45 KCAL/MOL
REMARK 927      BINDING AFFINITY PREDICTED BY RF-SCORE:    0.00 PKD
ROOT
HETATM    1  O   UNL     1      -8.737   8.071  63.546  1.00  0.00    -0.377 OA 
HETATM    2  C   UNL     1      -8.081   8.734  64.647  1.00  0.00    -0.157 C  
HETATM    3  H   UNL     1      -8.739   7.137  63.722  1.00  0.00     0.000 HD 
HETATM    4  C   UNL     1      -8.078  10.241  64.362  1.00  0.00    -0.149 C  
HETATM    5  C   UNL     1      -9.180  11.118  65.169  1.00  0.00    -0.209 C  
HETATM    6  C   UNL     1      -9.684  10.667  66.673  1.00  0.00    -0.184 C  
HETATM    7  O   UNL     1     -11.028  10.233  66.485  1.00  0.00    -0.067 OA 
HETATM    8  C   UNL     1      -9.566  11.345  68.194  1.00  0.00    -0.190 C  
HETATM    9  C   UNL     1     -10.360  10.680  69.321  1.00  0.00    -0.240 C  
HETATM   10  H   UNL     1     -11.318   9.973  67.351  1.00  0.00     0.000 HD 
HETATM   11  C   UNL     1     -10.047   9.201  69.190  1.00  0.00    -0.199 A  
HETATM   12  C   UNL     1     -10.700   8.268  69.983  1.00  0.00    -0.239 A  
HETATM   13  C   UNL     1     -10.665   6.904  69.635  1.00  0.00    -0.276 A  
HETATM   14  C   UNL     1      -9.937   6.480  68.502  1.00  0.00    -0.142 A  
HETATM   15  O   UNL     1     -10.174   5.224  68.016  1.00  0.00    -0.173 OA 
HETATM   16  C   UNL     1      -9.192   7.416  67.798  1.00  0.00    -0.131 A  
HETATM   17  H   UNL     1      -9.685   4.939  67.253  1.00  0.00     0.000 HD 
HETATM   18  C   UNL     1      -9.197   8.754  68.147  1.00  0.00    -0.145 A  
HETATM   19  C   UNL     1      -8.642   9.618  67.001  1.00  0.00    -0.131 C  
HETATM   20  C   UNL     1      -7.336  10.760  67.181  1.00  0.00    -0.101 C  
HETATM   21  C   UNL     1      -8.795   8.482  65.946  1.00  0.00    -0.182 C  
HETATM   22  O   UNL     1      -8.556   7.204  66.590  1.00  0.00    -0.115 OA 
HETATM   23  C   UNL     1      -7.781  12.472  67.490  1.00  0.00    -0.165 C  
HETATM   24  N   UNL     1      -9.063  12.693  68.233  1.00  0.00    -0.199 NA 
ENDROOT
BRANCH  24  25
HETATM   25  C   UNL     1     -10.163  13.576  67.852  1.00  0.00    -0.247 C  
BRANCH  25  26
HETATM   26  C   UNL     1      -9.833  14.712  66.889  1.00  0.00    -0.252 C  
HETATM   27  C   UNL     1     -10.318  14.412  65.422  1.00  0.00    -0.400 C  
HETATM   28  C   UNL     1     -10.398  15.936  65.227  1.00  0.00    -0.354 C  
HETATM   29  C   UNL     1     -10.698  16.014  66.748  1.00  0.00    -0.259 C  
ENDBRANCH  25  26
ENDBRANCH  24  25
TORSDOF 2
ENDMDL
MODEL       79
REMARK 921   NORMALIZED FREE ENERGY PREDICTED BY IDOCK:   -4.64 KCAL/MOL
REMARK 922        TOTAL FREE ENERGY PREDICTED BY IDOCK:   -5.72 KCAL/MOL
REMARK 923 INTER-LIGAND FREE ENERGY PREDICTED BY IDOCK:   -5.36 KCAL/MOL
REMARK 924 INTRA-LIGAND FREE ENERGY PREDICTED BY IDOCK:   -0.36 KCAL/MOL
REMARK 927      BINDING AFFINITY PREDICTED BY RF-SCORE:    0.00 PKD
ROOT
HETATM    1  O   UNL     1     -12.194   8.468  70.408  1.00  0.00    -0.466 OA 
HETATM    2  C   UNL     1     -10.802   8.609  70.054  1.00  0.00    -0.221 C  
HETATM    3  H   UNL     1     -12.605   9.322  70.335  1.00  0.00     0.000 HD 
HETATM    4  C   UNL     1     -10.139   7.232  70.174  1.00  0.00    -0.192 C  
HETATM    5  C   UNL     1      -9.878   6.446  68.777  1.00  0.00    -0.152 C  
HETATM    6  C   UNL     1      -9.579   7.275  67.383  1.00  0.00    -0.142 C  
HETATM    7  O   UNL     1     -10.749   7.081  66.594  1.00  0.00    -0.513 OA 
HETATM    8  C   UNL     1      -8.270   7.388  66.352  1.00  0.00    -0.122 C  
HETATM    9  C   UNL     1      -8.481   8.134  65.033  1.00  0.00    -0.117 C  
HETATM   10  H   UNL     1     -10.577   7.559  65.791  1.00  0.00     0.000 HD 
HETATM   11  C   UNL     1      -9.171   9.426  65.428  1.00  0.00    -0.305 A  
HETATM   12  C   UNL     1      -9.632  10.307  64.459  1.00  0.00    -0.378 A  
HETATM   13  C   UNL     1     -10.553  11.313  64.807  1.00  0.00    -0.376 A  
HETATM   14  C   UNL     1     -10.982  11.450  66.146  1.00  0.00    -0.236 A  
HETATM   15  O   UNL     1     -12.091  12.212  66.393  1.00  0.00    -0.630 OA 
HETATM   16  C   UNL     1     -10.413  10.637  67.115  1.00  0.00    -0.245 A  
HETATM   17  H   UNL     1     -12.380  12.304  67.293  1.00  0.00     0.000 HD 
HETATM   18  C   UNL     1      -9.486   9.664  66.791  1.00  0.00    -0.209 A  
HETATM   19  C   UNL     1      -9.325   8.658  67.944  1.00  0.00    -0.155 C  
HETATM   20  C   UNL     1      -7.796   8.243  68.673  1.00  0.00    -0.120 C  
HETATM   21  C   UNL     1     -10.639   9.111  68.646  1.00  0.00    -0.174 C  
HETATM   22  O   UNL     1     -10.825  10.533  68.431  1.00  0.00    -0.206 OA 
HETATM   23  C   UNL     1      -6.957   6.784  68.045  1.00  0.00    -0.080 C  
HETATM   24  N   UNL     1      -7.203   6.456  66.603  1.00  0.00    -0.075 NA 
ENDROOT
BRANCH  24  25
HETATM   25  C   UNL     1      -7.613   5.169  66.049  1.00  0.00    -0.087 C  
BRANCH  25  26
HETATM   26  C   UNL     1      -6.660   4.510  65.056  1.00  0.00    -0.044 C  
HETATM   27  C   UNL     1      -7.193   3.116  64.553  1.00  0.00    -0.062 C  
HETATM   28  C   UNL     1      -6.368   3.357  63.277  1.00  0.00    -0.022 C  
HETATM   29  C   UNL     1      -6.605   4.870  63.531  1.00  0.00    -0.030 C  
ENDBRANCH  25  26
ENDBRANCH  24  25
TORSDOF 2
ENDMDL
MODEL       80
REMARK 921   NORMALIZED FREE ENERGY PREDICTED BY IDOCK:   -4.50 KCAL/MOL
REMARK 922        TOTAL FREE ENERGY PREDICTED BY IDOCK:   -5.57 KCAL/MOL
REMARK 923 INTER-LIGAND FREE ENERGY PREDICTED BY IDOCK:   -5.19 KCAL/MOL
REMARK 924 INTRA-LIGAND FREE ENERGY PREDICTED BY IDOCK:   -0.37 KCAL/MOL
REMARK 927      BINDING AFFINITY PREDICTED BY RF-SCORE:    0.00 PKD
ROOT
HETATM    1  O   UNL     1      -8.674   6.248  72.654  1.00  0.00    -0.124 OA 
HETATM    2  C   UNL     1      -9.852   6.789  72.020  1.00  0.00    -0.156 C  
HETATM    3  H   UNL     1      -8.680   5.306  72.535  1.00  0.00     0.000 HD 
HETATM    4  C   UNL     1      -9.841   8.310  72.213  1.00  0.00    -0.364 C  
HETATM    5  C   UNL     1      -9.381   9.185  70.926  1.00  0.00    -0.335 C  
HETATM    6  C   UNL     1      -9.671   8.652  69.392  1.00  0.00    -0.176 C  
HETATM    7  O   UNL     1      -8.385   8.310  68.883  1.00  0.00    -0.124 OA 
HETATM    8  C   UNL     1     -10.603   9.207  68.122  1.00  0.00    -0.183 C  
HETATM    9  C   UNL     1     -10.435   8.506  66.773  1.00  0.00    -0.308 C  
HETATM   10  H   UNL     1      -8.553   8.003  68.000  1.00  0.00     0.000 HD 
HETATM   11  C   UNL     1     -10.508   7.025  67.097  1.00  0.00    -0.383 A  
HETATM   12  C   UNL     1     -10.269   6.074  66.115  1.00  0.00     0.055 A  
HETATM   13  C   UNL     1     -10.004   4.740  66.481  1.00  0.00    -0.262 A  
HETATM   14  C   UNL     1     -10.017   4.361  67.841  1.00  0.00    -0.023 A  
HETATM   15  O   UNL     1      -9.458   3.160  68.182  1.00  0.00    -0.197 OA 
HETATM   16  C   UNL     1     -10.381   5.304  68.792  1.00  0.00    -0.136 A  
HETATM   17  H   UNL     1      -9.467   2.906  69.097  1.00  0.00     0.000 HD 
HETATM   18  C   UNL     1     -10.670   6.610  68.444  1.00  0.00    -0.314 A  
HETATM   19  C   UNL     1     -10.640   7.524  69.680  1.00  0.00    -0.243 C  
HETATM   20  C   UNL     1     -11.951   8.574  70.153  1.00  0.00     0.426 C  
HETATM   21  C   UNL     1      -9.876   6.481  70.548  1.00  0.00    -0.179 C  
HETATM   22  O   UNL     1     -10.295   5.147  70.163  1.00  0.00    -0.273 OA 
HETATM   23  C   UNL     1     -11.875  10.281  69.599  1.00  0.00    -0.111 C  
HETATM   24  N   UNL     1     -11.170  10.517  68.298  1.00  0.00    -0.294 NA 
ENDROOT
BRANCH  24  25
HETATM   25  C   UNL     1     -10.111  11.487  68.032  1.00  0.00    -0.186 C  
BRANCH  25  26
HETATM   26  C   UNL     1     -10.416  12.580  67.013  1.00  0.00    -0.246 C  
HETATM   27  C   UNL     1     -11.955  12.692  66.701  1.00  0.00    -0.382 C  
HETATM   28  C   UNL     1     -11.688  14.165  66.342  1.00  0.00    -0.404 C  
HETATM   29  C   UNL     1     -10.531  14.102  67.375  1.00  0.00    -0.271 C  
ENDBRANCH  25  26
ENDBRANCH  24  25
TORSDOF 2
ENDMDL
MODEL       81
REMARK 921   NORMALIZED FREE ENERGY PREDICTED BY IDOCK:   -4.50 KCAL/MOL
REMARK 922        TOTAL FREE ENERGY PREDICTED BY IDOCK:   -5.57 KCAL/MOL
REMARK 923 INTER-LIGAND FREE ENERGY PREDICTED BY IDOCK:   -5.45 KCAL/MOL
REMARK 924 INTRA-LIGAND FREE ENERGY PREDICTED BY IDOCK:   -0.12 KCAL/MOL
REMARK 927      BINDING AFFINITY PREDICTED BY RF-SCORE:    0.00 PKD
ROOT
HETATM    1  O   UNL     1     -12.411  10.037  69.178  1.00  0.00    -0.229 OA 
HETATM    2  C   UNL     1     -11.084  10.525  68.888  1.00  0.00    -0.261 C  
HETATM    3  H   UNL     1     -13.037  10.687  68.881  1.00  0.00     0.000 HD 
HETATM    4  C   UNL     1     -10.075   9.476  69.369  1.00  0.00    -0.206 C  
HETATM    5  C   UNL     1      -9.420   8.541  68.215  1.00  0.00    -0.143 C  
HETATM    6  C   UNL     1      -9.193   9.116  66.686  1.00  0.00    -0.164 C  
HETATM    7  O   UNL     1     -10.145   8.413  65.894  1.00  0.00    -0.432 OA 
HETATM    8  C   UNL     1      -7.849   9.415  65.741  1.00  0.00    -0.099 C  
HETATM    9  C   UNL     1      -8.092   9.772  64.273  1.00  0.00    -0.152 C  
HETATM   10  H   UNL     1     -10.014   8.744  65.014  1.00  0.00     0.000 HD 
HETATM   11  C   UNL     1      -9.170  10.839  64.310  1.00  0.00    -0.246 A  
HETATM   12  C   UNL     1      -9.734  11.315  63.134  1.00  0.00    -0.408 A  
HETATM   13  C   UNL     1     -10.943  12.036  63.178  1.00  0.00    -0.269 A  
HETATM   14  C   UNL     1     -11.564  12.305  64.417  1.00  0.00    -0.360 A  
HETATM   15  O   UNL     1     -12.867  12.720  64.409  1.00  0.00    -0.700 OA 
HETATM   16  C   UNL     1     -10.916  11.926  65.584  1.00  0.00    -0.304 A  
HETATM   17  H   UNL     1     -13.285  12.901  65.243  1.00  0.00     0.000 HD 
HETATM   18  C   UNL     1      -9.715  11.242  65.556  1.00  0.00    -0.268 A  
HETATM   19  C   UNL     1      -9.422  10.595  66.921  1.00  0.00    -0.189 C  
HETATM   20  C   UNL     1      -7.947  10.832  67.820  1.00  0.00    -0.110 C  
HETATM   21  C   UNL     1     -10.891  10.753  67.414  1.00  0.00    -0.290 C  
HETATM   22  O   UNL     1     -11.449  11.972  66.859  1.00  0.00    -0.327 OA 
HETATM   23  C   UNL     1      -6.651   9.608  67.606  1.00  0.00    -0.066 C  
HETATM   24  N   UNL     1      -6.601   8.932  66.270  1.00  0.00    -0.065 NA 
ENDROOT
BRANCH  24  25
HETATM   25  C   UNL     1      -6.548   7.495  66.009  1.00  0.00    -0.046 C  
BRANCH  25  26
HETATM   26  C   UNL     1      -6.439   7.062  64.551  1.00  0.00    -0.036 C  
HETATM   27  C   UNL     1      -5.228   7.748  63.814  1.00  0.00    -0.037 C  
HETATM   28  C   UNL     1      -5.214   6.525  62.880  1.00  0.00    -0.022 C  
HETATM   29  C   UNL     1      -5.767   5.722  64.088  1.00  0.00    -0.021 C  
ENDBRANCH  25  26
ENDBRANCH  24  25
TORSDOF 2
ENDMDL
MODEL       82
REMARK 921   NORMALIZED FREE ENERGY PREDICTED BY IDOCK:   -4.49 KCAL/MOL
REMARK 922        TOTAL FREE ENERGY PREDICTED BY IDOCK:   -5.56 KCAL/MOL
REMARK 923 INTER-LIGAND FREE ENERGY PREDICTED BY IDOCK:   -5.09 KCAL/MOL
REMARK 924 INTRA-LIGAND FREE ENERGY PREDICTED BY IDOCK:   -0.47 KCAL/MOL
REMARK 927      BINDING AFFINITY PREDICTED BY RF-SCORE:    0.00 PKD
ROOT
HETATM    1  O   UNL     1     -10.978   9.065  71.813  1.00  0.00    -0.335 OA 
HETATM    2  C   UNL     1     -11.157   9.143  70.383  1.00  0.00    -0.253 C  
HETATM    3  H   UNL     1     -10.573   8.229  72.015  1.00  0.00     0.000 HD 
HETATM    4  C   UNL     1     -11.810  10.491  70.058  1.00  0.00    -0.388 C  
HETATM    5  C   UNL     1     -10.820  11.637  69.474  1.00  0.00    -0.087 C  
HETATM    6  C   UNL     1      -9.501  11.235  68.569  1.00  0.00    -0.191 C  
HETATM    7  O   UNL     1      -8.388  11.528  69.408  1.00  0.00    -0.348 OA 
HETATM    8  C   UNL     1      -9.046  11.511  66.986  1.00  0.00    -0.175 C  
HETATM    9  C   UNL     1      -7.619  11.124  66.591  1.00  0.00    -0.147 C  
HETATM   10  H   UNL     1      -7.629  11.297  68.887  1.00  0.00     0.000 HD 
HETATM   11  C   UNL     1      -7.437   9.719  67.135  1.00  0.00    -0.088 A  
HETATM   12  C   UNL     1      -6.202   9.089  67.068  1.00  0.00    -0.059 A  
HETATM   13  C   UNL     1      -5.950   7.952  67.858  1.00  0.00    -0.042 A  
HETATM   14  C   UNL     1      -6.963   7.430  68.693  1.00  0.00    -0.079 A  
HETATM   15  O   UNL     1      -6.602   6.538  69.664  1.00  0.00    -0.045 OA 
HETATM   16  C   UNL     1      -8.226   8.004  68.648  1.00  0.00    -0.126 A  
HETATM   17  H   UNL     1      -7.284   6.187  70.226  1.00  0.00     0.000 HD 
HETATM   18  C   UNL     1      -8.493   9.104  67.855  1.00  0.00    -0.117 A  
HETATM   19  C   UNL     1      -9.807   9.779  68.283  1.00  0.00    -0.167 C  
HETATM   20  C   UNL     1     -11.132  10.117  67.201  1.00  0.00    -0.122 C  
HETATM   21  C   UNL     1      -9.844   9.046  69.657  1.00  0.00    -0.178 C  
HETATM   22  O   UNL     1      -9.275   7.721  69.502  1.00  0.00    -0.150 OA 
HETATM   23  C   UNL     1     -11.196  11.756  66.470  1.00  0.00    -0.321 C  
HETATM   24  N   UNL     1      -9.875  12.431  66.255  1.00  0.00    -0.243 NA 
ENDROOT
BRANCH  24  25
HETATM   25  C   UNL     1      -9.496  13.779  66.670  1.00  0.00    -0.279 C  
BRANCH  25  26
HETATM   26  C   UNL     1     -10.617  14.694  67.152  1.00  0.00    -0.282 C  
HETATM   27  C   UNL     1     -10.524  14.990  68.695  1.00  0.00    -0.238 C  
HETATM   28  C   UNL     1     -11.266  16.306  68.401  1.00  0.00    -0.349 C  
HETATM   29  C   UNL     1     -10.593  16.256  67.003  1.00  0.00    -0.284 C  
ENDBRANCH  25  26
ENDBRANCH  24  25
TORSDOF 2
ENDMDL
MODEL       83
REMARK 921   NORMALIZED FREE ENERGY PREDICTED BY IDOCK:   -4.47 KCAL/MOL
REMARK 922        TOTAL FREE ENERGY PREDICTED BY IDOCK:   -5.53 KCAL/MOL
REMARK 923 INTER-LIGAND FREE ENERGY PREDICTED BY IDOCK:   -5.12 KCAL/MOL
REMARK 924 INTRA-LIGAND FREE ENERGY PREDICTED BY IDOCK:   -0.41 KCAL/MOL
REMARK 927      BINDING AFFINITY PREDICTED BY RF-SCORE:    0.00 PKD
ROOT
HETATM    1  O   UNL     1     -12.215  15.461  68.287  1.00  0.00    -0.500 OA 
HETATM    2  C   UNL     1     -11.617  14.214  68.701  1.00  0.00    -0.317 C  
HETATM    3  H   UNL     1     -11.806  16.163  68.779  1.00  0.00     0.000 HD 
HETATM    4  C   UNL     1     -12.279  13.082  67.906  1.00  0.00    -0.072 C  
HETATM    5  C   UNL     1     -11.416  12.485  66.668  1.00  0.00    -0.417 C  
HETATM    6  C   UNL     1      -9.767  12.468  66.716  1.00  0.00    -0.234 C  
HETATM    7  O   UNL     1      -9.371  13.444  65.757  1.00  0.00    -0.479 OA 
HETATM    8  C   UNL     1      -8.614  11.261  66.736  1.00  0.00    -0.159 C  
HETATM    9  C   UNL     1      -7.153  11.686  66.580  1.00  0.00    -0.025 C  
HETATM   10  H   UNL     1      -8.422  13.434  65.784  1.00  0.00     0.000 HD 
HETATM   11  C   UNL     1      -6.980  12.832  67.559  1.00  0.00    -0.149 A  
HETATM   12  C   UNL     1      -5.795  13.554  67.601  1.00  0.00    -0.075 A  
HETATM   13  C   UNL     1      -5.756  14.803  68.251  1.00  0.00    -0.116 A  
HETATM   14  C   UNL     1      -6.911  15.305  68.891  1.00  0.00    -0.122 A  
HETATM   15  O   UNL     1      -6.934  16.630  69.231  1.00  0.00    -0.223 OA 
HETATM   16  C   UNL     1      -8.046  14.509  68.940  1.00  0.00    -0.124 A  
HETATM   17  H   UNL     1      -7.711  16.968  69.661  1.00  0.00     0.000 HD 
HETATM   18  C   UNL     1      -8.088  13.269  68.330  1.00  0.00    -0.156 A  
HETATM   19  C   UNL     1      -9.539  12.784  68.180  1.00  0.00    -0.223 C  
HETATM   20  C   UNL     1     -10.120  11.242  68.754  1.00  0.00    -0.204 C  
HETATM   21  C   UNL     1     -10.137  14.199  68.437  1.00  0.00    -0.238 C  
HETATM   22  O   UNL     1      -9.294  14.904  69.384  1.00  0.00    -0.151 OA 
HETATM   23  C   UNL     1     -10.150   9.887  67.576  1.00  0.00    -0.197 C  
HETATM   24  N   UNL     1      -9.108   9.930  66.500  1.00  0.00    -0.149 NA 
ENDROOT
BRANCH  24  25
HETATM   25  C   UNL     1      -9.320   9.796  65.061  1.00  0.00    -0.263 C  
BRANCH  25  26
HETATM   26  C   UNL     1      -8.487   8.745  64.336  1.00  0.00    -0.146 C  
HETATM   27  C   UNL     1      -8.456   8.978  62.779  1.00  0.00    -0.206 C  
HETATM   28  C   UNL     1      -7.101   8.248  62.783  1.00  0.00    -0.091 C  
HETATM   29  C   UNL     1      -6.923   8.797  64.224  1.00  0.00    -0.088 C  
ENDBRANCH  25  26
ENDBRANCH  24  25
TORSDOF 2
ENDMDL
MODEL       84
REMARK 921   NORMALIZED FREE ENERGY PREDICTED BY IDOCK:   -4.46 KCAL/MOL
REMARK 922        TOTAL FREE ENERGY PREDICTED BY IDOCK:   -5.52 KCAL/MOL
REMARK 923 INTER-LIGAND FREE ENERGY PREDICTED BY IDOCK:   -5.16 KCAL/MOL
REMARK 924 INTRA-LIGAND FREE ENERGY PREDICTED BY IDOCK:   -0.36 KCAL/MOL
REMARK 927      BINDING AFFINITY PREDICTED BY RF-SCORE:    0.00 PKD
ROOT
HETATM    1  O   UNL     1     -11.281   6.343  73.335  1.00  0.00    -0.467 OA 
HETATM    2  C   UNL     1     -10.738   6.266  72.000  1.00  0.00    -0.228 C  
HETATM    3  H   UNL     1     -10.592   6.114  73.948  1.00  0.00     0.000 HD 
HETATM    4  C   UNL     1     -11.851   6.635  71.012  1.00  0.00    -0.427 C  
HETATM    5  C   UNL     1     -11.782   8.135  70.393  1.00  0.00     0.007 C  
HETATM    6  C   UNL     1     -10.334   8.892  70.169  1.00  0.00    -0.206 C  
HETATM    7  O   UNL     1     -10.317   9.927  71.148  1.00  0.00    -0.285 OA 
HETATM    8  C   UNL     1      -9.494   9.429  68.830  1.00  0.00    -0.150 C  
HETATM    9  C   UNL     1      -8.245  10.276  69.080  1.00  0.00    -0.139 C  
HETATM   10  H   UNL     1      -9.483  10.363  71.019  1.00  0.00     0.000 HD 
HETATM   11  C   UNL     1      -7.464   9.508  70.131  1.00  0.00    -0.137 A  
HETATM   12  C   UNL     1      -6.318  10.050  70.696  1.00  0.00    -0.100 A  
HETATM   13  C   UNL     1      -5.798   9.505  71.886  1.00  0.00     0.027 A  
HETATM   14  C   UNL     1      -6.420   8.388  72.485  1.00  0.00    -0.087 A  
HETATM   15  O   UNL     1      -6.092   8.084  73.778  1.00  0.00    -0.076 OA 
HETATM   16  C   UNL     1      -7.490   7.790  71.834  1.00  0.00    -0.074 A  
HETATM   17  H   UNL     1      -6.511   7.333  74.182  1.00  0.00     0.000 HD 
HETATM   18  C   UNL     1      -7.992   8.299  70.651  1.00  0.00    -0.094 A  
HETATM   19  C   UNL     1      -9.389   7.724  70.359  1.00  0.00    -0.160 C  
HETATM   20  C   UNL     1      -9.830   6.934  68.868  1.00  0.00    -0.147 C  
HETATM   21  C   UNL     1      -9.586   7.215  71.818  1.00  0.00    -0.151 C  
HETATM   22  O   UNL     1      -8.302   6.799  72.351  1.00  0.00    -0.109 OA 
HETATM   23  C   UNL     1     -10.611   7.944  67.605  1.00  0.00    -0.206 C  
HETATM   24  N   UNL     1     -10.221   9.390  67.588  1.00  0.00    -0.212 NA 
ENDROOT
BRANCH  24  25
HETATM   25  C   UNL     1     -11.115  10.545  67.574  1.00  0.00    -0.290 C  
BRANCH  25  26
HETATM   26  C   UNL     1     -10.845  11.614  66.520  1.00  0.00    -0.328 C  
HETATM   27  C   UNL     1     -10.459  10.993  65.126  1.00  0.00    -0.329 C  
HETATM   28  C   UNL     1     -11.013  12.283  64.494  1.00  0.00    -0.358 C  
HETATM   29  C   UNL     1     -11.973  12.347  65.712  1.00  0.00    -0.437 C  
ENDBRANCH  25  26
ENDBRANCH  24  25
TORSDOF 2
ENDMDL
MODEL       85
REMARK 921   NORMALIZED FREE ENERGY PREDICTED BY IDOCK:   -4.44 KCAL/MOL
REMARK 922        TOTAL FREE ENERGY PREDICTED BY IDOCK:   -5.50 KCAL/MOL
REMARK 923 INTER-LIGAND FREE ENERGY PREDICTED BY IDOCK:   -5.38 KCAL/MOL
REMARK 924 INTRA-LIGAND FREE ENERGY PREDICTED BY IDOCK:   -0.12 KCAL/MOL
REMARK 927      BINDING AFFINITY PREDICTED BY RF-SCORE:    0.00 PKD
ROOT
HETATM    1  O   UNL     1      -9.921  18.205  65.939  1.00  0.00    -0.540 OA 
HETATM    2  C   UNL     1     -10.267  17.403  67.088  1.00  0.00    -0.323 C  
HETATM    3  H   UNL     1      -9.176  18.747  66.171  1.00  0.00     0.000 HD 
HETATM    4  C   UNL     1     -11.470  16.529  66.714  1.00  0.00     0.698 C  
HETATM    5  C   UNL     1     -11.141  14.975  66.378  1.00  0.00    -0.329 C  
HETATM    6  C   UNL     1      -9.883  14.199  67.110  1.00  0.00    -0.253 C  
HETATM    7  O   UNL     1      -8.924  14.016  66.072  1.00  0.00    -0.464 OA 
HETATM    8  C   UNL     1      -9.762  12.909  68.163  1.00  0.00    -0.227 C  
HETATM    9  C   UNL     1      -8.359  12.371  68.452  1.00  0.00    -0.137 C  
HETATM   10  H   UNL     1      -8.200  13.569  66.493  1.00  0.00     0.000 HD 
HETATM   11  C   UNL     1      -7.531  13.603  68.761  1.00  0.00    -0.088 A  
HETATM   12  C   UNL     1      -6.160  13.504  68.954  1.00  0.00    -0.089 A  
HETATM   13  C   UNL     1      -5.358  14.660  68.902  1.00  0.00    -0.088 A  
HETATM   14  C   UNL     1      -5.951  15.925  68.690  1.00  0.00    -0.101 A  
HETATM   15  O   UNL     1      -5.138  16.966  68.336  1.00  0.00    -0.114 OA 
HETATM   16  C   UNL     1      -7.334  16.011  68.625  1.00  0.00    -0.159 A  
HETATM   17  H   UNL     1      -5.537  17.817  68.193  1.00  0.00     0.000 HD 
HETATM   18  C   UNL     1      -8.134  14.886  68.702  1.00  0.00    -0.151 A  
HETATM   19  C   UNL     1      -9.557  15.193  68.206  1.00  0.00    -0.211 C  
HETATM   20  C   UNL     1     -11.004  14.877  69.126  1.00  0.00    -0.266 C  
HETATM   21  C   UNL     1      -9.127  16.516  67.504  1.00  0.00    -0.197 C  
HETATM   22  O   UNL     1      -8.061  17.132  68.271  1.00  0.00    -0.220 OA 
HETATM   23  C   UNL     1     -11.849  13.322  68.817  1.00  0.00    -0.334 C  
HETATM   24  N   UNL     1     -10.981  12.178  68.387  1.00  0.00    -0.221 NA 
ENDROOT
BRANCH  24  25
HETATM   25  C   UNL     1     -11.181  11.305  67.234  1.00  0.00    -0.296 C  
BRANCH  25  26
HETATM   26  C   UNL     1     -10.078  10.294  66.935  1.00  0.00    -0.274 C  
HETATM   27  C   UNL     1     -10.498   8.824  67.312  1.00  0.00    -0.353 C  
HETATM   28  C   UNL     1      -9.502   8.354  66.237  1.00  0.00    -0.292 C  
HETATM   29  C   UNL     1      -9.811   9.691  65.511  1.00  0.00    -0.352 C  
ENDBRANCH  25  26
ENDBRANCH  24  25
TORSDOF 2
ENDMDL
MODEL       86
REMARK 921   NORMALIZED FREE ENERGY PREDICTED BY IDOCK:   -4.42 KCAL/MOL
REMARK 922        TOTAL FREE ENERGY PREDICTED BY IDOCK:   -5.48 KCAL/MOL
REMARK 923 INTER-LIGAND FREE ENERGY PREDICTED BY IDOCK:   -5.29 KCAL/MOL
REMARK 924 INTRA-LIGAND FREE ENERGY PREDICTED BY IDOCK:   -0.19 KCAL/MOL
REMARK 927      BINDING AFFINITY PREDICTED BY RF-SCORE:    0.00 PKD
ROOT
HETATM    1  O   UNL     1     -10.344   5.851  66.046  1.00  0.00    -0.424 OA 
HETATM    2  C   UNL     1     -10.733   6.968  66.874  1.00  0.00    -0.306 C  
HETATM    3  H   UNL     1     -10.126   6.185  65.184  1.00  0.00     0.000 HD 
HETATM    4  C   UNL     1     -11.085   6.428  68.265  1.00  0.00    -0.359 C  
HETATM    5  C   UNL     1      -9.958   6.638  69.414  1.00  0.00    -0.169 C  
HETATM    6  C   UNL     1      -8.944   7.939  69.377  1.00  0.00    -0.145 C  
HETATM    7  O   UNL     1      -7.670   7.390  69.052  1.00  0.00    -0.112 OA 
HETATM    8  C   UNL     1      -8.703   9.258  70.372  1.00  0.00    -0.229 C  
HETATM    9  C   UNL     1      -7.498  10.151  70.071  1.00  0.00    -0.171 C  
HETATM   10  H   UNL     1      -7.086   8.139  69.031  1.00  0.00     0.000 HD 
HETATM   11  C   UNL     1      -7.574  10.408  68.578  1.00  0.00    -0.095 A  
HETATM   12  C   UNL     1      -6.557  11.091  67.926  1.00  0.00    -0.062 A  
HETATM   13  C   UNL     1      -6.461  11.033  66.522  1.00  0.00    -0.132 A  
HETATM   14  C   UNL     1      -7.418  10.311  65.775  1.00  0.00    -0.144 A  
HETATM   15  O   UNL     1      -7.128  10.014  64.472  1.00  0.00    -0.133 OA 
HETATM   16  C   UNL     1      -8.493   9.742  66.441  1.00  0.00    -0.124 A  
HETATM   17  H   UNL     1      -7.771   9.528  63.969  1.00  0.00     0.000 HD 
HETATM   18  C   UNL     1      -8.614   9.815  67.817  1.00  0.00    -0.125 A  
HETATM   19  C   UNL     1      -9.636   8.787  68.331  1.00  0.00    -0.157 C  
HETATM   20  C   UNL     1     -11.000   9.185  69.342  1.00  0.00    -0.108 C  
HETATM   21  C   UNL     1      -9.621   7.971  67.004  1.00  0.00    -0.196 C  
HETATM   22  O   UNL     1      -9.424   8.881  65.891  1.00  0.00    -0.237 OA 
HETATM   23  C   UNL     1     -10.786   9.004  71.116  1.00  0.00    -0.288 C  
HETATM   24  N   UNL     1      -9.395   9.215  71.633  1.00  0.00    -0.322 NA 
ENDROOT
BRANCH  24  25
HETATM   25  C   UNL     1      -8.637   8.329  72.513  1.00  0.00    -0.208 C  
BRANCH  25  26
HETATM   26  C   UNL     1      -9.416   7.626  73.621  1.00  0.00    -0.340 C  
HETATM   27  C   UNL     1     -10.324   6.465  73.068  1.00  0.00    -0.234 C  
HETATM   28  C   UNL     1     -10.194   5.817  74.458  1.00  0.00    -0.287 C  
HETATM   29  C   UNL     1      -8.808   6.510  74.541  1.00  0.00    -0.187 C  
ENDBRANCH  25  26
ENDBRANCH  24  25
TORSDOF 2
ENDMDL
MODEL       87
REMARK 921   NORMALIZED FREE ENERGY PREDICTED BY IDOCK:   -4.42 KCAL/MOL
REMARK 922        TOTAL FREE ENERGY PREDICTED BY IDOCK:   -5.48 KCAL/MOL
REMARK 923 INTER-LIGAND FREE ENERGY PREDICTED BY IDOCK:   -5.05 KCAL/MOL
REMARK 924 INTRA-LIGAND FREE ENERGY PREDICTED BY IDOCK:   -0.43 KCAL/MOL
REMARK 927      BINDING AFFINITY PREDICTED BY RF-SCORE:    0.00 PKD
ROOT
HETATM    1  O   UNL     1     -11.095   5.957  69.366  1.00  0.00    -0.363 OA 
HETATM    2  C   UNL     1     -10.084   6.360  68.418  1.00  0.00    -0.157 C  
HETATM    3  H   UNL     1     -10.660   5.554  70.108  1.00  0.00     0.000 HD 
HETATM    4  C   UNL     1     -10.786   7.009  67.220  1.00  0.00    -0.412 C  
HETATM    5  C   UNL     1     -10.743   8.631  67.167  1.00  0.00    -0.199 C  
HETATM    6  C   UNL     1      -9.467   9.465  67.798  1.00  0.00    -0.132 C  
HETATM    7  O   UNL     1      -9.995  10.102  68.958  1.00  0.00    -0.186 OA 
HETATM    8  C   UNL     1      -8.288  10.455  67.153  1.00  0.00    -0.126 C  
HETATM    9  C   UNL     1      -7.387  11.204  68.137  1.00  0.00    -0.087 C  
HETATM   10  H   UNL     1      -9.261  10.582  69.321  1.00  0.00     0.000 HD 
HETATM   11  C   UNL     1      -6.944  10.148  69.132  1.00  0.00    -0.062 A  
HETATM   12  C   UNL     1      -6.204  10.499  70.253  1.00  0.00    -0.130 A  
HETATM   13  C   UNL     1      -6.088   9.596  71.328  1.00  0.00    -0.035 A  
HETATM   14  C   UNL     1      -6.693   8.322  71.252  1.00  0.00    -0.050 A  
HETATM   15  O   UNL     1      -6.831   7.604  72.408  1.00  0.00    -0.058 OA 
HETATM   16  C   UNL     1      -7.320   7.950  70.072  1.00  0.00    -0.070 A  
HETATM   17  H   UNL     1      -7.238   6.747  72.357  1.00  0.00     0.000 HD 
HETATM   18  C   UNL     1      -7.417   8.818  68.999  1.00  0.00    -0.081 A  
HETATM   19  C   UNL     1      -8.481   8.333  68.000  1.00  0.00    -0.132 C  
HETATM   20  C   UNL     1      -8.187   8.089  66.299  1.00  0.00    -0.116 C  
HETATM   21  C   UNL     1      -9.126   7.349  69.021  1.00  0.00    -0.133 C  
HETATM   22  O   UNL     1      -8.088   6.816  69.884  1.00  0.00    -0.121 OA 
HETATM   23  C   UNL     1      -8.592   9.445  65.193  1.00  0.00    -0.167 C  
HETATM   24  N   UNL     1      -8.474  10.821  65.774  1.00  0.00    -0.175 NA 
ENDROOT
BRANCH  24  25
HETATM   25  C   UNL     1      -9.478  11.882  65.739  1.00  0.00    -0.196 C  
BRANCH  25  26
HETATM   26  C   UNL     1     -10.731  11.619  64.911  1.00  0.00    -0.352 C  
HETATM   27  C   UNL     1     -11.748  12.820  64.970  1.00  0.00    -0.391 C  
HETATM   28  C   UNL     1     -12.251  12.351  63.593  1.00  0.00    -0.653 C  
HETATM   29  C   UNL     1     -10.809  11.827  63.358  1.00  0.00    -0.460 C  
ENDBRANCH  25  26
ENDBRANCH  24  25
TORSDOF 2
ENDMDL
MODEL       88
REMARK 921   NORMALIZED FREE ENERGY PREDICTED BY IDOCK:   -4.41 KCAL/MOL
REMARK 922        TOTAL FREE ENERGY PREDICTED BY IDOCK:   -5.46 KCAL/MOL
REMARK 923 INTER-LIGAND FREE ENERGY PREDICTED BY IDOCK:   -5.21 KCAL/MOL
REMARK 924 INTRA-LIGAND FREE ENERGY PREDICTED BY IDOCK:   -0.25 KCAL/MOL
REMARK 927      BINDING AFFINITY PREDICTED BY RF-SCORE:    0.00 PKD
ROOT
HETATM    1  O   UNL     1     -11.653   7.571  73.352  1.00  0.00    -0.621 OA 
HETATM    2  C   UNL     1     -11.623   6.904  72.072  1.00  0.00    -0.285 C  
HETATM    3  H   UNL     1     -11.325   6.966  74.008  1.00  0.00     0.000 HD 
HETATM    4  C   UNL     1     -12.152   7.880  71.015  1.00  0.00    -0.246 C  
HETATM    5  C   UNL     1     -11.031   8.596  70.085  1.00  0.00    -0.234 C  
HETATM    6  C   UNL     1      -9.620   7.826  69.717  1.00  0.00    -0.167 C  
HETATM    7  O   UNL     1      -8.624   8.537  70.446  1.00  0.00    -0.130 OA 
HETATM    8  C   UNL     1      -8.931   7.269  68.301  1.00  0.00    -0.125 C  
HETATM    9  C   UNL     1      -7.484   6.776  68.374  1.00  0.00    -0.095 C  
HETATM   10  H   UNL     1      -7.811   8.093  70.233  1.00  0.00     0.000 HD 
HETATM   11  C   UNL     1      -7.454   5.850  69.576  1.00  0.00    -0.076 A  
HETATM   12  C   UNL     1      -6.256   5.308  70.021  1.00  0.00    -0.022 A  
HETATM   13  C   UNL     1      -6.179   4.739  71.307  1.00  0.00    -0.019 A  
HETATM   14  C   UNL     1      -7.326   4.687  72.130  1.00  0.00    -0.080 A  
HETATM   15  O   UNL     1      -7.153   4.425  73.461  1.00  0.00    -0.066 OA 
HETATM   16  C   UNL     1      -8.538   5.122  71.613  1.00  0.00    -0.129 A  
HETATM   17  H   UNL     1      -7.924   4.390  74.015  1.00  0.00     0.000 HD 
HETATM   18  C   UNL     1      -8.632   5.658  70.342  1.00  0.00    -0.132 A  
HETATM   19  C   UNL     1      -9.957   6.420  70.168  1.00  0.00    -0.201 C  
HETATM   20  C   UNL     1     -11.096   6.122  68.881  1.00  0.00    -0.417 C  
HETATM   21  C   UNL     1     -10.226   6.488  71.700  1.00  0.00    -0.193 C  
HETATM   22  O   UNL     1      -9.711   5.285  72.326  1.00  0.00    -0.154 OA 
HETATM   23  C   UNL     1     -10.971   7.158  67.419  1.00  0.00    -0.226 C  
HETATM   24  N   UNL     1      -9.600   7.665  67.091  1.00  0.00    -0.151 NA 
ENDROOT
BRANCH  24  25
HETATM   25  C   UNL     1      -9.213   9.047  66.814  1.00  0.00    -0.157 C  
BRANCH  25  26
HETATM   26  C   UNL     1      -9.942   9.752  65.675  1.00  0.00    -0.352 C  
HETATM   27  C   UNL     1      -9.721  11.311  65.701  1.00  0.00    -0.267 C  
HETATM   28  C   UNL     1      -9.972  11.285  64.183  1.00  0.00    -0.350 C  
HETATM   29  C   UNL     1      -9.386   9.849  64.212  1.00  0.00    -0.313 C  
ENDBRANCH  25  26
ENDBRANCH  24  25
TORSDOF 2
ENDMDL
MODEL       89
REMARK 921   NORMALIZED FREE ENERGY PREDICTED BY IDOCK:   -4.40 KCAL/MOL
REMARK 922        TOTAL FREE ENERGY PREDICTED BY IDOCK:   -5.46 KCAL/MOL
REMARK 923 INTER-LIGAND FREE ENERGY PREDICTED BY IDOCK:   -4.96 KCAL/MOL
REMARK 924 INTRA-LIGAND FREE ENERGY PREDICTED BY IDOCK:   -0.51 KCAL/MOL
REMARK 927      BINDING AFFINITY PREDICTED BY RF-SCORE:    0.00 PKD
ROOT
HETATM    1  O   UNL     1      -8.607   7.749  62.834  1.00  0.00    -0.391 OA 
HETATM    2  C   UNL     1      -7.871   7.781  64.076  1.00  0.00    -0.127 C  
HETATM    3  H   UNL     1      -8.397   6.937  62.388  1.00  0.00     0.000 HD 
HETATM    4  C   UNL     1      -8.209   9.092  64.796  1.00  0.00    -0.161 C  
HETATM    5  C   UNL     1      -9.263   8.975  66.025  1.00  0.00    -0.284 C  
HETATM    6  C   UNL     1      -9.349   7.604  66.939  1.00  0.00    -0.161 C  
HETATM    7  O   UNL     1     -10.597   7.016  66.584  1.00  0.00    -0.481 OA 
HETATM    8  C   UNL     1      -9.044   7.251  68.542  1.00  0.00    -0.136 C  
HETATM    9  C   UNL     1      -9.447   5.861  69.041  1.00  0.00    -0.149 C  
HETATM   10  H   UNL     1     -10.646   6.227  67.110  1.00  0.00     0.000 HD 
HETATM   11  C   UNL     1      -8.898   4.904  67.999  1.00  0.00    -0.112 A  
HETATM   12  C   UNL     1      -9.185   3.548  68.064  1.00  0.00    -0.228 A  
HETATM   13  C   UNL     1      -8.969   2.731  66.938  1.00  0.00    -0.171 A  
HETATM   14  C   UNL     1      -8.427   3.281  65.755  1.00  0.00    -0.107 A  
HETATM   15  O   UNL     1      -8.522   2.551  64.602  1.00  0.00    -0.086 OA 
HETATM   16  C   UNL     1      -8.034   4.612  65.758  1.00  0.00    -0.099 A  
HETATM   17  H   UNL     1      -8.158   2.922  63.806  1.00  0.00     0.000 HD 
HETATM   18  C   UNL     1      -8.216   5.418  66.866  1.00  0.00    -0.104 A  
HETATM   19  C   UNL     1      -8.083   6.903  66.488  1.00  0.00    -0.111 C  
HETATM   20  C   UNL     1      -7.006   8.022  67.280  1.00  0.00    -0.075 C  
HETATM   21  C   UNL     1      -8.238   6.625  64.963  1.00  0.00    -0.105 C  
HETATM   22  O   UNL     1      -7.636   5.342  64.653  1.00  0.00    -0.073 OA 
HETATM   23  C   UNL     1      -7.688   9.014  68.613  1.00  0.00    -0.096 C  
HETATM   24  N   UNL     1      -8.805   8.387  69.391  1.00  0.00    -0.141 NA 
ENDROOT
BRANCH  24  25
HETATM   25  C   UNL     1     -10.105   8.978  69.699  1.00  0.00    -0.197 C  
BRANCH  25  26
HETATM   26  C   UNL     1     -10.617   8.815  71.126  1.00  0.00    -0.310 C  
HETATM   27  C   UNL     1     -11.586   7.584  71.276  1.00  0.00    -0.305 C  
HETATM   28  C   UNL     1     -11.153   7.531  72.752  1.00  0.00    -0.416 C  
HETATM   29  C   UNL     1      -9.800   8.120  72.271  1.00  0.00    -0.329 C  
ENDBRANCH  25  26
ENDBRANCH  24  25
TORSDOF 2
ENDMDL
MODEL       90
REMARK 921   NORMALIZED FREE ENERGY PREDICTED BY IDOCK:   -4.39 KCAL/MOL
REMARK 922        TOTAL FREE ENERGY PREDICTED BY IDOCK:   -5.45 KCAL/MOL
REMARK 923 INTER-LIGAND FREE ENERGY PREDICTED BY IDOCK:   -5.02 KCAL/MOL
REMARK 924 INTRA-LIGAND FREE ENERGY PREDICTED BY IDOCK:   -0.42 KCAL/MOL
REMARK 927      BINDING AFFINITY PREDICTED BY RF-SCORE:    0.00 PKD
ROOT
HETATM    1  O   UNL     1     -11.994  11.955  66.052  1.00  0.00    -0.511 OA 
HETATM    2  C   UNL     1     -10.604  11.603  65.892  1.00  0.00    -0.271 C  
HETATM    3  H   UNL     1     -12.520  11.213  65.777  1.00  0.00     0.000 HD 
HETATM    4  C   UNL     1      -9.756  12.800  66.335  1.00  0.00    -0.261 C  
HETATM    5  C   UNL     1      -9.078  12.685  67.806  1.00  0.00    -0.192 C  
HETATM    6  C   UNL     1      -8.639  11.219  68.422  1.00  0.00    -0.155 C  
HETATM    7  O   UNL     1      -9.568  10.982  69.476  1.00  0.00    -0.420 OA 
HETATM    8  C   UNL     1      -7.183  10.522  68.846  1.00  0.00    -0.086 C  
HETATM    9  C   UNL     1      -7.236   9.181  69.582  1.00  0.00    -0.061 C  
HETATM   10  H   UNL     1      -9.315  10.138  69.831  1.00  0.00     0.000 HD 
HETATM   11  C   UNL     1      -8.204   8.338  68.773  1.00  0.00    -0.117 A  
HETATM   12  C   UNL     1      -8.595   7.084  69.222  1.00  0.00    -0.136 A  
HETATM   13  C   UNL     1      -9.726   6.459  68.663  1.00  0.00    -0.127 A  
HETATM   14  C   UNL     1     -10.443   7.091  67.623  1.00  0.00    -0.237 A  
HETATM   15  O   UNL     1     -11.693   6.621  67.324  1.00  0.00    -0.638 OA 
HETATM   16  C   UNL     1      -9.960   8.285  67.109  1.00  0.00    -0.239 A  
HETATM   17  H   UNL     1     -12.175   7.046  66.624  1.00  0.00     0.000 HD 
HETATM   18  C   UNL     1      -8.834   8.895  67.631  1.00  0.00    -0.137 A  
HETATM   19  C   UNL     1      -8.748  10.362  67.178  1.00  0.00    -0.130 C  
HETATM   20  C   UNL     1      -7.358  11.065  66.393  1.00  0.00    -0.128 C  
HETATM   21  C   UNL     1     -10.238  10.407  66.726  1.00  0.00    -0.226 C  
HETATM   22  O   UNL     1     -10.615   9.105  66.209  1.00  0.00    -0.101 OA 
HETATM   23  C   UNL     1      -6.171  11.917  67.438  1.00  0.00    -0.125 C  
HETATM   24  N   UNL     1      -6.049  11.407  68.842  1.00  0.00    -0.048 NA 
ENDROOT
BRANCH  24  25
HETATM   25  C   UNL     1      -6.108  12.192  70.073  1.00  0.00    -0.138 C  
BRANCH  25  26
HETATM   26  C   UNL     1      -5.544  13.608  70.016  1.00  0.00    -0.115 C  
HETATM   27  C   UNL     1      -6.650  14.678  69.683  1.00  0.00    -0.155 C  
HETATM   28  C   UNL     1      -5.770  15.695  70.431  1.00  0.00    -0.122 C  
HETATM   29  C   UNL     1      -5.282  14.494  71.284  1.00  0.00    -0.146 C  
ENDBRANCH  25  26
ENDBRANCH  24  25
TORSDOF 2
ENDMDL
MODEL       91
REMARK 921   NORMALIZED FREE ENERGY PREDICTED BY IDOCK:   -4.37 KCAL/MOL
REMARK 922        TOTAL FREE ENERGY PREDICTED BY IDOCK:   -5.42 KCAL/MOL
REMARK 923 INTER-LIGAND FREE ENERGY PREDICTED BY IDOCK:   -4.97 KCAL/MOL
REMARK 924 INTRA-LIGAND FREE ENERGY PREDICTED BY IDOCK:   -0.45 KCAL/MOL
REMARK 927      BINDING AFFINITY PREDICTED BY RF-SCORE:    0.00 PKD
ROOT
HETATM    1  O   UNL     1     -11.381   7.754  73.265  1.00  0.00    -0.562 OA 
HETATM    2  C   UNL     1     -11.295   7.542  71.840  1.00  0.00    -0.260 C  
HETATM    3  H   UNL     1     -11.035   6.983  73.699  1.00  0.00     0.000 HD 
HETATM    4  C   UNL     1     -11.854   8.786  71.140  1.00  0.00    -0.345 C  
HETATM    5  C   UNL     1     -10.754   9.812  70.530  1.00  0.00    -0.381 C  
HETATM    6  C   UNL     1      -9.300   9.264  69.978  1.00  0.00    -0.209 C  
HETATM    7  O   UNL     1      -8.354   9.740  70.931  1.00  0.00    -0.377 OA 
HETATM    8  C   UNL     1      -8.559   9.228  68.483  1.00  0.00    -0.128 C  
HETATM    9  C   UNL     1      -7.091   8.798  68.439  1.00  0.00    -0.077 C  
HETATM   10  H   UNL     1      -7.516   9.424  70.614  1.00  0.00     0.000 HD 
HETATM   11  C   UNL     1      -7.035   7.534  69.275  1.00  0.00    -0.068 A  
HETATM   12  C   UNL     1      -5.820   6.927  69.561  1.00  0.00    -0.015 A  
HETATM   13  C   UNL     1      -5.737   5.974  70.594  1.00  0.00    -0.018 A  
HETATM   14  C   UNL     1      -6.894   5.609  71.317  1.00  0.00    -0.062 A  
HETATM   15  O   UNL     1      -6.732   4.935  72.496  1.00  0.00    -0.052 OA 
HETATM   16  C   UNL     1      -8.117   6.138  70.930  1.00  0.00    -0.121 A  
HETATM   17  H   UNL     1      -7.510   4.690  72.982  1.00  0.00     0.000 HD 
HETATM   18  C   UNL     1      -8.216   7.054  69.898  1.00  0.00    -0.130 A  
HETATM   19  C   UNL     1      -9.574   7.774  69.937  1.00  0.00    -0.164 C  
HETATM   20  C   UNL     1     -10.673   7.865  68.586  1.00  0.00    -0.073 C  
HETATM   21  C   UNL     1      -9.873   7.329  71.399  1.00  0.00    -0.186 C  
HETATM   22  O   UNL     1      -9.309   6.010  71.617  1.00  0.00    -0.149 OA 
HETATM   23  C   UNL     1     -10.575   9.325  67.545  1.00  0.00    -0.262 C  
HETATM   24  N   UNL     1      -9.225   9.968  67.444  1.00  0.00    -0.137 NA 
ENDROOT
BRANCH  24  25
HETATM   25  C   UNL     1      -8.904  11.379  67.645  1.00  0.00    -0.139 C  
BRANCH  25  26
HETATM   26  C   UNL     1      -9.962  12.394  67.223  1.00  0.00    -0.209 C  
HETATM   27  C   UNL     1     -10.720  13.013  68.457  1.00  0.00    -0.275 C  
HETATM   28  C   UNL     1     -10.975  14.247  67.573  1.00  0.00    -0.297 C  
HETATM   29  C   UNL     1      -9.643  13.887  66.861  1.00  0.00    -0.271 C  
ENDBRANCH  25  26
ENDBRANCH  24  25
TORSDOF 2
ENDMDL
MODEL       92
REMARK 921   NORMALIZED FREE ENERGY PREDICTED BY IDOCK:   -4.37 KCAL/MOL
REMARK 922        TOTAL FREE ENERGY PREDICTED BY IDOCK:   -5.42 KCAL/MOL
REMARK 923 INTER-LIGAND FREE ENERGY PREDICTED BY IDOCK:   -5.14 KCAL/MOL
REMARK 924 INTRA-LIGAND FREE ENERGY PREDICTED BY IDOCK:   -0.28 KCAL/MOL
REMARK 927      BINDING AFFINITY PREDICTED BY RF-SCORE:    0.00 PKD
ROOT
HETATM    1  O   UNL     1     -11.032   6.585  71.647  1.00  0.00    -0.233 OA 
HETATM    2  C   UNL     1     -11.408   7.520  70.613  1.00  0.00    -0.281 C  
HETATM    3  H   UNL     1     -11.269   5.712  71.356  1.00  0.00     0.000 HD 
HETATM    4  C   UNL     1     -11.027   8.928  71.084  1.00  0.00    -0.356 C  
HETATM    5  C   UNL     1      -9.677   9.552  70.433  1.00  0.00    -0.328 C  
HETATM    6  C   UNL     1      -9.209   9.148  68.904  1.00  0.00    -0.139 C  
HETATM    7  O   UNL     1      -8.048   8.343  69.086  1.00  0.00    -0.114 OA 
HETATM    8  C   UNL     1      -9.036   9.996  67.476  1.00  0.00    -0.134 C  
HETATM    9  C   UNL     1      -8.373   9.266  66.305  1.00  0.00    -0.124 C  
HETATM   10  H   UNL     1      -7.778   8.111  68.206  1.00  0.00     0.000 HD 
HETATM   11  C   UNL     1      -9.079   7.925  66.239  1.00  0.00    -0.224 A  
HETATM   12  C   UNL     1      -8.647   6.941  65.360  1.00  0.00    -0.054 A  
HETATM   13  C   UNL     1      -9.072   5.610  65.534  1.00  0.00    -0.072 A  
HETATM   14  C   UNL     1      -9.963   5.280  66.579  1.00  0.00    -0.204 A  
HETATM   15  O   UNL     1     -10.106   3.962  66.913  1.00  0.00    -0.314 OA 
HETATM   16  C   UNL     1     -10.476   6.302  67.365  1.00  0.00    -0.248 A  
HETATM   17  H   UNL     1     -10.705   3.740  67.616  1.00  0.00     0.000 HD 
HETATM   18  C   UNL     1     -10.089   7.617  67.187  1.00  0.00    -0.323 A  
HETATM   19  C   UNL     1     -10.469   8.468  68.410  1.00  0.00    -0.215 C  
HETATM   20  C   UNL     1     -11.405   9.938  68.327  1.00  0.00    -0.045 C  
HETATM   21  C   UNL     1     -10.700   7.225  69.320  1.00  0.00    -0.198 C  
HETATM   22  O   UNL     1     -11.228   6.141  68.514  1.00  0.00    -0.341 OA 
HETATM   23  C   UNL     1     -10.497  11.485  68.250  1.00  0.00    -0.197 C  
HETATM   24  N   UNL     1      -9.154  11.425  67.587  1.00  0.00    -0.152 NA 
ENDROOT
BRANCH  24  25
HETATM   25  C   UNL     1      -7.887  11.925  68.116  1.00  0.00    -0.134 C  
BRANCH  25  26
HETATM   26  C   UNL     1      -7.317  13.182  67.467  1.00  0.00    -0.153 C  
HETATM   27  C   UNL     1      -8.354  14.367  67.449  1.00  0.00    -0.216 C  
HETATM   28  C   UNL     1      -7.142  15.315  67.432  1.00  0.00    -0.223 C  
HETATM   29  C   UNL     1      -6.390  14.204  68.214  1.00  0.00    -0.118 C  
ENDBRANCH  25  26
ENDBRANCH  24  25
TORSDOF 2
ENDMDL
MODEL       93
REMARK 921   NORMALIZED FREE ENERGY PREDICTED BY IDOCK:   -4.28 KCAL/MOL
REMARK 922        TOTAL FREE ENERGY PREDICTED BY IDOCK:   -5.32 KCAL/MOL
REMARK 923 INTER-LIGAND FREE ENERGY PREDICTED BY IDOCK:   -4.79 KCAL/MOL
REMARK 924 INTRA-LIGAND FREE ENERGY PREDICTED BY IDOCK:   -0.53 KCAL/MOL
REMARK 927      BINDING AFFINITY PREDICTED BY RF-SCORE:    0.00 PKD
ROOT
HETATM    1  O   UNL     1     -11.800  11.339  69.769  1.00  0.00    -0.301 OA 
HETATM    2  C   UNL     1     -10.527  10.660  69.744  1.00  0.00    -0.143 C  
HETATM    3  H   UNL     1     -11.722  12.132  69.252  1.00  0.00     0.000 HD 
HETATM    4  C   UNL     1     -10.653   9.381  70.579  1.00  0.00    -0.331 C  
HETATM    5  C   UNL     1     -10.820   8.000  69.742  1.00  0.00    -0.194 C  
HETATM    6  C   UNL     1     -10.136   7.826  68.251  1.00  0.00    -0.192 C  
HETATM    7  O   UNL     1     -11.239   7.819  67.350  1.00  0.00    -0.465 OA 
HETATM    8  C   UNL     1      -8.945   6.839  67.623  1.00  0.00    -0.115 C  
HETATM    9  C   UNL     1      -8.743   6.864  66.106  1.00  0.00    -0.153 C  
HETATM   10  H   UNL     1     -10.845   7.719  66.492  1.00  0.00     0.000 HD 
HETATM   11  C   UNL     1      -8.686   8.338  65.751  1.00  0.00    -0.196 A  
HETATM   12  C   UNL     1      -8.633   8.744  64.425  1.00  0.00    -0.110 A  
HETATM   13  C   UNL     1      -8.920  10.081  64.088  1.00  0.00    -0.268 A  
HETATM   14  C   UNL     1      -9.226  11.017  65.100  1.00  0.00    -0.205 A  
HETATM   15  O   UNL     1      -9.798  12.203  64.730  1.00  0.00    -0.381 OA 
HETATM   16  C   UNL     1      -9.151  10.615  66.426  1.00  0.00    -0.164 A  
HETATM   17  H   UNL     1     -10.005  12.833  65.411  1.00  0.00     0.000 HD 
HETATM   18  C   UNL     1      -8.844   9.311  66.771  1.00  0.00    -0.142 A  
HETATM   19  C   UNL     1      -9.218   9.032  68.236  1.00  0.00    -0.139 C  
HETATM   20  C   UNL     1      -8.114   8.391  69.423  1.00  0.00    -0.114 C  
HETATM   21  C   UNL     1     -10.126  10.293  68.342  1.00  0.00    -0.159 C  
HETATM   22  O   UNL     1      -9.566  11.350  67.521  1.00  0.00    -0.165 OA 
HETATM   23  C   UNL     1      -8.126   6.613  69.680  1.00  0.00    -0.126 C  
HETATM   24  N   UNL     1      -8.497   5.782  68.490  1.00  0.00    -0.110 NA 
ENDROOT
BRANCH  24  25
HETATM   25  C   UNL     1      -9.500   4.721  68.433  1.00  0.00    -0.144 C  
BRANCH  25  26
HETATM   26  C   UNL     1      -9.058   3.383  67.849  1.00  0.00    -0.207 C  
HETATM   27  C   UNL     1      -9.471   3.225  66.338  1.00  0.00    -0.101 C  
HETATM   28  C   UNL     1      -8.276   2.265  66.200  1.00  0.00    -0.089 C  
HETATM   29  C   UNL     1      -7.606   3.098  67.326  1.00  0.00    -0.074 C  
ENDBRANCH  25  26
ENDBRANCH  24  25
TORSDOF 2
ENDMDL
MODEL       94
REMARK 921   NORMALIZED FREE ENERGY PREDICTED BY IDOCK:   -4.24 KCAL/MOL
REMARK 922        TOTAL FREE ENERGY PREDICTED BY IDOCK:   -5.28 KCAL/MOL
REMARK 923 INTER-LIGAND FREE ENERGY PREDICTED BY IDOCK:   -4.99 KCAL/MOL
REMARK 924 INTRA-LIGAND FREE ENERGY PREDICTED BY IDOCK:   -0.29 KCAL/MOL
REMARK 927      BINDING AFFINITY PREDICTED BY RF-SCORE:    0.00 PKD
ROOT
HETATM    1  O   UNL     1      -9.342   7.123  74.544  1.00  0.00    -0.389 OA 
HETATM    2  C   UNL     1     -10.197   7.185  73.383  1.00  0.00    -0.325 C  
HETATM    3  H   UNL     1      -9.499   6.295  74.983  1.00  0.00     0.000 HD 
HETATM    4  C   UNL     1      -9.944   8.521  72.676  1.00  0.00    -0.265 C  
HETATM    5  C   UNL     1      -9.016   8.456  71.345  1.00  0.00    -0.237 C  
HETATM    6  C   UNL     1      -9.009   7.115  70.384  1.00  0.00    -0.155 C  
HETATM    7  O   UNL     1      -7.727   6.531  70.595  1.00  0.00    -0.100 OA 
HETATM    8  C   UNL     1      -9.468   6.809  68.808  1.00  0.00    -0.130 C  
HETATM    9  C   UNL     1      -9.105   5.441  68.227  1.00  0.00    -0.116 C  
HETATM   10  H   UNL     1      -7.723   5.760  70.041  1.00  0.00     0.000 HD 
HETATM   11  C   UNL     1      -9.539   4.445  69.286  1.00  0.00    -0.261 A  
HETATM   12  C   UNL     1      -9.248   3.095  69.150  1.00  0.00    -0.222 A  
HETATM   13  C   UNL     1      -9.345   2.240  70.264  1.00  0.00    -0.184 A  
HETATM   14  C   UNL     1      -9.771   2.747  71.512  1.00  0.00    -0.155 A  
HETATM   15  O   UNL     1      -9.556   1.983  72.625  1.00  0.00    -0.082 OA 
HETATM   16  C   UNL     1     -10.174   4.072  71.591  1.00  0.00    -0.040 A  
HETATM   17  H   UNL     1      -9.842   2.323  73.465  1.00  0.00     0.000 HD 
HETATM   18  C   UNL     1     -10.110   4.915  70.497  1.00  0.00    -0.312 A  
HETATM   19  C   UNL     1     -10.218   6.386  70.934  1.00  0.00    -0.226 C  
HETATM   20  C   UNL     1     -11.378   7.516  70.289  1.00  0.00    -0.219 C  
HETATM   21  C   UNL     1      -9.910   6.061  72.426  1.00  0.00    -0.162 C  
HETATM   22  O   UNL     1     -10.467   4.762  72.753  1.00  0.00    -0.186 OA 
HETATM   23  C   UNL     1     -10.840   8.557  68.928  1.00  0.00     0.023 C  
HETATM   24  N   UNL     1      -9.800   7.969  68.024  1.00  0.00    -0.161 NA 
ENDROOT
BRANCH  24  25
HETATM   25  C   UNL     1      -8.542   8.584  67.609  1.00  0.00    -0.133 C  
BRANCH  25  26
HETATM   26  C   UNL     1      -8.620   9.638  66.509  1.00  0.00    -0.135 C  
HETATM   27  C   UNL     1      -9.388   9.117  65.237  1.00  0.00    -0.224 C  
HETATM   28  C   UNL     1      -9.735  10.588  64.949  1.00  0.00    -0.360 C  
HETATM   29  C   UNL     1      -9.676  10.798  66.486  1.00  0.00    -0.236 C  
ENDBRANCH  25  26
ENDBRANCH  24  25
TORSDOF 2
ENDMDL
MODEL       95
REMARK 921   NORMALIZED FREE ENERGY PREDICTED BY IDOCK:   -4.22 KCAL/MOL
REMARK 922        TOTAL FREE ENERGY PREDICTED BY IDOCK:   -5.26 KCAL/MOL
REMARK 923 INTER-LIGAND FREE ENERGY PREDICTED BY IDOCK:   -4.92 KCAL/MOL
REMARK 924 INTRA-LIGAND FREE ENERGY PREDICTED BY IDOCK:   -0.34 KCAL/MOL
REMARK 927      BINDING AFFINITY PREDICTED BY RF-SCORE:    0.00 PKD
ROOT
HETATM    1  O   UNL     1     -11.436  15.100  66.093  1.00  0.00    -0.285 OA 
HETATM    2  C   UNL     1     -11.230  14.138  67.150  1.00  0.00    -0.317 C  
HETATM    3  H   UNL     1     -10.947  15.885  66.309  1.00  0.00     0.000 HD 
HETATM    4  C   UNL     1     -12.019  12.871  66.801  1.00  0.00    -0.418 C  
HETATM    5  C   UNL     1     -11.150  11.633  66.211  1.00  0.00    -0.345 C  
HETATM    6  C   UNL     1      -9.582  11.406  66.670  1.00  0.00    -0.191 C  
HETATM    7  O   UNL     1      -8.820  11.727  65.510  1.00  0.00    -0.406 OA 
HETATM    8  C   UNL     1      -8.774  10.208  67.507  1.00  0.00    -0.125 C  
HETATM    9  C   UNL     1      -7.247  10.291  67.548  1.00  0.00    -0.088 C  
HETATM   10  H   UNL     1      -7.917  11.596  65.774  1.00  0.00     0.000 HD 
HETATM   11  C   UNL     1      -6.950  11.729  67.928  1.00  0.00    -0.085 A  
HETATM   12  C   UNL     1      -5.646  12.203  67.940  1.00  0.00    -0.069 A  
HETATM   13  C   UNL     1      -5.403  13.590  67.958  1.00  0.00    -0.114 A  
HETATM   14  C   UNL     1      -6.483  14.498  68.000  1.00  0.00    -0.150 A  
HETATM   15  O   UNL     1      -6.235  15.810  67.703  1.00  0.00    -0.139 OA 
HETATM   16  C   UNL     1      -7.772  13.997  68.113  1.00  0.00    -0.143 A  
HETATM   17  H   UNL     1      -6.961  16.421  67.731  1.00  0.00     0.000 HD 
HETATM   18  C   UNL     1      -8.022  12.638  68.124  1.00  0.00    -0.158 A  
HETATM   19  C   UNL     1      -9.508  12.354  67.849  1.00  0.00    -0.198 C  
HETATM   20  C   UNL     1     -10.527  11.384  68.881  1.00  0.00    -0.219 C  
HETATM   21  C   UNL     1      -9.775  13.785  67.297  1.00  0.00    -0.242 C  
HETATM   22  O   UNL     1      -8.939  14.731  68.011  1.00  0.00    -0.166 OA 
HETATM   23  C   UNL     1     -10.707   9.648  68.457  1.00  0.00    -0.200 C  
HETATM   24  N   UNL     1      -9.536   9.016  67.769  1.00  0.00    -0.140 NA 
ENDROOT
BRANCH  24  25
HETATM   25  C   UNL     1      -9.554   8.234  66.535  1.00  0.00    -0.244 C  
BRANCH  25  26
HETATM   26  C   UNL     1      -8.439   7.210  66.350  1.00  0.00    -0.130 C  
HETATM   27  C   UNL     1      -8.366   6.186  67.544  1.00  0.00    -0.109 C  
HETATM   28  C   UNL     1      -7.742   5.196  66.544  1.00  0.00    -0.092 C  
HETATM   29  C   UNL     1      -8.573   5.928  65.456  1.00  0.00    -0.150 C  
ENDBRANCH  25  26
ENDBRANCH  24  25
TORSDOF 2
ENDMDL
MODEL       96
REMARK 921   NORMALIZED FREE ENERGY PREDICTED BY IDOCK:   -4.16 KCAL/MOL
REMARK 922        TOTAL FREE ENERGY PREDICTED BY IDOCK:   -5.19 KCAL/MOL
REMARK 923 INTER-LIGAND FREE ENERGY PREDICTED BY IDOCK:   -4.65 KCAL/MOL
REMARK 924 INTRA-LIGAND FREE ENERGY PREDICTED BY IDOCK:   -0.54 KCAL/MOL
REMARK 927      BINDING AFFINITY PREDICTED BY RF-SCORE:    0.00 PKD
ROOT
HETATM    1  O   UNL     1     -12.586   6.799  70.451  1.00  0.00    -0.545 OA 
HETATM    2  C   UNL     1     -11.345   6.242  69.971  1.00  0.00    -0.416 C  
HETATM    3  H   UNL     1     -12.637   6.644  71.388  1.00  0.00     0.000 HD 
HETATM    4  C   UNL     1     -11.264   6.491  68.460  1.00  0.00    -0.287 C  
HETATM    5  C   UNL     1     -10.296   7.708  67.993  1.00  0.00    -0.257 C  
HETATM    6  C   UNL     1      -8.953   8.104  68.866  1.00  0.00    -0.141 C  
HETATM    7  O   UNL     1      -9.269   9.361  69.457  1.00  0.00    -0.156 OA 
HETATM    8  C   UNL     1      -7.312   8.071  68.558  1.00  0.00    -0.097 C  
HETATM    9  C   UNL     1      -6.394   8.724  69.593  1.00  0.00    -0.039 C  
HETATM   10  H   UNL     1      -8.496   9.589  69.959  1.00  0.00     0.000 HD 
HETATM   11  C   UNL     1      -6.865   8.175  70.927  1.00  0.00    -0.042 A  
HETATM   12  C   UNL     1      -6.331   8.651  72.116  1.00  0.00    -0.073 A  
HETATM   13  C   UNL     1      -6.992   8.398  73.333  1.00  0.00    -0.119 A  
HETATM   14  C   UNL     1      -8.178   7.631  73.350  1.00  0.00    -0.151 A  
HETATM   15  O   UNL     1      -8.953   7.667  74.476  1.00  0.00    -0.434 OA 
HETATM   16  C   UNL     1      -8.622   7.063  72.164  1.00  0.00    -0.111 A  
HETATM   17  H   UNL     1      -9.751   7.152  74.487  1.00  0.00     0.000 HD 
HETATM   18  C   UNL     1      -7.966   7.282  70.967  1.00  0.00    -0.098 A  
HETATM   19  C   UNL     1      -8.861   6.897  69.777  1.00  0.00    -0.141 C  
HETATM   20  C   UNL     1      -8.387   5.794  68.512  1.00  0.00    -0.107 C  
HETATM   21  C   UNL     1     -10.159   6.881  70.638  1.00  0.00    -0.194 C  
HETATM   22  O   UNL     1      -9.832   6.423  71.976  1.00  0.00    -0.159 OA 
HETATM   23  C   UNL     1      -7.690   6.509  67.019  1.00  0.00    -0.100 C  
HETATM   24  N   UNL     1      -6.944   7.796  67.195  1.00  0.00    -0.075 NA 
ENDROOT
BRANCH  24  25
HETATM   25  C   UNL     1      -7.128   9.033  66.439  1.00  0.00    -0.080 C  
BRANCH  25  26
HETATM   26  C   UNL     1      -8.061   8.973  65.234  1.00  0.00    -0.126 C  
HETATM   27  C   UNL     1      -9.168  10.091  65.280  1.00  0.00    -0.268 C  
HETATM   28  C   UNL     1      -9.209   9.994  63.744  1.00  0.00    -0.314 C  
HETATM   29  C   UNL     1      -7.714   9.584  63.832  1.00  0.00    -0.123 C  
ENDBRANCH  25  26
ENDBRANCH  24  25
TORSDOF 2
ENDMDL
MODEL       97
REMARK 921   NORMALIZED FREE ENERGY PREDICTED BY IDOCK:   -4.14 KCAL/MOL
REMARK 922        TOTAL FREE ENERGY PREDICTED BY IDOCK:   -5.17 KCAL/MOL
REMARK 923 INTER-LIGAND FREE ENERGY PREDICTED BY IDOCK:   -4.79 KCAL/MOL
REMARK 924 INTRA-LIGAND FREE ENERGY PREDICTED BY IDOCK:   -0.38 KCAL/MOL
REMARK 927      BINDING AFFINITY PREDICTED BY RF-SCORE:    0.00 PKD
ROOT
HETATM    1  O   UNL     1      -9.698   5.348  65.545  1.00  0.00    -0.354 OA 
HETATM    2  C   UNL     1     -10.495   5.697  66.697  1.00  0.00    -0.279 C  
HETATM    3  H   UNL     1      -9.886   5.974  64.856  1.00  0.00     0.000 HD 
HETATM    4  C   UNL     1     -10.192   4.686  67.809  1.00  0.00    -0.027 C  
HETATM    5  C   UNL     1      -9.201   5.203  68.987  1.00  0.00    -0.156 C  
HETATM    6  C   UNL     1      -9.164   6.793  69.424  1.00  0.00    -0.143 C  
HETATM    7  O   UNL     1      -7.900   7.261  68.961  1.00  0.00    -0.113 OA 
HETATM    8  C   UNL     1      -9.549   7.629  70.817  1.00  0.00    -0.166 C  
HETATM    9  C   UNL     1      -9.174   9.111  70.870  1.00  0.00    -0.326 C  
HETATM   10  H   UNL     1      -7.878   8.176  69.212  1.00  0.00     0.000 HD 
HETATM   11  C   UNL     1      -9.671   9.681  69.555  1.00  0.00    -0.216 A  
HETATM   12  C   UNL     1      -9.389  10.994  69.201  1.00  0.00    -0.039 A  
HETATM   13  C   UNL     1      -9.550  11.410  67.866  1.00  0.00    -0.180 A  
HETATM   14  C   UNL     1     -10.031  10.506  66.894  1.00  0.00    -0.200 A  
HETATM   15  O   UNL     1      -9.879  10.836  65.575  1.00  0.00    -0.225 OA 
HETATM   16  C   UNL     1     -10.421   9.237  67.298  1.00  0.00    -0.264 A  
HETATM   17  H   UNL     1     -10.202  10.227  64.921  1.00  0.00     0.000 HD 
HETATM   18  C   UNL     1     -10.294   8.825  68.612  1.00  0.00    -0.230 A  
HETATM   19  C   UNL     1     -10.406   7.294  68.716  1.00  0.00    -0.209 C  
HETATM   20  C   UNL     1     -11.520   6.463  69.769  1.00  0.00    -0.468 C  
HETATM   21  C   UNL     1     -10.175   7.080  67.190  1.00  0.00    -0.248 C  
HETATM   22  O   UNL     1     -10.762   8.189  66.463  1.00  0.00    -0.081 OA 
HETATM   23  C   UNL     1     -10.904   5.955  71.378  1.00  0.00    -0.271 C  
HETATM   24  N   UNL     1      -9.828   6.814  71.969  1.00  0.00    -0.158 NA 
ENDROOT
BRANCH  24  25
HETATM   25  C   UNL     1      -8.544   6.373  72.509  1.00  0.00    -0.123 C  
BRANCH  25  26
HETATM   26  C   UNL     1      -8.202   4.894  72.354  1.00  0.00    -0.119 C  
HETATM   27  C   UNL     1      -6.793   4.541  72.961  1.00  0.00    -0.062 C  
HETATM   28  C   UNL     1      -7.332   3.114  73.163  1.00  0.00    -0.046 C  
HETATM   29  C   UNL     1      -8.730   3.772  73.316  1.00  0.00    -0.087 C  
ENDBRANCH  25  26
ENDBRANCH  24  25
TORSDOF 2
ENDMDL
MODEL       98
REMARK 921   NORMALIZED FREE ENERGY PREDICTED BY IDOCK:   -4.11 KCAL/MOL
REMARK 922        TOTAL FREE ENERGY PREDICTED BY IDOCK:   -5.14 KCAL/MOL
REMARK 923 INTER-LIGAND FREE ENERGY PREDICTED BY IDOCK:   -4.93 KCAL/MOL
REMARK 924 INTRA-LIGAND FREE ENERGY PREDICTED BY IDOCK:   -0.20 KCAL/MOL
REMARK 927      BINDING AFFINITY PREDICTED BY RF-SCORE:    0.00 PKD
ROOT
HETATM    1  O   UNL     1     -11.255  13.310  63.143  1.00  0.00    -0.430 OA 
HETATM    2  C   UNL     1     -10.389  13.274  64.297  1.00  0.00    -0.294 C  
HETATM    3  H   UNL     1     -10.787  12.927  62.410  1.00  0.00     0.000 HD 
HETATM    4  C   UNL     1     -11.145  13.893  65.479  1.00  0.00    -0.304 C  
HETATM    5  C   UNL     1     -11.761  12.845  66.555  1.00  0.00    -0.453 C  
HETATM    6  C   UNL     1     -11.022  11.399  66.846  1.00  0.00    -0.299 C  
HETATM    7  O   UNL     1     -11.900  10.429  66.280  1.00  0.00     1.021 OA 
HETATM    8  C   UNL     1     -10.280  10.715  68.176  1.00  0.00    -0.168 C  
HETATM    9  C   UNL     1      -9.889   9.239  68.078  1.00  0.00    -0.191 C  
HETATM   10  H   UNL     1     -11.475   9.597  66.448  1.00  0.00     0.000 HD 
HETATM   11  C   UNL     1      -9.178   9.118  66.743  1.00  0.00    -0.195 A  
HETATM   12  C   UNL     1      -8.787   7.877  66.260  1.00  0.00    -0.188 A  
HETATM   13  C   UNL     1      -8.444   7.728  64.903  1.00  0.00    -0.019 A  
HETATM   14  C   UNL     1      -8.462   8.847  64.040  1.00  0.00    -0.133 A  
HETATM   15  O   UNL     1      -8.434   8.621  62.692  1.00  0.00    -0.252 OA 
HETATM   16  C   UNL     1      -8.736  10.097  64.575  1.00  0.00    -0.196 A  
HETATM   17  H   UNL     1      -8.447   9.373  62.111  1.00  0.00     0.000 HD 
HETATM   18  C   UNL     1      -9.048  10.260  65.912  1.00  0.00    -0.194 A  
HETATM   19  C   UNL     1      -9.693  11.635  66.158  1.00  0.00    -0.253 C  
HETATM   20  C   UNL     1      -9.122  12.787  67.336  1.00  0.00    -0.192 C  
HETATM   21  C   UNL     1      -9.998  11.865  64.649  1.00  0.00    -0.230 C  
HETATM   22  O   UNL     1      -8.946  11.258  63.855  1.00  0.00    -0.060 OA 
HETATM   23  C   UNL     1      -9.908  12.768  68.951  1.00  0.00     0.156 C  
HETATM   24  N   UNL     1     -10.431  11.441  69.409  1.00  0.00    -0.077 NA 
ENDROOT
BRANCH  24  25
HETATM   25  C   UNL     1     -11.768  11.150  69.921  1.00  0.00    -0.355 C  
BRANCH  25  26
HETATM   26  C   UNL     1     -11.979   9.782  70.563  1.00  0.00    -0.282 C  
HETATM   27  C   UNL     1     -10.807   9.396  71.541  1.00  0.00    -0.398 C  
HETATM   28  C   UNL     1     -11.829   8.516  72.282  1.00  0.00    -0.453 C  
HETATM   29  C   UNL     1     -12.899   9.537  71.810  1.00  0.00    -0.496 C  
ENDBRANCH  25  26
ENDBRANCH  24  25
TORSDOF 2
ENDMDL
MODEL       99
REMARK 921   NORMALIZED FREE ENERGY PREDICTED BY IDOCK:   -4.10 KCAL/MOL
REMARK 922        TOTAL FREE ENERGY PREDICTED BY IDOCK:   -5.13 KCAL/MOL
REMARK 923 INTER-LIGAND FREE ENERGY PREDICTED BY IDOCK:   -4.87 KCAL/MOL
REMARK 924 INTRA-LIGAND FREE ENERGY PREDICTED BY IDOCK:   -0.26 KCAL/MOL
REMARK 927      BINDING AFFINITY PREDICTED BY RF-SCORE:    0.00 PKD
ROOT
HETATM    1  O   UNL     1     -12.521   8.352  73.074  1.00  0.00    -0.648 OA 
HETATM    2  C   UNL     1     -12.387   7.593  71.854  1.00  0.00    -0.306 C  
HETATM    3  H   UNL     1     -12.723   7.746  73.778  1.00  0.00     0.000 HD 
HETATM    4  C   UNL     1     -12.061   8.570  70.718  1.00  0.00    -0.075 C  
HETATM    5  C   UNL     1     -10.509   8.617  70.246  1.00  0.00    -0.229 C  
HETATM    6  C   UNL     1      -9.554   7.275  70.344  1.00  0.00    -0.165 C  
HETATM    7  O   UNL     1      -8.634   7.567  71.391  1.00  0.00    -0.118 OA 
HETATM    8  C   UNL     1      -8.777   6.314  69.221  1.00  0.00    -0.124 C  
HETATM    9  C   UNL     1      -7.809   5.257  69.756  1.00  0.00    -0.073 C  
HETATM   10  H   UNL     1      -8.084   6.795  71.447  1.00  0.00     0.000 HD 
HETATM   11  C   UNL     1      -8.577   4.557  70.862  1.00  0.00    -0.115 A  
HETATM   12  C   UNL     1      -7.956   3.607  71.662  1.00  0.00    -0.062 A  
HETATM   13  C   UNL     1      -8.552   3.216  72.877  1.00  0.00    -0.082 A  
HETATM   14  C   UNL     1      -9.796   3.761  73.264  1.00  0.00    -0.120 A  
HETATM   15  O   UNL     1     -10.190   3.609  74.565  1.00  0.00    -0.162 OA 
HETATM   16  C   UNL     1     -10.453   4.613  72.388  1.00  0.00    -0.185 A  
HETATM   17  H   UNL     1     -11.027   3.976  74.826  1.00  0.00     0.000 HD 
HETATM   18  C   UNL     1      -9.892   4.984  71.180  1.00  0.00    -0.254 A  
HETATM   19  C   UNL     1     -10.606   6.216  70.601  1.00  0.00    -0.307 C  
HETATM   20  C   UNL     1     -11.285   6.290  68.996  1.00  0.00    -0.415 C  
HETATM   21  C   UNL     1     -11.286   6.574  71.956  1.00  0.00    -0.285 C  
HETATM   22  O   UNL     1     -11.589   5.349  72.671  1.00  0.00    -0.282 OA 
HETATM   23  C   UNL     1     -10.255   6.991  67.702  1.00  0.00    -0.193 C  
HETATM   24  N   UNL     1      -8.777   6.815  67.872  1.00  0.00    -0.121 NA 
ENDROOT
BRANCH  24  25
HETATM   25  C   UNL     1      -7.750   7.851  67.795  1.00  0.00    -0.121 C  
BRANCH  25  26
HETATM   26  C   UNL     1      -7.833   8.817  66.618  1.00  0.00    -0.100 C  
HETATM   27  C   UNL     1      -6.415   9.148  66.017  1.00  0.00    -0.068 C  
HETATM   28  C   UNL     1      -7.138   9.426  64.687  1.00  0.00    -0.100 C  
HETATM   29  C   UNL     1      -8.184   8.379  65.153  1.00  0.00    -0.158 C  
ENDBRANCH  25  26
ENDBRANCH  24  25
TORSDOF 2
ENDMDL
MODEL      100
REMARK 921   NORMALIZED FREE ENERGY PREDICTED BY IDOCK:   -4.07 KCAL/MOL
REMARK 922        TOTAL FREE ENERGY PREDICTED BY IDOCK:   -5.08 KCAL/MOL
REMARK 923 INTER-LIGAND FREE ENERGY PREDICTED BY IDOCK:   -4.96 KCAL/MOL
REMARK 924 INTRA-LIGAND FREE ENERGY PREDICTED BY IDOCK:   -0.13 KCAL/MOL
REMARK 927      BINDING AFFINITY PREDICTED BY RF-SCORE:    0.00 PKD
ROOT
HETATM    1  O   UNL     1      -9.853   6.750  71.742  1.00  0.00    -0.165 OA 
HETATM    2  C   UNL     1      -9.378   7.006  70.403  1.00  0.00    -0.159 C  
HETATM    3  H   UNL     1      -9.097   6.668  72.313  1.00  0.00     0.000 HD 
HETATM    4  C   UNL     1     -10.597   7.136  69.483  1.00  0.00    -0.247 C  
HETATM    5  C   UNL     1     -11.013   8.649  69.067  1.00  0.00     0.061 C  
HETATM    6  C   UNL     1      -9.873   9.833  68.930  1.00  0.00    -0.173 C  
HETATM    7  O   UNL     1     -10.119  10.696  70.036  1.00  0.00    -0.425 OA 
HETATM    8  C   UNL     1      -9.300  10.760  67.665  1.00  0.00    -0.147 C  
HETATM    9  C   UNL     1      -8.352  11.910  68.012  1.00  0.00    -0.160 C  
HETATM   10  H   UNL     1      -9.463  11.378  69.958  1.00  0.00     0.000 HD 
HETATM   11  C   UNL     1      -7.327  11.294  68.945  1.00  0.00    -0.115 A  
HETATM   12  C   UNL     1      -6.370  12.085  69.566  1.00  0.00    -0.123 A  
HETATM   13  C   UNL     1      -5.652  11.583  70.668  1.00  0.00    -0.137 A  
HETATM   14  C   UNL     1      -5.879  10.265  71.122  1.00  0.00    -0.003 A  
HETATM   15  O   UNL     1      -5.412   9.919  72.360  1.00  0.00    -0.263 OA 
HETATM   16  C   UNL     1      -6.751   9.454  70.408  1.00  0.00    -0.083 A  
HETATM   17  H   UNL     1      -5.565   9.033  72.665  1.00  0.00     0.000 HD 
HETATM   18  C   UNL     1      -7.440   9.927  69.307  1.00  0.00    -0.096 A  
HETATM   19  C   UNL     1      -8.612   8.994  68.956  1.00  0.00    -0.134 C  
HETATM   20  C   UNL     1      -8.868   8.296  67.378  1.00  0.00    -0.135 C  
HETATM   21  C   UNL     1      -8.575   8.275  70.337  1.00  0.00    -0.134 C  
HETATM   22  O   UNL     1      -7.201   8.207  70.798  1.00  0.00    -0.047 OA 
HETATM   23  C   UNL     1      -9.978   9.167  66.267  1.00  0.00    -0.282 C  
HETATM   24  N   UNL     1     -10.042  10.654  66.436  1.00  0.00    -0.218 NA 
ENDROOT
BRANCH  24  25
HETATM   25  C   UNL     1     -11.242  11.475  66.583  1.00  0.00    -0.271 C  
BRANCH  25  26
HETATM   26  C   UNL     1     -11.060  12.859  67.198  1.00  0.00    -0.309 C  
HETATM   27  C   UNL     1     -11.922  13.954  66.466  1.00  0.00    -0.470 C  
HETATM   28  C   UNL     1     -11.908  14.731  67.795  1.00  0.00    -0.322 C  
HETATM   29  C   UNL     1     -11.810  13.345  68.487  1.00  0.00    -0.401 C  
ENDBRANCH  25  26
ENDBRANCH  24  25
TORSDOF 2
ENDMDL
MODEL      101
REMARK 921   NORMALIZED FREE ENERGY PREDICTED BY IDOCK:   -4.05 KCAL/MOL
REMARK 922        TOTAL FREE ENERGY PREDICTED BY IDOCK:   -5.07 KCAL/MOL
REMARK 923 INTER-LIGAND FREE ENERGY PREDICTED BY IDOCK:   -4.53 KCAL/MOL
REMARK 924 INTRA-LIGAND FREE ENERGY PREDICTED BY IDOCK:   -0.54 KCAL/MOL
REMARK 927      BINDING AFFINITY PREDICTED BY RF-SCORE:    0.00 PKD
ROOT
HETATM    1  O   UNL     1      -9.748   6.377  66.150  1.00  0.00    -0.363 OA 
HETATM    2  C   UNL     1     -10.263   7.077  67.303  1.00  0.00    -0.234 C  
HETATM    3  H   UNL     1      -9.297   7.007  65.600  1.00  0.00     0.000 HD 
HETATM    4  C   UNL     1     -10.992   6.061  68.190  1.00  0.00    -0.340 C  
HETATM    5  C   UNL     1     -10.183   5.558  69.504  1.00  0.00    -0.331 C  
HETATM    6  C   UNL     1      -9.112   6.551  70.271  1.00  0.00    -0.155 C  
HETATM    7  O   UNL     1      -7.836   5.986  69.990  1.00  0.00    -0.100 OA 
HETATM    8  C   UNL     1      -9.050   7.250  71.786  1.00  0.00    -0.130 C  
HETATM    9  C   UNL     1      -7.753   7.964  72.174  1.00  0.00    -0.119 C  
HETATM   10  H   UNL     1      -7.219   6.557  70.431  1.00  0.00     0.000 HD 
HETATM   11  C   UNL     1      -7.429   8.848  70.984  1.00  0.00    -0.124 A  
HETATM   12  C   UNL     1      -6.238   9.558  70.935  1.00  0.00    -0.086 A  
HETATM   13  C   UNL     1      -5.792  10.095  69.712  1.00  0.00    -0.045 A  
HETATM   14  C   UNL     1      -6.571   9.941  68.544  1.00  0.00    -0.054 A  
HETATM   15  O   UNL     1      -5.978  10.189  67.336  1.00  0.00    -0.053 OA 
HETATM   16  C   UNL     1      -7.815   9.335  68.646  1.00  0.00    -0.089 A  
HETATM   17  H   UNL     1      -6.502  10.086  66.550  1.00  0.00     0.000 HD 
HETATM   18  C   UNL     1      -8.277   8.829  69.847  1.00  0.00    -0.118 A  
HETATM   19  C   UNL     1      -9.459   7.873  69.617  1.00  0.00    -0.160 C  
HETATM   20  C   UNL     1     -11.008   8.025  70.405  1.00  0.00    -0.248 C  
HETATM   21  C   UNL     1      -9.159   7.719  68.096  1.00  0.00    -0.129 C  
HETATM   22  O   UNL     1      -8.628   8.970  67.590  1.00  0.00    -0.120 OA 
HETATM   23  C   UNL     1     -11.264   7.064  71.900  1.00  0.00    -0.249 C  
HETATM   24  N   UNL     1     -10.041   6.789  72.721  1.00  0.00    -0.173 NA 
ENDROOT
BRANCH  24  25
HETATM   25  C   UNL     1      -9.591   5.494  73.226  1.00  0.00    -0.146 C  
BRANCH  25  26
HETATM   26  C   UNL     1     -10.426   4.276  72.844  1.00  0.00    -0.246 C  
HETATM   27  C   UNL     1      -9.546   3.111  72.255  1.00  0.00    -0.204 C  
HETATM   28  C   UNL     1     -10.639   2.149  72.753  1.00  0.00    -0.221 C  
HETATM   29  C   UNL     1     -10.907   3.192  73.870  1.00  0.00    -0.296 C  
ENDBRANCH  25  26
ENDBRANCH  24  25
TORSDOF 2
ENDMDL
MODEL      102
REMARK 921   NORMALIZED FREE ENERGY PREDICTED BY IDOCK:   -4.01 KCAL/MOL
REMARK 922        TOTAL FREE ENERGY PREDICTED BY IDOCK:   -5.02 KCAL/MOL
REMARK 923 INTER-LIGAND FREE ENERGY PREDICTED BY IDOCK:   -4.65 KCAL/MOL
REMARK 924 INTRA-LIGAND FREE ENERGY PREDICTED BY IDOCK:   -0.37 KCAL/MOL
REMARK 927      BINDING AFFINITY PREDICTED BY RF-SCORE:    0.00 PKD
ROOT
HETATM    1  O   UNL     1      -9.346  11.399  66.104  1.00  0.00    -0.203 OA 
HETATM    2  C   UNL     1      -9.995  10.121  66.272  1.00  0.00    -0.242 C  
HETATM    3  H   UNL     1      -9.916  12.069  66.463  1.00  0.00     0.000 HD 
HETATM    4  C   UNL     1      -9.075   9.040  65.691  1.00  0.00    -0.278 C  
HETATM    5  C   UNL     1      -8.233   8.170  66.772  1.00  0.00    -0.107 C  
HETATM    6  C   UNL     1      -8.840   7.872  68.277  1.00  0.00    -0.129 C  
HETATM    7  O   UNL     1      -8.029   8.652  69.150  1.00  0.00    -0.106 OA 
HETATM    8  C   UNL     1      -9.306   6.492  69.093  1.00  0.00    -0.133 C  
HETATM    9  C   UNL     1      -9.637   6.638  70.580  1.00  0.00    -0.177 C  
HETATM   10  H   UNL     1      -8.378   8.481  70.016  1.00  0.00     0.000 HD 
HETATM   11  C   UNL     1     -10.564   7.837  70.652  1.00  0.00    -0.222 A  
HETATM   12  C   UNL     1     -10.973   8.342  71.878  1.00  0.00    -0.354 A  
HETATM   13  C   UNL     1     -11.540   9.628  71.953  1.00  0.00    -0.167 A  
HETATM   14  C   UNL     1     -11.725  10.392  70.779  1.00  0.00    -0.368 A  
HETATM   15  O   UNL     1     -11.977  11.729  70.912  1.00  0.00    -0.402 OA 
HETATM   16  C   UNL     1     -11.422   9.815  69.554  1.00  0.00    -0.009 A  
HETATM   17  H   UNL     1     -12.101  12.243  70.123  1.00  0.00     0.000 HD 
HETATM   18  C   UNL     1     -10.891   8.542  69.465  1.00  0.00    -0.134 A  
HETATM   19  C   UNL     1     -10.278   8.302  68.074  1.00  0.00    -0.265 C  
HETATM   20  C   UNL     1     -10.690   6.958  67.042  1.00  0.00    -0.432 C  
HETATM   21  C   UNL     1     -10.252   9.819  67.722  1.00  0.00    -0.208 C  
HETATM   22  O   UNL     1     -11.396  10.467  68.335  1.00  0.00    -0.282 OA 
HETATM   23  C   UNL     1      -9.635   5.507  67.125  1.00  0.00    -0.134 C  
HETATM   24  N   UNL     1      -8.977   5.250  68.446  1.00  0.00    -0.108 NA 
ENDROOT
BRANCH  24  25
HETATM   25  C   UNL     1      -7.559   4.997  68.691  1.00  0.00    -0.078 C  
BRANCH  25  26
HETATM   26  C   UNL     1      -6.796   4.241  67.607  1.00  0.00    -0.052 C  
HETATM   27  C   UNL     1      -6.206   5.205  66.511  1.00  0.00    -0.035 C  
HETATM   28  C   UNL     1      -5.130   4.132  66.269  1.00  0.00    -0.008 C  
HETATM   29  C   UNL     1      -5.312   3.756  67.763  1.00  0.00    -0.016 C  
ENDBRANCH  25  26
ENDBRANCH  24  25
TORSDOF 2
ENDMDL
MODEL      103
REMARK 921   NORMALIZED FREE ENERGY PREDICTED BY IDOCK:   -4.00 KCAL/MOL
REMARK 922        TOTAL FREE ENERGY PREDICTED BY IDOCK:   -5.01 KCAL/MOL
REMARK 923 INTER-LIGAND FREE ENERGY PREDICTED BY IDOCK:   -4.62 KCAL/MOL
REMARK 924 INTRA-LIGAND FREE ENERGY PREDICTED BY IDOCK:   -0.39 KCAL/MOL
REMARK 927      BINDING AFFINITY PREDICTED BY RF-SCORE:    0.00 PKD
ROOT
HETATM    1  O   UNL     1     -10.742   4.789  74.519  1.00  0.00    -0.355 OA 
HETATM    2  C   UNL     1     -10.423   4.941  73.120  1.00  0.00    -0.202 C  
HETATM    3  H   UNL     1      -9.979   4.432  74.959  1.00  0.00     0.000 HD 
HETATM    4  C   UNL     1     -11.655   5.516  72.411  1.00  0.00    -0.230 C  
HETATM    5  C   UNL     1     -11.597   7.101  72.062  1.00  0.00    -0.317 C  
HETATM    6  C   UNL     1     -10.161   7.844  71.736  1.00  0.00    -0.196 C  
HETATM    7  O   UNL     1      -9.929   8.682  72.864  1.00  0.00    -0.144 OA 
HETATM    8  C   UNL     1      -9.515   8.592  70.391  1.00  0.00    -0.165 C  
HETATM    9  C   UNL     1      -8.194   9.342  70.574  1.00  0.00    -0.221 C  
HETATM   10  H   UNL     1      -9.102   9.110  72.677  1.00  0.00     0.000 HD 
HETATM   11  C   UNL     1      -7.303   8.373  71.329  1.00  0.00    -0.088 A  
HETATM   12  C   UNL     1      -6.052   8.769  71.781  1.00  0.00    -0.070 A  
HETATM   13  C   UNL     1      -5.383   8.001  72.754  1.00  0.00    -0.037 A  
HETATM   14  C   UNL     1      -5.966   6.812  73.243  1.00  0.00    -0.057 A  
HETATM   15  O   UNL     1      -5.456   6.268  74.389  1.00  0.00    -0.047 OA 
HETATM   16  C   UNL     1      -7.159   6.375  72.685  1.00  0.00    -0.075 A  
HETATM   17  H   UNL     1      -5.848   5.468  74.719  1.00  0.00     0.000 HD 
HETATM   18  C   UNL     1      -7.812   7.105  71.709  1.00  0.00    -0.093 A  
HETATM   19  C   UNL     1      -9.268   6.633  71.558  1.00  0.00    -0.146 C  
HETATM   20  C   UNL     1      -9.986   6.142  70.047  1.00  0.00    -0.217 C  
HETATM   21  C   UNL     1      -9.261   5.873  72.918  1.00  0.00    -0.138 C  
HETATM   22  O   UNL     1      -7.935   5.329  73.148  1.00  0.00    -0.100 OA 
HETATM   23  C   UNL     1     -10.897   7.388  69.128  1.00  0.00    -0.111 C  
HETATM   24  N   UNL     1     -10.430   8.801  69.300  1.00  0.00    -0.221 NA 
ENDROOT
BRANCH  24  25
HETATM   25  C   UNL     1     -11.247   9.965  69.638  1.00  0.00    -0.208 C  
BRANCH  25  26
HETATM   26  C   UNL     1     -11.297  11.093  68.613  1.00  0.00    -0.342 C  
HETATM   27  C   UNL     1     -11.676  12.475  69.265  1.00  0.00    -0.379 C  
HETATM   28  C   UNL     1     -10.908  13.136  68.106  1.00  0.00    -0.271 C  
HETATM   29  C   UNL     1     -10.028  11.857  68.093  1.00  0.00    -0.197 C  
ENDBRANCH  25  26
ENDBRANCH  24  25
TORSDOF 2
ENDMDL
MODEL      104
REMARK 921   NORMALIZED FREE ENERGY PREDICTED BY IDOCK:   -3.99 KCAL/MOL
REMARK 922        TOTAL FREE ENERGY PREDICTED BY IDOCK:   -5.00 KCAL/MOL
REMARK 923 INTER-LIGAND FREE ENERGY PREDICTED BY IDOCK:   -4.69 KCAL/MOL
REMARK 924 INTRA-LIGAND FREE ENERGY PREDICTED BY IDOCK:   -0.31 KCAL/MOL
REMARK 927      BINDING AFFINITY PREDICTED BY RF-SCORE:    0.00 PKD
ROOT
HETATM    1  O   UNL     1      -8.625   9.593  71.015  1.00  0.00    -0.344 OA 
HETATM    2  C   UNL     1      -9.624   8.787  70.355  1.00  0.00    -0.182 C  
HETATM    3  H   UNL     1      -8.786   9.556  71.951  1.00  0.00     0.000 HD 
HETATM    4  C   UNL     1      -9.364   8.847  68.846  1.00  0.00    -0.140 C  
HETATM    5  C   UNL     1      -8.636   7.548  68.199  1.00  0.00    -0.123 C  
HETATM    6  C   UNL     1      -8.869   6.043  68.834  1.00  0.00    -0.120 C  
HETATM    7  O   UNL     1      -7.622   5.713  69.437  1.00  0.00    -0.079 OA 
HETATM    8  C   UNL     1      -9.564   4.634  68.269  1.00  0.00    -0.149 C  
HETATM    9  C   UNL     1      -9.395   3.378  69.126  1.00  0.00    -0.237 C  
HETATM   10  H   UNL     1      -7.756   4.846  69.802  1.00  0.00     0.000 HD 
HETATM   11  C   UNL     1      -9.758   3.819  70.531  1.00  0.00    -0.230 A  
HETATM   12  C   UNL     1      -9.598   2.957  71.607  1.00  0.00    -0.222 A  
HETATM   13  C   UNL     1      -9.609   3.464  72.920  1.00  0.00    -0.167 A  
HETATM   14  C   UNL     1      -9.817   4.843  73.147  1.00  0.00    -0.150 A  
HETATM   15  O   UNL     1      -9.514   5.347  74.381  1.00  0.00    -0.129 OA 
HETATM   16  C   UNL     1     -10.098   5.662  72.062  1.00  0.00    -0.185 A  
HETATM   17  H   UNL     1      -9.653   6.274  74.533  1.00  0.00     0.000 HD 
HETATM   18  C   UNL     1     -10.117   5.171  70.770  1.00  0.00    -0.303 A  
HETATM   19  C   UNL     1     -10.045   6.319  69.749  1.00  0.00    -0.217 C  
HETATM   20  C   UNL     1     -11.189   6.549  68.453  1.00  0.00    -0.274 C  
HETATM   21  C   UNL     1      -9.562   7.354  70.808  1.00  0.00    -0.170 C  
HETATM   22  O   UNL     1     -10.172   7.042  72.087  1.00  0.00    -0.185 OA 
HETATM   23  C   UNL     1     -10.761   5.861  66.850  1.00  0.00    -0.321 C  
HETATM   24  N   UNL     1      -9.906   4.631  66.871  1.00  0.00    -0.199 NA 
ENDROOT
BRANCH  24  25
HETATM   25  C   UNL     1      -8.672   4.401  66.124  1.00  0.00    -0.113 C  
BRANCH  25  26
HETATM   26  C   UNL     1      -8.667   3.236  65.140  1.00  0.00    -0.117 C  
HETATM   27  C   UNL     1      -9.786   3.379  64.042  1.00  0.00    -0.170 C  
HETATM   28  C   UNL     1      -8.885   2.524  63.134  1.00  0.00    -0.085 C  
HETATM   29  C   UNL     1      -7.690   3.132  63.917  1.00  0.00    -0.076 C  
ENDBRANCH  25  26
ENDBRANCH  24  25
TORSDOF 2
ENDMDL
MODEL      105
REMARK 921   NORMALIZED FREE ENERGY PREDICTED BY IDOCK:   -3.96 KCAL/MOL
REMARK 922        TOTAL FREE ENERGY PREDICTED BY IDOCK:   -4.97 KCAL/MOL
REMARK 923 INTER-LIGAND FREE ENERGY PREDICTED BY IDOCK:   -4.45 KCAL/MOL
REMARK 924 INTRA-LIGAND FREE ENERGY PREDICTED BY IDOCK:   -0.51 KCAL/MOL
REMARK 927      BINDING AFFINITY PREDICTED BY RF-SCORE:    0.00 PKD
ROOT
HETATM    1  O   UNL     1     -11.626  19.730  66.377  1.00  0.00     0.442 OA 
HETATM    2  C   UNL     1     -10.779  19.216  67.427  1.00  0.00    -0.481 C  
HETATM    3  H   UNL     1     -11.264  20.558  66.085  1.00  0.00     0.000 HD 
HETATM    4  C   UNL     1     -11.363  17.880  67.899  1.00  0.00     0.546 C  
HETATM    5  C   UNL     1     -10.615  16.546  67.354  1.00  0.00    -0.300 C  
HETATM    6  C   UNL     1      -8.997  16.555  67.032  1.00  0.00    -0.204 C  
HETATM    7  O   UNL     1      -8.915  16.470  65.613  1.00  0.00    -0.449 OA 
HETATM    8  C   UNL     1      -7.676  15.765  67.678  1.00  0.00    -0.154 C  
HETATM    9  C   UNL     1      -6.343  15.914  66.941  1.00  0.00     0.236 C  
HETATM   10  H   UNL     1      -7.984  16.476  65.427  1.00  0.00     0.000 HD 
HETATM   11  C   UNL     1      -6.209  17.403  66.686  1.00  0.00    -0.239 A  
HETATM   12  C   UNL     1      -5.163  17.898  65.919  1.00  0.00    -0.235 A  
HETATM   13  C   UNL     1      -5.227  19.208  65.407  1.00  0.00    -0.190 A  
HETATM   14  C   UNL     1      -6.336  20.031  65.702  1.00  0.00    -0.226 A  
HETATM   15  O   UNL     1      -6.520  21.159  64.950  1.00  0.00    -0.475 OA 
HETATM   16  C   UNL     1      -7.307  19.556  66.572  1.00  0.00    -0.240 A  
HETATM   17  H   UNL     1      -7.266  21.713  65.148  1.00  0.00     0.000 HD 
HETATM   18  C   UNL     1      -7.242  18.281  67.103  1.00  0.00    -0.215 A  
HETATM   19  C   UNL     1      -8.602  17.863  67.686  1.00  0.00    -0.242 C  
HETATM   20  C   UNL     1      -8.833  17.288  69.316  1.00  0.00     0.178 C  
HETATM   21  C   UNL     1      -9.373  18.993  66.942  1.00  0.00    -0.313 C  
HETATM   22  O   UNL     1      -8.520  20.162  66.841  1.00  0.00    -0.309 OA 
HETATM   23  C   UNL     1      -8.824  15.509  69.567  1.00  0.00    -0.229 C  
HETATM   24  N   UNL     1      -7.979  14.717  68.616  1.00  0.00    -0.136 NA 
ENDROOT
BRANCH  24  25
HETATM   25  C   UNL     1      -8.385  13.547  67.841  1.00  0.00    -0.175 C  
BRANCH  25  26
HETATM   26  C   UNL     1      -9.754  12.953  68.154  1.00  0.00    -0.227 C  
HETATM   27  C   UNL     1     -10.580  12.639  66.851  1.00  0.00    -0.256 C  
HETATM   28  C   UNL     1     -11.308  11.562  67.674  1.00  0.00    -0.358 C  
HETATM   29  C   UNL     1      -9.992  11.439  68.489  1.00  0.00    -0.203 C  
ENDBRANCH  25  26
ENDBRANCH  24  25
TORSDOF 2
ENDMDL
MODEL      106
REMARK 921   NORMALIZED FREE ENERGY PREDICTED BY IDOCK:   -3.95 KCAL/MOL
REMARK 922        TOTAL FREE ENERGY PREDICTED BY IDOCK:   -4.96 KCAL/MOL
REMARK 923 INTER-LIGAND FREE ENERGY PREDICTED BY IDOCK:   -4.55 KCAL/MOL
REMARK 924 INTRA-LIGAND FREE ENERGY PREDICTED BY IDOCK:   -0.41 KCAL/MOL
REMARK 927      BINDING AFFINITY PREDICTED BY RF-SCORE:    0.00 PKD
ROOT
HETATM    1  O   UNL     1      -7.546   8.290  68.542  1.00  0.00    -0.096 OA 
HETATM    2  C   UNL     1      -8.986   8.320  68.635  1.00  0.00    -0.137 C  
HETATM    3  H   UNL     1      -7.310   8.240  67.623  1.00  0.00     0.000 HD 
HETATM    4  C   UNL     1      -9.365   8.400  70.119  1.00  0.00    -0.164 C  
HETATM    5  C   UNL     1      -9.818   9.863  70.657  1.00  0.00    -0.039 C  
HETATM    6  C   UNL     1     -10.574  10.936  69.658  1.00  0.00    -0.129 C  
HETATM    7  O   UNL     1      -9.610  11.962  69.441  1.00  0.00    -0.177 OA 
HETATM    8  C   UNL     1     -12.091  11.633  69.629  1.00  0.00    -0.280 C  
HETATM    9  C   UNL     1     -12.327  12.754  68.615  1.00  0.00     0.227 C  
HETATM   10  H   UNL     1     -10.045  12.580  68.866  1.00  0.00     0.000 HD 
HETATM   11  C   UNL     1     -11.784  12.209  67.307  1.00  0.00    -0.369 A  
HETATM   12  C   UNL     1     -11.720  13.014  66.178  1.00  0.00    -0.445 A  
HETATM   13  C   UNL     1     -10.921  12.628  65.085  1.00  0.00    -0.324 A  
HETATM   14  C   UNL     1     -10.213  11.406  65.121  1.00  0.00    -0.277 A  
HETATM   15  O   UNL     1      -9.219  11.209  64.203  1.00  0.00    -0.310 OA 
HETATM   16  C   UNL     1     -10.393  10.562  66.208  1.00  0.00    -0.212 A  
HETATM   17  H   UNL     1      -8.742  10.388  64.227  1.00  0.00     0.000 HD 
HETATM   18  C   UNL     1     -11.197  10.918  67.275  1.00  0.00    -0.307 A  
HETATM   19  C   UNL     1     -10.911  10.026  68.495  1.00  0.00    -0.270 C  
HETATM   20  C   UNL     1     -12.132   9.129  69.359  1.00  0.00     1.257 C  
HETATM   21  C   UNL     1      -9.559   9.510  67.917  1.00  0.00    -0.133 C  
HETATM   22  O   UNL     1      -9.667   9.416  66.473  1.00  0.00    -0.198 OA 
HETATM   23  C   UNL     1     -12.844   9.906  70.814  1.00  0.00    -0.216 C  
HETATM   24  N   UNL     1     -12.899  11.403  70.797  1.00  0.00    -0.222 NA 
ENDROOT
BRANCH  24  25
HETATM   25  C   UNL     1     -12.427  12.315  71.836  1.00  0.00     0.276 C  
BRANCH  25  26
HETATM   26  C   UNL     1     -13.375  13.434  72.255  1.00  0.00    -0.641 C  
HETATM   27  C   UNL     1     -12.606  14.747  72.658  1.00  0.00    -0.443 C  
HETATM   28  C   UNL     1     -13.878  15.514  72.254  1.00  0.00    -0.639 C  
HETATM   29  C   UNL     1     -14.127  14.365  71.241  1.00  0.00    -0.282 C  
ENDBRANCH  25  26
ENDBRANCH  24  25
TORSDOF 2
ENDMDL
MODEL      107
REMARK 921   NORMALIZED FREE ENERGY PREDICTED BY IDOCK:   -3.92 KCAL/MOL
REMARK 922        TOTAL FREE ENERGY PREDICTED BY IDOCK:   -4.92 KCAL/MOL
REMARK 923 INTER-LIGAND FREE ENERGY PREDICTED BY IDOCK:   -4.65 KCAL/MOL
REMARK 924 INTRA-LIGAND FREE ENERGY PREDICTED BY IDOCK:   -0.27 KCAL/MOL
REMARK 927      BINDING AFFINITY PREDICTED BY RF-SCORE:    0.00 PKD
ROOT
HETATM    1  O   UNL     1     -10.016   7.148  70.702  1.00  0.00    -0.190 OA 
HETATM    2  C   UNL     1     -10.786   7.979  69.808  1.00  0.00    -0.194 C  
HETATM    3  H   UNL     1      -9.832   6.328  70.259  1.00  0.00     0.000 HD 
HETATM    4  C   UNL     1     -11.083   9.302  70.524  1.00  0.00    -0.317 C  
HETATM    5  C   UNL     1     -10.171  10.569  70.080  1.00  0.00    -0.024 C  
HETATM    6  C   UNL     1      -9.585  10.693  68.543  1.00  0.00    -0.175 C  
HETATM    7  O   UNL     1      -8.183  10.479  68.676  1.00  0.00    -0.115 OA 
HETATM    8  C   UNL     1      -9.830  11.763  67.285  1.00  0.00    -0.185 C  
HETATM    9  C   UNL     1      -8.920  11.627  66.063  1.00  0.00    -0.149 C  
HETATM   10  H   UNL     1      -7.846  10.550  67.791  1.00  0.00     0.000 HD 
HETATM   11  C   UNL     1      -8.939  10.147  65.732  1.00  0.00    -0.187 A  
HETATM   12  C   UNL     1      -8.115   9.633  64.740  1.00  0.00    -0.139 A  
HETATM   13  C   UNL     1      -7.885   8.246  64.668  1.00  0.00    -0.132 A  
HETATM   14  C   UNL     1      -8.519   7.373  65.580  1.00  0.00    -0.130 A  
HETATM   15  O   UNL     1      -8.043   6.096  65.688  1.00  0.00    -0.114 OA 
HETATM   16  C   UNL     1      -9.433   7.900  66.482  1.00  0.00    -0.214 A  
HETATM   17  H   UNL     1      -8.468   5.509  66.301  1.00  0.00     0.000 HD 
HETATM   18  C   UNL     1      -9.688   9.257  66.544  1.00  0.00    -0.305 A  
HETATM   19  C   UNL     1     -10.403   9.618  67.858  1.00  0.00    -0.271 C  
HETATM   20  C   UNL     1     -11.906  10.498  67.944  1.00  0.00     0.459 C  
HETATM   21  C   UNL     1     -10.034   8.266  68.538  1.00  0.00    -0.190 C  
HETATM   22  O   UNL     1     -10.018   7.220  67.533  1.00  0.00    -0.147 OA 
HETATM   23  C   UNL     1     -11.802  12.276  68.181  1.00  0.00    -0.311 C  
HETATM   24  N   UNL     1     -10.585  12.943  67.615  1.00  0.00    -0.221 NA 
ENDROOT
BRANCH  24  25
HETATM   25  C   UNL     1      -9.680  13.858  68.305  1.00  0.00    -0.223 C  
BRANCH  25  26
HETATM   26  C   UNL     1      -9.841  15.345  68.007  1.00  0.00    -0.216 C  
HETATM   27  C   UNL     1     -11.169  15.934  68.612  1.00  0.00    -0.360 C  
HETATM   28  C   UNL     1     -10.448  17.293  68.649  1.00  0.00    -0.356 C  
HETATM   29  C   UNL     1      -9.138  16.480  68.830  1.00  0.00    -0.245 C  
ENDBRANCH  25  26
ENDBRANCH  24  25
TORSDOF 2
ENDMDL
MODEL      108
REMARK 921   NORMALIZED FREE ENERGY PREDICTED BY IDOCK:   -3.91 KCAL/MOL
REMARK 922        TOTAL FREE ENERGY PREDICTED BY IDOCK:   -4.91 KCAL/MOL
REMARK 923 INTER-LIGAND FREE ENERGY PREDICTED BY IDOCK:   -4.52 KCAL/MOL
REMARK 924 INTRA-LIGAND FREE ENERGY PREDICTED BY IDOCK:   -0.40 KCAL/MOL
REMARK 927      BINDING AFFINITY PREDICTED BY RF-SCORE:    0.00 PKD
ROOT
HETATM    1  O   UNL     1      -6.326   5.895  65.479  1.00  0.00    -0.039 OA 
HETATM    2  C   UNL     1      -7.684   6.226  65.836  1.00  0.00    -0.093 C  
HETATM    3  H   UNL     1      -6.001   6.570  64.894  1.00  0.00     0.000 HD 
HETATM    4  C   UNL     1      -8.208   5.136  66.779  1.00  0.00    -0.108 C  
HETATM    5  C   UNL     1      -8.248   5.522  68.356  1.00  0.00    -0.099 C  
HETATM    6  C   UNL     1      -8.497   7.079  68.840  1.00  0.00    -0.125 C  
HETATM    7  O   UNL     1      -7.242   7.492  69.373  1.00  0.00    -0.078 OA 
HETATM    8  C   UNL     1      -9.705   7.856  69.692  1.00  0.00    -0.173 C  
HETATM    9  C   UNL     1      -9.447   9.306  70.105  1.00  0.00    -0.258 C  
HETATM   10  H   UNL     1      -7.385   8.388  69.652  1.00  0.00     0.000 HD 
HETATM   11  C   UNL     1      -8.937   9.981  68.845  1.00  0.00    -0.152 A  
HETATM   12  C   UNL     1      -8.481  11.291  68.880  1.00  0.00    -0.062 A  
HETATM   13  C   UNL     1      -7.708  11.793  67.815  1.00  0.00    -0.133 A  
HETATM   14  C   UNL     1      -7.427  10.977  66.697  1.00  0.00    -0.146 A  
HETATM   15  O   UNL     1      -6.433  11.372  65.844  1.00  0.00    -0.371 OA 
HETATM   16  C   UNL     1      -7.998   9.715  66.631  1.00  0.00    -0.109 A  
HETATM   17  H   UNL     1      -6.243  10.824  65.092  1.00  0.00     0.000 HD 
HETATM   18  C   UNL     1      -8.782   9.221  67.658  1.00  0.00    -0.116 A  
HETATM   19  C   UNL     1      -8.948   7.697  67.533  1.00  0.00    -0.128 C  
HETATM   20  C   UNL     1     -10.488   6.879  67.507  1.00  0.00    -0.314 C  
HETATM   21  C   UNL     1      -7.762   7.556  66.533  1.00  0.00    -0.097 C  
HETATM   22  O   UNL     1      -7.706   8.740  65.696  1.00  0.00    -0.088 OA 
HETATM   23  C   UNL     1     -11.104   6.241  69.069  1.00  0.00    -0.378 C  
HETATM   24  N   UNL     1     -10.688   6.996  70.295  1.00  0.00    -0.233 NA 
ENDROOT
BRANCH  24  25
HETATM   25  C   UNL     1     -10.093   6.444  71.510  1.00  0.00    -0.192 C  
BRANCH  25  26
HETATM   26  C   UNL     1     -10.531   5.041  71.918  1.00  0.00    -0.255 C  
HETATM   27  C   UNL     1      -9.316   4.048  72.039  1.00  0.00    -0.187 C  
HETATM   28  C   UNL     1     -10.172   3.258  73.044  1.00  0.00    -0.234 C  
HETATM   29  C   UNL     1     -10.832   4.617  73.398  1.00  0.00    -0.349 C  
ENDBRANCH  25  26
ENDBRANCH  24  25
TORSDOF 2
ENDMDL
MODEL      109
REMARK 921   NORMALIZED FREE ENERGY PREDICTED BY IDOCK:   -3.87 KCAL/MOL
REMARK 922        TOTAL FREE ENERGY PREDICTED BY IDOCK:   -4.87 KCAL/MOL
REMARK 923 INTER-LIGAND FREE ENERGY PREDICTED BY IDOCK:   -4.51 KCAL/MOL
REMARK 924 INTRA-LIGAND FREE ENERGY PREDICTED BY IDOCK:   -0.35 KCAL/MOL
REMARK 927      BINDING AFFINITY PREDICTED BY RF-SCORE:    0.00 PKD
ROOT
HETATM    1  O   UNL     1      -9.733   2.415  66.118  1.00  0.00    -0.349 OA 
HETATM    2  C   UNL     1      -8.971   3.622  66.335  1.00  0.00    -0.145 C  
HETATM    3  H   UNL     1      -9.219   1.680  66.431  1.00  0.00     0.000 HD 
HETATM    4  C   UNL     1      -9.802   4.807  65.830  1.00  0.00    -0.225 C  
HETATM    5  C   UNL     1     -10.545   5.691  66.972  1.00  0.00    -0.358 C  
HETATM    6  C   UNL     1      -9.887   5.856  68.476  1.00  0.00    -0.135 C  
HETATM    7  O   UNL     1     -10.748   5.105  69.327  1.00  0.00    -0.141 OA 
HETATM    8  C   UNL     1      -9.286   7.145  69.350  1.00  0.00    -0.147 C  
HETATM    9  C   UNL     1      -8.942   6.894  70.820  1.00  0.00    -0.150 C  
HETATM   10  H   UNL     1     -10.369   5.200  70.193  1.00  0.00     0.000 HD 
HETATM   11  C   UNL     1      -8.124   5.616  70.810  1.00  0.00    -0.117 A  
HETATM   12  C   UNL     1      -7.739   5.015  72.000  1.00  0.00    -0.104 A  
HETATM   13  C   UNL     1      -7.287   3.681  71.998  1.00  0.00    -0.055 A  
HETATM   14  C   UNL     1      -7.191   2.967  70.783  1.00  0.00    -0.033 A  
HETATM   15  O   UNL     1      -7.056   1.607  70.844  1.00  0.00    -0.032 OA 
HETATM   16  C   UNL     1      -7.464   3.631  69.596  1.00  0.00    -0.051 A  
HETATM   17  H   UNL     1      -6.993   1.126  70.027  1.00  0.00     0.000 HD 
HETATM   18  C   UNL     1      -7.882   4.948  69.583  1.00  0.00    -0.067 A  
HETATM   19  C   UNL     1      -8.496   5.312  68.220  1.00  0.00    -0.096 C  
HETATM   20  C   UNL     1      -7.986   6.667  67.247  1.00  0.00    -0.117 C  
HETATM   21  C   UNL     1      -8.663   3.824  67.793  1.00  0.00    -0.105 C  
HETATM   22  O   UNL     1      -7.570   3.047  68.347  1.00  0.00    -0.052 OA 
HETATM   23  C   UNL     1      -8.907   8.198  67.427  1.00  0.00    -0.127 C  
HETATM   24  N   UNL     1      -9.516   8.443  68.774  1.00  0.00    -0.147 NA 
ENDROOT
BRANCH  24  25
HETATM   25  C   UNL     1     -10.901   8.806  69.062  1.00  0.00    -0.027 C  
BRANCH  25  26
HETATM   26  C   UNL     1     -11.128   9.864  70.138  1.00  0.00    -0.353 C  
HETATM   27  C   UNL     1     -12.129  10.985  69.670  1.00  0.00    -0.411 C  
HETATM   28  C   UNL     1     -12.460  11.192  71.159  1.00  0.00    -0.498 C  
HETATM   29  C   UNL     1     -12.122   9.688  71.339  1.00  0.00    -0.472 C  
ENDBRANCH  25  26
ENDBRANCH  24  25
TORSDOF 2
ENDMDL
MODEL      110
REMARK 921   NORMALIZED FREE ENERGY PREDICTED BY IDOCK:   -3.79 KCAL/MOL
REMARK 922        TOTAL FREE ENERGY PREDICTED BY IDOCK:   -4.77 KCAL/MOL
REMARK 923 INTER-LIGAND FREE ENERGY PREDICTED BY IDOCK:   -4.34 KCAL/MOL
REMARK 924 INTRA-LIGAND FREE ENERGY PREDICTED BY IDOCK:   -0.43 KCAL/MOL
REMARK 927      BINDING AFFINITY PREDICTED BY RF-SCORE:    0.00 PKD
ROOT
HETATM    1  O   UNL     1      -9.312  12.262  63.499  1.00  0.00    -0.642 OA 
HETATM    2  C   UNL     1      -9.931  11.859  64.739  1.00  0.00    -0.235 C  
HETATM    3  H   UNL     1      -9.123  13.192  63.552  1.00  0.00     0.000 HD 
HETATM    4  C   UNL     1     -10.237  10.359  64.652  1.00  0.00    -0.305 C  
HETATM    5  C   UNL     1      -9.214   9.379  65.446  1.00  0.00    -0.305 C  
HETATM    6  C   UNL     1      -8.452   9.884  66.818  1.00  0.00    -0.125 C  
HETATM    7  O   UNL     1      -7.087  10.031  66.436  1.00  0.00    -0.095 OA 
HETATM    8  C   UNL     1      -8.495   9.409  68.418  1.00  0.00    -0.120 C  
HETATM    9  C   UNL     1      -7.460  10.027  69.360  1.00  0.00    -0.113 C  
HETATM   10  H   UNL     1      -6.648  10.322  67.226  1.00  0.00     0.000 HD 
HETATM   11  C   UNL     1      -7.519  11.515  69.074  1.00  0.00    -0.073 A  
HETATM   12  C   UNL     1      -6.616  12.386  69.667  1.00  0.00    -0.006 A  
HETATM   13  C   UNL     1      -6.454  13.687  69.152  1.00  0.00    -0.107 A  
HETATM   14  C   UNL     1      -7.232  14.118  68.055  1.00  0.00    -0.143 A  
HETATM   15  O   UNL     1      -6.840  15.246  67.389  1.00  0.00    -0.185 OA 
HETATM   16  C   UNL     1      -8.214  13.271  67.560  1.00  0.00    -0.184 A  
HETATM   17  H   UNL     1      -7.363  15.536  66.651  1.00  0.00     0.000 HD 
HETATM   18  C   UNL     1      -8.402  12.002  68.076  1.00  0.00    -0.162 A  
HETATM   19  C   UNL     1      -9.242  11.142  67.115  1.00  0.00    -0.165 C  
HETATM   20  C   UNL     1     -10.696  10.297  67.576  1.00  0.00    -0.348 C  
HETATM   21  C   UNL     1      -9.025  12.108  65.913  1.00  0.00     0.087 C  
HETATM   22  O   UNL     1      -8.950  13.470  66.407  1.00  0.00    -0.122 OA 
HETATM   23  C   UNL     1     -10.526   8.574  68.055  1.00  0.00    -0.191 C  
HETATM   24  N   UNL     1      -9.219   8.194  68.683  1.00  0.00    -0.143 NA 
ENDROOT
BRANCH  24  25
HETATM   25  C   UNL     1      -8.351   7.081  68.306  1.00  0.00    -0.123 C  
BRANCH  25  26
HETATM   26  C   UNL     1      -8.901   6.093  67.283  1.00  0.00    -0.107 C  
HETATM   27  C   UNL     1      -7.816   5.051  66.817  1.00  0.00    -0.100 C  
HETATM   28  C   UNL     1      -8.985   4.096  66.517  1.00  0.00    -0.125 C  
HETATM   29  C   UNL     1      -9.741   4.823  67.661  1.00  0.00    -0.202 C  
ENDBRANCH  25  26
ENDBRANCH  24  25
TORSDOF 2
ENDMDL
MODEL      111
REMARK 921   NORMALIZED FREE ENERGY PREDICTED BY IDOCK:   -3.76 KCAL/MOL
REMARK 922        TOTAL FREE ENERGY PREDICTED BY IDOCK:   -4.74 KCAL/MOL
REMARK 923 INTER-LIGAND FREE ENERGY PREDICTED BY IDOCK:   -4.79 KCAL/MOL
REMARK 924 INTRA-LIGAND FREE ENERGY PREDICTED BY IDOCK:    0.05 KCAL/MOL
REMARK 927      BINDING AFFINITY PREDICTED BY RF-SCORE:    0.00 PKD
ROOT
HETATM    1  O   UNL     1     -11.386  12.015  69.992  1.00  0.00    -0.496 OA 
HETATM    2  C   UNL     1     -11.760  13.392  69.773  1.00  0.00    -0.286 C  
HETATM    3  H   UNL     1     -11.971  11.466  69.482  1.00  0.00     0.000 HD 
HETATM    4  C   UNL     1     -10.818  14.277  70.597  1.00  0.00     0.623 C  
HETATM    5  C   UNL     1      -9.629  15.011  69.770  1.00  0.00     0.022 C  
HETATM    6  C   UNL     1      -9.841  15.449  68.193  1.00  0.00    -0.213 C  
HETATM    7  O   UNL     1      -9.005  14.559  67.460  1.00  0.00    -0.174 OA 
HETATM    8  C   UNL     1      -9.882  16.909  67.385  1.00  0.00    -0.261 C  
HETATM    9  C   UNL     1      -9.908  16.862  65.856  1.00  0.00    -0.241 C  
HETATM   10  H   UNL     1      -9.127  14.811  66.552  1.00  0.00     0.000 HD 
HETATM   11  C   UNL     1     -10.985  15.848  65.520  1.00  0.00    -0.248 A  
HETATM   12  C   UNL     1     -11.202  15.454  64.207  1.00  0.00    -0.070 A  
HETATM   13  C   UNL     1     -11.947  14.291  63.937  1.00  0.00    -0.219 A  
HETATM   14  C   UNL     1     -12.505  13.544  64.998  1.00  0.00    -0.417 A  
HETATM   15  O   UNL     1     -12.944  12.276  64.733  1.00  0.00    -0.713 OA 
HETATM   16  C   UNL     1     -12.379  14.027  66.293  1.00  0.00    -0.448 A  
HETATM   17  H   UNL     1     -13.318  11.773  65.447  1.00  0.00     0.000 HD 
HETATM   18  C   UNL     1     -11.672  15.183  66.568  1.00  0.00    -0.030 A  
HETATM   19  C   UNL     1     -11.341  15.276  68.067  1.00  0.00    -0.345 C  
HETATM   20  C   UNL     1     -11.732  16.645  69.074  1.00  0.00     0.273 C  
HETATM   21  C   UNL     1     -11.646  13.770  68.323  1.00  0.00    -0.338 C  
HETATM   22  O   UNL     1     -12.724  13.350  67.448  1.00  0.00     0.194 OA 
HETATM   23  C   UNL     1     -10.455  17.888  69.300  1.00  0.00     0.117 C  
HETATM   24  N   UNL     1      -9.496  18.057  68.161  1.00  0.00    -0.279 NA 
ENDROOT
BRANCH  24  25
HETATM   25  C   UNL     1      -8.036  18.060  68.231  1.00  0.00    -0.291 C  
BRANCH  25  26
HETATM   26  C   UNL     1      -7.284  17.709  66.952  1.00  0.00    -0.233 C  
HETATM   27  C   UNL     1      -7.118  18.950  65.997  1.00  0.00    -0.297 C  
HETATM   28  C   UNL     1      -5.862  18.252  65.448  1.00  0.00    -0.230 C  
HETATM   29  C   UNL     1      -5.720  17.617  66.857  1.00  0.00    -0.184 C  
ENDBRANCH  25  26
ENDBRANCH  24  25
TORSDOF 2
ENDMDL
MODEL      112
REMARK 921   NORMALIZED FREE ENERGY PREDICTED BY IDOCK:   -3.75 KCAL/MOL
REMARK 922        TOTAL FREE ENERGY PREDICTED BY IDOCK:   -4.73 KCAL/MOL
REMARK 923 INTER-LIGAND FREE ENERGY PREDICTED BY IDOCK:   -4.35 KCAL/MOL
REMARK 924 INTRA-LIGAND FREE ENERGY PREDICTED BY IDOCK:   -0.38 KCAL/MOL
REMARK 927      BINDING AFFINITY PREDICTED BY RF-SCORE:    0.00 PKD
ROOT
HETATM    1  O   UNL     1      -8.371  10.985  64.052  1.00  0.00    -0.372 OA 
HETATM    2  C   UNL     1      -9.098  10.916  65.297  1.00  0.00    -0.197 C  
HETATM    3  H   UNL     1      -8.029  11.867  63.959  1.00  0.00     0.000 HD 
HETATM    4  C   UNL     1      -9.651   9.494  65.447  1.00  0.00    -0.342 C  
HETATM    5  C   UNL     1      -8.843   8.522  66.466  1.00  0.00    -0.165 C  
HETATM    6  C   UNL     1      -8.062   9.138  67.782  1.00  0.00    -0.105 C  
HETATM    7  O   UNL     1      -6.678   8.993  67.476  1.00  0.00    -0.067 OA 
HETATM    8  C   UNL     1      -8.250   8.971  69.432  1.00  0.00    -0.117 C  
HETATM    9  C   UNL     1      -7.164   9.575  70.325  1.00  0.00    -0.118 C  
HETATM   10  H   UNL     1      -6.228   9.347  68.233  1.00  0.00     0.000 HD 
HETATM   11  C   UNL     1      -6.957  10.977  69.784  1.00  0.00    -0.092 A  
HETATM   12  C   UNL     1      -5.944  11.785  70.282  1.00  0.00    -0.155 A  
HETATM   13  C   UNL     1      -5.542  12.928  69.564  1.00  0.00    -0.089 A  
HETATM   14  C   UNL     1      -6.191  13.273  68.359  1.00  0.00    -0.086 A  
HETATM   15  O   UNL     1      -5.586  14.185  67.539  1.00  0.00    -0.343 OA 
HETATM   16  C   UNL     1      -7.282  12.520  67.948  1.00  0.00    -0.115 A  
HETATM   17  H   UNL     1      -6.022  14.417  66.727  1.00  0.00     0.000 HD 
HETATM   18  C   UNL     1      -7.704  11.411  68.659  1.00  0.00    -0.137 A  
HETATM   19  C   UNL     1      -8.638  10.538  67.803  1.00  0.00    -0.118 C  
HETATM   20  C   UNL     1     -10.232  10.034  68.299  1.00  0.00    -0.200 C  
HETATM   21  C   UNL     1      -8.211  11.224  66.471  1.00  0.00    -0.165 C  
HETATM   22  O   UNL     1      -7.926  12.623  66.730  1.00  0.00    -0.039 OA 
HETATM   23  C   UNL     1     -10.377   8.421  69.076  1.00  0.00    -0.218 C  
HETATM   24  N   UNL     1      -9.180   7.956  69.849  1.00  0.00    -0.153 NA 
ENDROOT
BRANCH  24  25
HETATM   25  C   UNL     1      -8.499   6.669  69.729  1.00  0.00    -0.132 C  
BRANCH  25  26
HETATM   26  C   UNL     1      -8.766   5.642  70.825  1.00  0.00    -0.135 C  
HETATM   27  C   UNL     1      -9.536   6.264  72.050  1.00  0.00    -0.158 C  
HETATM   28  C   UNL     1     -10.075   4.848  72.321  1.00  0.00    -0.247 C  
HETATM   29  C   UNL     1      -9.955   4.619  70.790  1.00  0.00    -0.284 C  
ENDBRANCH  25  26
ENDBRANCH  24  25
TORSDOF 2
ENDMDL
MODEL      113
REMARK 921   NORMALIZED FREE ENERGY PREDICTED BY IDOCK:   -3.75 KCAL/MOL
REMARK 922        TOTAL FREE ENERGY PREDICTED BY IDOCK:   -4.73 KCAL/MOL
REMARK 923 INTER-LIGAND FREE ENERGY PREDICTED BY IDOCK:   -4.31 KCAL/MOL
REMARK 924 INTRA-LIGAND FREE ENERGY PREDICTED BY IDOCK:   -0.42 KCAL/MOL
REMARK 927      BINDING AFFINITY PREDICTED BY RF-SCORE:    0.00 PKD
ROOT
HETATM    1  O   UNL     1     -12.423   7.007  70.021  1.00  0.00    -0.471 OA 
HETATM    2  C   UNL     1     -11.072   7.322  69.624  1.00  0.00    -0.141 C  
HETATM    3  H   UNL     1     -12.966   6.998  69.241  1.00  0.00     0.000 HD 
HETATM    4  C   UNL     1     -10.198   7.337  70.883  1.00  0.00    -0.203 C  
HETATM    5  C   UNL     1      -9.269   6.026  71.118  1.00  0.00    -0.160 C  
HETATM    6  C   UNL     1      -8.683   5.164  69.839  1.00  0.00    -0.103 C  
HETATM    7  O   UNL     1      -9.405   3.937  69.874  1.00  0.00    -0.139 OA 
HETATM    8  C   UNL     1      -7.154   4.852  69.247  1.00  0.00    -0.055 C  
HETATM    9  C   UNL     1      -7.035   3.819  68.124  1.00  0.00    -0.051 C  
HETATM   10  H   UNL     1      -9.067   3.441  69.138  1.00  0.00     0.000 HD 
HETATM   11  C   UNL     1      -8.103   4.217  67.122  1.00  0.00    -0.100 A  
HETATM   12  C   UNL     1      -8.369   3.419  66.018  1.00  0.00    -0.103 A  
HETATM   13  C   UNL     1      -9.561   3.602  65.291  1.00  0.00    -0.160 A  
HETATM   14  C   UNL     1     -10.468   4.619  65.661  1.00  0.00    -0.227 A  
HETATM   15  O   UNL     1     -11.735   4.570  65.148  1.00  0.00    -1.036 OA 
HETATM   16  C   UNL     1     -10.120   5.481  66.691  1.00  0.00    -0.209 A  
HETATM   17  H   UNL     1     -12.346   5.253  65.398  1.00  0.00     0.000 HD 
HETATM   18  C   UNL     1      -8.940   5.329  67.395  1.00  0.00    -0.108 A  
HETATM   19  C   UNL     1      -8.982   6.128  68.709  1.00  0.00    -0.123 C  
HETATM   20  C   UNL     1      -7.773   7.292  69.185  1.00  0.00    -0.108 C  
HETATM   21  C   UNL     1     -10.528   6.305  68.660  1.00  0.00    -0.231 C  
HETATM   22  O   UNL     1     -10.949   6.420  67.277  1.00  0.00    -0.342 OA 
HETATM   23  C   UNL     1      -6.449   6.710  70.249  1.00  0.00    -0.044 C  
HETATM   24  N   UNL     1      -6.066   5.269  70.092  1.00  0.00    -0.018 NA 
ENDROOT
BRANCH  24  25
HETATM   25  C   UNL     1      -5.934   4.272  71.151  1.00  0.00    -0.014 C  
BRANCH  25  26
HETATM   26  C   UNL     1      -6.487   4.644  72.523  1.00  0.00    -0.041 C  
HETATM   27  C   UNL     1      -7.195   3.429  73.231  1.00  0.00    -0.054 C  
HETATM   28  C   UNL     1      -6.850   4.115  74.565  1.00  0.00    -0.060 C  
HETATM   29  C   UNL     1      -5.617   4.703  73.827  1.00  0.00    -0.013 C  
ENDBRANCH  25  26
ENDBRANCH  24  25
TORSDOF 2
ENDMDL
MODEL      114
REMARK 921   NORMALIZED FREE ENERGY PREDICTED BY IDOCK:   -3.73 KCAL/MOL
REMARK 922        TOTAL FREE ENERGY PREDICTED BY IDOCK:   -4.71 KCAL/MOL
REMARK 923 INTER-LIGAND FREE ENERGY PREDICTED BY IDOCK:   -4.66 KCAL/MOL
REMARK 924 INTRA-LIGAND FREE ENERGY PREDICTED BY IDOCK:   -0.05 KCAL/MOL
REMARK 927      BINDING AFFINITY PREDICTED BY RF-SCORE:    0.00 PKD
ROOT
HETATM    1  O   UNL     1     -11.266   9.514  69.138  1.00  0.00    -0.430 OA 
HETATM    2  C   UNL     1      -9.977   8.918  69.393  1.00  0.00    -0.192 C  
HETATM    3  H   UNL     1     -11.425   9.486  68.201  1.00  0.00     0.000 HD 
HETATM    4  C   UNL     1      -9.722   8.963  70.904  1.00  0.00    -0.300 C  
HETATM    5  C   UNL     1      -9.945   7.568  71.703  1.00  0.00    -0.200 C  
HETATM    6  C   UNL     1      -9.674   6.118  70.967  1.00  0.00    -0.177 C  
HETATM    7  O   UNL     1     -10.971   5.552  70.803  1.00  0.00    -0.230 OA 
HETATM    8  C   UNL     1      -8.590   4.872  71.210  1.00  0.00    -0.123 C  
HETATM    9  C   UNL     1      -8.809   3.587  70.409  1.00  0.00    -0.143 C  
HETATM   10  H   UNL     1     -10.814   4.717  70.379  1.00  0.00     0.000 HD 
HETATM   11  C   UNL     1      -9.023   4.055  68.982  1.00  0.00    -0.169 A  
HETATM   12  C   UNL     1      -9.378   3.154  67.988  1.00  0.00    -0.248 A  
HETATM   13  C   UNL     1      -9.900   3.625  66.768  1.00  0.00     0.021 A  
HETATM   14  C   UNL     1     -10.029   5.013  66.541  1.00  0.00    -0.224 A  
HETATM   15  O   UNL     1     -10.815   5.426  65.500  1.00  0.00    -0.403 OA 
HETATM   16  C   UNL     1      -9.552   5.894  67.501  1.00  0.00    -0.112 A  
HETATM   17  H   UNL     1     -10.902   6.360  65.347  1.00  0.00     0.000 HD 
HETATM   18  C   UNL     1      -9.013   5.444  68.692  1.00  0.00    -0.115 A  
HETATM   19  C   UNL     1      -8.943   6.582  69.724  1.00  0.00    -0.142 C  
HETATM   20  C   UNL     1      -7.491   7.046  70.572  1.00  0.00    -0.088 C  
HETATM   21  C   UNL     1      -9.930   7.488  68.930  1.00  0.00    -0.168 C  
HETATM   22  O   UNL     1      -9.739   7.264  67.509  1.00  0.00    -0.136 OA 
HETATM   23  C   UNL     1      -7.226   6.328  72.197  1.00  0.00    -0.091 C  
HETATM   24  N   UNL     1      -7.804   4.962  72.412  1.00  0.00    -0.091 NA 
ENDROOT
BRANCH  24  25
HETATM   25  C   UNL     1      -8.654   4.529  73.519  1.00  0.00    -0.100 C  
BRANCH  25  26
HETATM   26  C   UNL     1      -9.573   3.339  73.258  1.00  0.00    -0.143 C  
HETATM   27  C   UNL     1      -9.662   2.372  74.497  1.00  0.00    -0.132 C  
HETATM   28  C   UNL     1     -11.052   1.968  73.973  1.00  0.00    -0.234 C  
HETATM   29  C   UNL     1     -11.135   3.401  73.383  1.00  0.00    -0.288 C  
ENDBRANCH  25  26
ENDBRANCH  24  25
TORSDOF 2
ENDMDL
MODEL      115
REMARK 921   NORMALIZED FREE ENERGY PREDICTED BY IDOCK:   -3.72 KCAL/MOL
REMARK 922        TOTAL FREE ENERGY PREDICTED BY IDOCK:   -4.70 KCAL/MOL
REMARK 923 INTER-LIGAND FREE ENERGY PREDICTED BY IDOCK:   -5.21 KCAL/MOL
REMARK 924 INTRA-LIGAND FREE ENERGY PREDICTED BY IDOCK:    0.51 KCAL/MOL
REMARK 927      BINDING AFFINITY PREDICTED BY RF-SCORE:    0.00 PKD
ROOT
HETATM    1  O   UNL     1     -11.583  13.292  66.586  1.00  0.00    -0.331 OA 
HETATM    2  C   UNL     1     -10.365  14.002  66.275  1.00  0.00    -0.293 C  
HETATM    3  H   UNL     1     -11.389  12.362  66.592  1.00  0.00     0.000 HD 
HETATM    4  C   UNL     1     -10.678  15.503  66.266  1.00  0.00    -0.307 C  
HETATM    5  C   UNL     1     -10.212  16.333  67.581  1.00  0.00    -0.272 C  
HETATM    6  C   UNL     1      -8.882  15.876  68.443  1.00  0.00    -0.184 C  
HETATM    7  O   UNL     1      -9.406  15.371  69.668  1.00  0.00    -0.320 OA 
HETATM    8  C   UNL     1      -7.401  16.578  68.761  1.00  0.00    -0.208 C  
HETATM    9  C   UNL     1      -6.507  15.888  69.793  1.00  0.00    -0.163 C  
HETATM   10  H   UNL     1      -8.641  15.108  70.165  1.00  0.00     0.000 HD 
HETATM   11  C   UNL     1      -6.513  14.425  69.390  1.00  0.00    -0.132 A  
HETATM   12  C   UNL     1      -5.896  13.470  70.186  1.00  0.00    -0.148 A  
HETATM   13  C   UNL     1      -6.187  12.105  69.997  1.00  0.00    -0.097 A  
HETATM   14  C   UNL     1      -7.078  11.705  68.977  1.00  0.00    -0.108 A  
HETATM   15  O   UNL     1      -7.577  10.432  69.020  1.00  0.00    -0.089 OA 
HETATM   16  C   UNL     1      -7.584  12.669  68.117  1.00  0.00    -0.132 A  
HETATM   17  H   UNL     1      -8.177  10.163  68.335  1.00  0.00     0.000 HD 
HETATM   18  C   UNL     1      -7.284  14.009  68.275  1.00  0.00    -0.114 A  
HETATM   19  C   UNL     1      -8.265  14.885  67.477  1.00  0.00    -0.199 C  
HETATM   20  C   UNL     1      -7.777  16.095  66.319  1.00  0.00     0.036 C  
HETATM   21  C   UNL     1      -9.293  13.730  67.294  1.00  0.00    -0.239 C  
HETATM   22  O   UNL     1      -8.578  12.474  67.176  1.00  0.00    -0.188 OA 
HETATM   23  C   UNL     1      -7.640  17.786  66.907  1.00  0.00    -0.210 C  
HETATM   24  N   UNL     1      -7.266  17.950  68.349  1.00  0.00    -0.246 NA 
ENDROOT
BRANCH  24  25
HETATM   25  C   UNL     1      -7.946  18.771  69.348  1.00  0.00     0.214 C  
BRANCH  25  26
HETATM   26  C   UNL     1      -8.915  19.828  68.829  1.00  0.00    -0.221 C  
HETATM   27  C   UNL     1      -8.377  20.548  67.537  1.00  0.00    -0.310 C  
HETATM   28  C   UNL     1      -9.849  20.812  67.174  1.00  0.00    -0.402 C  
HETATM   29  C   UNL     1     -10.168  19.502  67.944  1.00  0.00    -0.550 C  
ENDBRANCH  25  26
ENDBRANCH  24  25
TORSDOF 2
ENDMDL
MODEL      116
REMARK 921   NORMALIZED FREE ENERGY PREDICTED BY IDOCK:   -3.59 KCAL/MOL
REMARK 922        TOTAL FREE ENERGY PREDICTED BY IDOCK:   -4.55 KCAL/MOL
REMARK 923 INTER-LIGAND FREE ENERGY PREDICTED BY IDOCK:   -4.00 KCAL/MOL
REMARK 924 INTRA-LIGAND FREE ENERGY PREDICTED BY IDOCK:   -0.55 KCAL/MOL
REMARK 927      BINDING AFFINITY PREDICTED BY RF-SCORE:    0.00 PKD
ROOT
HETATM    1  O   UNL     1      -8.049   3.941  64.107  1.00  0.00    -0.088 OA 
HETATM    2  C   UNL     1      -9.008   4.804  64.753  1.00  0.00    -0.146 C  
HETATM    3  H   UNL     1      -7.666   4.417  63.379  1.00  0.00     0.000 HD 
HETATM    4  C   UNL     1      -9.626   4.036  65.927  1.00  0.00    -0.195 C  
HETATM    5  C   UNL     1      -9.066   4.422  67.401  1.00  0.00    -0.148 C  
HETATM    6  C   UNL     1      -8.538   5.949  67.733  1.00  0.00    -0.105 C  
HETATM    7  O   UNL     1      -7.127   5.817  67.874  1.00  0.00    -0.068 OA 
HETATM    8  C   UNL     1      -9.052   7.162  68.758  1.00  0.00    -0.134 C  
HETATM    9  C   UNL     1      -8.143   8.384  68.907  1.00  0.00    -0.114 C  
HETATM   10  H   UNL     1      -6.823   6.696  68.065  1.00  0.00     0.000 HD 
HETATM   11  C   UNL     1      -7.789   8.776  67.485  1.00  0.00    -0.102 A  
HETATM   12  C   UNL     1      -6.867   9.784  67.237  1.00  0.00    -0.083 A  
HETATM   13  C   UNL     1      -6.295   9.912  65.957  1.00  0.00    -0.082 A  
HETATM   14  C   UNL     1      -6.684   9.041  64.916  1.00  0.00    -0.069 A  
HETATM   15  O   UNL     1      -5.900   8.984  63.797  1.00  0.00    -0.071 OA 
HETATM   16  C   UNL     1      -7.696   8.123  65.157  1.00  0.00    -0.107 A  
HETATM   17  H   UNL     1      -6.160   8.398  63.096  1.00  0.00     0.000 HD 
HETATM   18  C   UNL     1      -8.285   8.006  66.402  1.00  0.00    -0.113 A  
HETATM   19  C   UNL     1      -9.061   6.683  66.515  1.00  0.00    -0.167 C  
HETATM   20  C   UNL     1     -10.737   6.568  66.984  1.00  0.00    -0.434 C  
HETATM   21  C   UNL     1      -8.360   6.057  65.273  1.00  0.00    -0.148 C  
HETATM   22  O   UNL     1      -8.085   7.104  64.308  1.00  0.00    -0.122 OA 
HETATM   23  C   UNL     1     -11.085   6.257  68.718  1.00  0.00    -0.346 C  
HETATM   24  N   UNL     1     -10.079   6.788  69.694  1.00  0.00    -0.179 NA 
ENDROOT
BRANCH  24  25
HETATM   25  C   UNL     1      -9.429   6.055  70.778  1.00  0.00    -0.168 C  
BRANCH  25  26
HETATM   26  C   UNL     1      -9.298   6.776  72.116  1.00  0.00    -0.145 C  
HETATM   27  C   UNL     1      -7.834   7.296  72.372  1.00  0.00    -0.102 C  
HETATM   28  C   UNL     1      -8.466   8.375  73.268  1.00  0.00    -0.192 C  
HETATM   29  C   UNL     1      -9.709   8.272  72.344  1.00  0.00    -0.373 C  
ENDBRANCH  25  26
ENDBRANCH  24  25
TORSDOF 2
ENDMDL
MODEL      117
REMARK 921   NORMALIZED FREE ENERGY PREDICTED BY IDOCK:   -3.57 KCAL/MOL
REMARK 922        TOTAL FREE ENERGY PREDICTED BY IDOCK:   -4.53 KCAL/MOL
REMARK 923 INTER-LIGAND FREE ENERGY PREDICTED BY IDOCK:   -4.16 KCAL/MOL
REMARK 924 INTRA-LIGAND FREE ENERGY PREDICTED BY IDOCK:   -0.37 KCAL/MOL
REMARK 927      BINDING AFFINITY PREDICTED BY RF-SCORE:    0.00 PKD
ROOT
HETATM    1  O   UNL     1      -9.847  10.058  66.169  1.00  0.00    -0.214 OA 
HETATM    2  C   UNL     1      -8.803   9.391  66.909  1.00  0.00    -0.127 C  
HETATM    3  H   UNL     1      -9.733   9.854  65.248  1.00  0.00     0.000 HD 
HETATM    4  C   UNL     1      -8.988   9.721  68.394  1.00  0.00    -0.123 C  
HETATM    5  C   UNL     1      -9.660   8.555  69.302  1.00  0.00    -0.170 C  
HETATM    6  C   UNL     1      -9.434   6.962  68.937  1.00  0.00    -0.136 C  
HETATM    7  O   UNL     1     -10.705   6.519  68.470  1.00  0.00    -0.220 OA 
HETATM    8  C   UNL     1      -8.689   5.683  69.709  1.00  0.00    -0.125 C  
HETATM    9  C   UNL     1      -8.880   4.292  69.103  1.00  0.00    -0.134 C  
HETATM   10  H   UNL     1     -10.575   5.602  68.260  1.00  0.00     0.000 HD 
HETATM   11  C   UNL     1      -8.595   4.475  67.624  1.00  0.00    -0.106 A  
HETATM   12  C   UNL     1      -8.795   3.431  66.731  1.00  0.00    -0.146 A  
HETATM   13  C   UNL     1      -8.859   3.693  65.349  1.00  0.00    -0.123 A  
HETATM   14  C   UNL     1      -8.685   5.009  64.867  1.00  0.00    -0.150 A  
HETATM   15  O   UNL     1      -9.059   5.280  63.580  1.00  0.00    -0.350 OA 
HETATM   16  C   UNL     1      -8.364   6.013  65.770  1.00  0.00    -0.142 A  
HETATM   17  H   UNL     1      -8.943   6.165  63.256  1.00  0.00     0.000 HD 
HETATM   18  C   UNL     1      -8.271   5.763  67.127  1.00  0.00    -0.102 A  
HETATM   19  C   UNL     1      -8.311   7.076  67.927  1.00  0.00    -0.118 C  
HETATM   20  C   UNL     1      -7.107   7.545  69.098  1.00  0.00    -0.078 C  
HETATM   21  C   UNL     1      -8.864   7.900  66.726  1.00  0.00    -0.138 C  
HETATM   22  O   UNL     1      -8.314   7.366  65.494  1.00  0.00    -0.134 OA 
HETATM   23  C   UNL     1      -7.442   7.155  70.819  1.00  0.00    -0.080 C  
HETATM   24  N   UNL     1      -8.277   5.935  71.065  1.00  0.00    -0.120 NA 
ENDROOT
BRANCH  24  25
HETATM   25  C   UNL     1      -9.468   5.836  71.905  1.00  0.00    -0.151 C  
BRANCH  25  26
HETATM   26  C   UNL     1      -9.508   4.691  72.912  1.00  0.00    -0.151 C  
HETATM   27  C   UNL     1     -10.538   4.954  74.074  1.00  0.00    -0.350 C  
HETATM   28  C   UNL     1     -10.642   3.425  74.213  1.00  0.00    -0.253 C  
HETATM   29  C   UNL     1     -10.320   3.366  72.695  1.00  0.00    -0.217 C  
ENDBRANCH  25  26
ENDBRANCH  24  25
TORSDOF 2
ENDMDL
MODEL      118
REMARK 921   NORMALIZED FREE ENERGY PREDICTED BY IDOCK:   -3.48 KCAL/MOL
REMARK 922        TOTAL FREE ENERGY PREDICTED BY IDOCK:   -4.43 KCAL/MOL
REMARK 923 INTER-LIGAND FREE ENERGY PREDICTED BY IDOCK:   -4.32 KCAL/MOL
REMARK 924 INTRA-LIGAND FREE ENERGY PREDICTED BY IDOCK:   -0.11 KCAL/MOL
REMARK 927      BINDING AFFINITY PREDICTED BY RF-SCORE:    0.00 PKD
ROOT
HETATM    1  O   UNL     1      -8.812   8.868  72.622  1.00  0.00    -0.358 OA 
HETATM    2  C   UNL     1      -8.079   8.481  71.441  1.00  0.00    -0.140 C  
HETATM    3  H   UNL     1      -8.802   9.816  72.679  1.00  0.00     0.000 HD 
HETATM    4  C   UNL     1      -8.095   6.951  71.350  1.00  0.00    -0.109 C  
HETATM    5  C   UNL     1      -9.137   6.314  70.280  1.00  0.00    -0.156 C  
HETATM    6  C   UNL     1      -9.533   7.125  68.899  1.00  0.00    -0.142 C  
HETATM    7  O   UNL     1     -10.886   7.523  69.094  1.00  0.00    -0.354 OA 
HETATM    8  C   UNL     1      -9.305   6.834  67.271  1.00  0.00    -0.134 C  
HETATM    9  C   UNL     1     -10.017   7.766  66.288  1.00  0.00    -0.047 C  
HETATM   10  H   UNL     1     -11.115   7.990  68.299  1.00  0.00     0.000 HD 
HETATM   11  C   UNL     1      -9.716   9.163  66.795  1.00  0.00    -0.271 A  
HETATM   12  C   UNL     1     -10.311  10.272  66.210  1.00  0.00    -0.256 A  
HETATM   13  C   UNL     1     -10.301  11.510  66.881  1.00  0.00    -0.258 A  
HETATM   14  C   UNL     1      -9.656  11.634  68.131  1.00  0.00    -0.190 A  
HETATM   15  O   UNL     1      -9.928  12.739  68.890  1.00  0.00    -0.415 OA 
HETATM   16  C   UNL     1      -8.963  10.543  68.636  1.00  0.00    -0.162 A  
HETATM   17  H   UNL     1      -9.495  12.822  69.732  1.00  0.00     0.000 HD 
HETATM   18  C   UNL     1      -8.942   9.329  67.973  1.00  0.00    -0.128 A  
HETATM   19  C   UNL     1      -8.470   8.204  68.909  1.00  0.00    -0.130 C  
HETATM   20  C   UNL     1      -7.154   7.118  68.549  1.00  0.00    -0.081 C  
HETATM   21  C   UNL     1      -8.699   9.053  70.196  1.00  0.00    -0.173 C  
HETATM   22  O   UNL     1      -8.415  10.445  69.901  1.00  0.00    -0.087 OA 
HETATM   23  C   UNL     1      -7.575   5.540  67.802  1.00  0.00    -0.088 C  
HETATM   24  N   UNL     1      -8.801   5.528  66.940  1.00  0.00    -0.112 NA 
ENDROOT
BRANCH  24  25
HETATM   25  C   UNL     1      -9.924   4.598  67.018  1.00  0.00    -0.195 C  
BRANCH  25  26
HETATM   26  C   UNL     1      -9.615   3.122  66.790  1.00  0.00    -0.006 C  
HETATM   27  C   UNL     1      -9.002   2.854  65.365  1.00  0.00    -0.144 C  
HETATM   28  C   UNL     1      -8.325   1.617  65.982  1.00  0.00    -0.091 C  
HETATM   29  C   UNL     1      -8.318   2.411  67.315  1.00  0.00    -0.091 C  
ENDBRANCH  25  26
ENDBRANCH  24  25
TORSDOF 2
ENDMDL
MODEL      119
REMARK 921   NORMALIZED FREE ENERGY PREDICTED BY IDOCK:   -3.45 KCAL/MOL
REMARK 922        TOTAL FREE ENERGY PREDICTED BY IDOCK:   -4.39 KCAL/MOL
REMARK 923 INTER-LIGAND FREE ENERGY PREDICTED BY IDOCK:   -3.87 KCAL/MOL
REMARK 924 INTRA-LIGAND FREE ENERGY PREDICTED BY IDOCK:   -0.52 KCAL/MOL
REMARK 927      BINDING AFFINITY PREDICTED BY RF-SCORE:    0.00 PKD
ROOT
HETATM    1  O   UNL     1      -7.299  11.265  65.866  1.00  0.00    -0.363 OA 
HETATM    2  C   UNL     1      -8.464  10.617  66.420  1.00  0.00    -0.152 C  
HETATM    3  H   UNL     1      -6.946  11.851  66.525  1.00  0.00     0.000 HD 
HETATM    4  C   UNL     1      -9.034   9.672  65.356  1.00  0.00    -0.231 C  
HETATM    5  C   UNL     1      -8.703   8.095  65.557  1.00  0.00    -0.152 C  
HETATM    6  C   UNL     1      -8.513   7.456  67.066  1.00  0.00    -0.118 C  
HETATM    7  O   UNL     1      -7.123   7.158  67.154  1.00  0.00    -0.081 OA 
HETATM    8  C   UNL     1      -9.347   6.323  67.965  1.00  0.00    -0.114 C  
HETATM    9  C   UNL     1      -8.707   5.863  69.277  1.00  0.00    -0.119 C  
HETATM   10  H   UNL     1      -7.013   6.790  68.023  1.00  0.00     0.000 HD 
HETATM   11  C   UNL     1      -8.299   7.146  69.976  1.00  0.00    -0.138 A  
HETATM   12  C   UNL     1      -7.568   7.107  71.156  1.00  0.00    -0.085 A  
HETATM   13  C   UNL     1      -6.909   8.265  71.612  1.00  0.00    -0.069 A  
HETATM   14  C   UNL     1      -7.021   9.475  70.891  1.00  0.00    -0.067 A  
HETATM   15  O   UNL     1      -6.136  10.478  71.175  1.00  0.00    -0.324 OA 
HETATM   16  C   UNL     1      -7.857   9.518  69.785  1.00  0.00    -0.128 A  
HETATM   17  H   UNL     1      -6.210  11.292  70.690  1.00  0.00     0.000 HD 
HETATM   18  C   UNL     1      -8.531   8.394  69.343  1.00  0.00    -0.125 A  
HETATM   19  C   UNL     1      -9.047   8.596  67.908  1.00  0.00    -0.145 C  
HETATM   20  C   UNL     1     -10.707   8.372  67.424  1.00  0.00    -0.225 C  
HETATM   21  C   UNL     1      -8.121   9.822  67.649  1.00  0.00    -0.113 C  
HETATM   22  O   UNL     1      -7.960  10.563  68.886  1.00  0.00    -0.109 OA 
HETATM   23  C   UNL     1     -11.155   6.770  66.747  1.00  0.00    -0.067 C  
HETATM   24  N   UNL     1     -10.368   5.600  67.256  1.00  0.00    -0.215 NA 
ENDROOT
BRANCH  24  25
HETATM   25  C   UNL     1      -9.699   4.574  66.460  1.00  0.00    -0.207 C  
BRANCH  25  26
HETATM   26  C   UNL     1     -10.067   4.498  64.982  1.00  0.00    -0.105 C  
HETATM   27  C   UNL     1      -8.819   4.704  64.045  1.00  0.00    -0.138 C  
HETATM   28  C   UNL     1      -9.576   3.872  62.995  1.00  0.00    -0.140 C  
HETATM   29  C   UNL     1     -10.246   3.152  64.196  1.00  0.00    -0.142 C  
ENDBRANCH  25  26
ENDBRANCH  24  25
TORSDOF 2
ENDMDL
MODEL      120
REMARK 921   NORMALIZED FREE ENERGY PREDICTED BY IDOCK:   -3.41 KCAL/MOL
REMARK 922        TOTAL FREE ENERGY PREDICTED BY IDOCK:   -4.35 KCAL/MOL
REMARK 923 INTER-LIGAND FREE ENERGY PREDICTED BY IDOCK:   -4.46 KCAL/MOL
REMARK 924 INTRA-LIGAND FREE ENERGY PREDICTED BY IDOCK:    0.12 KCAL/MOL
REMARK 927      BINDING AFFINITY PREDICTED BY RF-SCORE:    0.00 PKD
ROOT
HETATM    1  O   UNL     1      -7.850  18.633  68.039  1.00  0.00    -0.258 OA 
HETATM    2  C   UNL     1      -8.805  17.744  68.657  1.00  0.00    -0.261 C  
HETATM    3  H   UNL     1      -6.996  18.458  68.418  1.00  0.00     0.000 HD 
HETATM    4  C   UNL     1     -10.183  18.027  68.047  1.00  0.00    -0.390 C  
HETATM    5  C   UNL     1     -10.697  16.964  66.932  1.00  0.00    -0.130 C  
HETATM    6  C   UNL     1     -10.249  15.378  67.005  1.00  0.00    -0.262 C  
HETATM    7  O   UNL     1      -9.358  15.208  65.906  1.00  0.00    -0.374 OA 
HETATM    8  C   UNL     1     -11.072  13.944  67.235  1.00  0.00    -0.299 C  
HETATM    9  C   UNL     1     -10.286  12.646  67.032  1.00  0.00    -0.241 C  
HETATM   10  H   UNL     1      -9.100  14.295  65.948  1.00  0.00     0.000 HD 
HETATM   11  C   UNL     1      -9.003  12.848  67.816  1.00  0.00    -0.191 A  
HETATM   12  C   UNL     1      -7.984  11.907  67.757  1.00  0.00    -0.144 A  
HETATM   13  C   UNL     1      -6.690  12.247  68.198  1.00  0.00    -0.069 A  
HETATM   14  C   UNL     1      -6.437  13.529  68.732  1.00  0.00    -0.098 A  
HETATM   15  O   UNL     1      -5.135  13.931  68.855  1.00  0.00    -0.071 OA 
HETATM   16  C   UNL     1      -7.499  14.406  68.894  1.00  0.00    -0.132 A  
HETATM   17  H   UNL     1      -4.964  14.794  69.214  1.00  0.00     0.000 HD 
HETATM   18  C   UNL     1      -8.780  14.075  68.491  1.00  0.00    -0.156 A  
HETATM   19  C   UNL     1      -9.665  15.329  68.402  1.00  0.00    -0.213 C  
HETATM   20  C   UNL     1     -11.202  15.502  69.209  1.00  0.00    -0.312 C  
HETATM   21  C   UNL     1      -8.449  16.303  68.419  1.00  0.00    -0.195 C  
HETATM   22  O   UNL     1      -7.403  15.738  69.252  1.00  0.00    -0.189 OA 
HETATM   23  C   UNL     1     -12.674  15.095  68.265  1.00  0.00     1.134 C  
HETATM   24  N   UNL     1     -12.507  14.044  67.210  1.00  0.00    -0.145 NA 
ENDROOT
BRANCH  24  25
HETATM   25  C   UNL     1     -12.911  14.129  65.808  1.00  0.00    -0.329 C  
BRANCH  25  26
HETATM   26  C   UNL     1     -12.094  13.321  64.805  1.00  0.00    -0.456 C  
HETATM   27  C   UNL     1     -12.647  11.858  64.626  1.00  0.00     0.070 C  
HETATM   28  C   UNL     1     -12.029  11.888  63.217  1.00  0.00    -0.441 C  
HETATM   29  C   UNL     1     -12.278  13.420  63.250  1.00  0.00    -0.314 C  
ENDBRANCH  25  26
ENDBRANCH  24  25
TORSDOF 2
ENDMDL
MODEL      121
REMARK 921   NORMALIZED FREE ENERGY PREDICTED BY IDOCK:   -3.39 KCAL/MOL
REMARK 922        TOTAL FREE ENERGY PREDICTED BY IDOCK:   -4.33 KCAL/MOL
REMARK 923 INTER-LIGAND FREE ENERGY PREDICTED BY IDOCK:   -3.89 KCAL/MOL
REMARK 924 INTRA-LIGAND FREE ENERGY PREDICTED BY IDOCK:   -0.43 KCAL/MOL
REMARK 927      BINDING AFFINITY PREDICTED BY RF-SCORE:    0.00 PKD
ROOT
HETATM    1  O   UNL     1      -7.241  10.810  64.541  1.00  0.00    -0.351 OA 
HETATM    2  C   UNL     1      -8.363  10.371  65.337  1.00  0.00    -0.165 C  
HETATM    3  H   UNL     1      -6.877  11.588  64.947  1.00  0.00     0.000 HD 
HETATM    4  C   UNL     1      -8.950   9.116  64.681  1.00  0.00    -0.159 C  
HETATM    5  C   UNL     1      -8.567   7.704  65.383  1.00  0.00    -0.074 C  
HETATM    6  C   UNL     1      -8.295   7.612  67.008  1.00  0.00    -0.124 C  
HETATM    7  O   UNL     1      -6.894   7.379  67.123  1.00  0.00    -0.069 OA 
HETATM    8  C   UNL     1      -9.057   6.838  68.275  1.00  0.00    -0.124 C  
HETATM    9  C   UNL     1      -8.350   6.855  69.632  1.00  0.00    -0.133 C  
HETATM   10  H   UNL     1      -6.738   7.326  68.058  1.00  0.00     0.000 HD 
HETATM   11  C   UNL     1      -7.949   8.303  69.839  1.00  0.00    -0.108 A  
HETATM   12  C   UNL     1      -7.168   8.672  70.926  1.00  0.00    -0.073 A  
HETATM   13  C   UNL     1      -6.525   9.925  70.934  1.00  0.00    -0.040 A  
HETATM   14  C   UNL     1      -6.701  10.819  69.855  1.00  0.00    -0.156 A  
HETATM   15  O   UNL     1      -5.833  11.871  69.742  1.00  0.00    -0.092 OA 
HETATM   16  C   UNL     1      -7.584  10.477  68.841  1.00  0.00    -0.108 A  
HETATM   17  H   UNL     1      -5.951  12.473  69.016  1.00  0.00     0.000 HD 
HETATM   18  C   UNL     1      -8.244   9.262  68.836  1.00  0.00    -0.111 A  
HETATM   19  C   UNL     1      -8.825   8.963  67.443  1.00  0.00    -0.136 C  
HETATM   20  C   UNL     1     -10.497   8.568  67.145  1.00  0.00    -0.370 C  
HETATM   21  C   UNL     1      -7.946  10.041  66.743  1.00  0.00    -0.114 C  
HETATM   22  O   UNL     1      -7.754  11.157  67.650  1.00  0.00    -0.107 OA 
HETATM   23  C   UNL     1     -10.927   6.826  67.068  1.00  0.00    -0.368 C  
HETATM   24  N   UNL     1     -10.087   5.906  67.901  1.00  0.00    -0.148 NA 
ENDROOT
BRANCH  24  25
HETATM   25  C   UNL     1      -9.423   4.680  67.464  1.00  0.00    -0.153 C  
BRANCH  25  26
HETATM   26  C   UNL     1      -9.603   3.447  68.343  1.00  0.00    -0.144 C  
HETATM   27  C   UNL     1      -8.285   2.592  68.449  1.00  0.00    -0.076 C  
HETATM   28  C   UNL     1      -8.812   2.103  69.810  1.00  0.00    -0.133 C  
HETATM   29  C   UNL     1      -9.531   3.475  69.910  1.00  0.00    -0.254 C  
ENDBRANCH  25  26
ENDBRANCH  24  25
TORSDOF 2
ENDMDL
MODEL      122
REMARK 921   NORMALIZED FREE ENERGY PREDICTED BY IDOCK:   -3.29 KCAL/MOL
REMARK 922        TOTAL FREE ENERGY PREDICTED BY IDOCK:   -4.21 KCAL/MOL
REMARK 923 INTER-LIGAND FREE ENERGY PREDICTED BY IDOCK:   -3.90 KCAL/MOL
REMARK 924 INTRA-LIGAND FREE ENERGY PREDICTED BY IDOCK:   -0.32 KCAL/MOL
REMARK 927      BINDING AFFINITY PREDICTED BY RF-SCORE:    0.00 PKD
ROOT
HETATM    1  O   UNL     1      -6.687   9.727  71.682  1.00  0.00    -0.301 OA 
HETATM    2  C   UNL     1      -6.356   9.695  70.278  1.00  0.00    -0.076 C  
HETATM    3  H   UNL     1      -6.932  10.617  71.908  1.00  0.00     0.000 HD 
HETATM    4  C   UNL     1      -5.961   8.259  69.914  1.00  0.00    -0.025 C  
HETATM    5  C   UNL     1      -7.089   7.389  69.135  1.00  0.00    -0.079 C  
HETATM    6  C   UNL     1      -8.177   8.117  68.131  1.00  0.00    -0.129 C  
HETATM    7  O   UNL     1      -9.419   8.022  68.821  1.00  0.00    -0.147 OA 
HETATM    8  C   UNL     1      -8.484   8.039  66.492  1.00  0.00    -0.136 C  
HETATM    9  C   UNL     1      -9.742   8.745  65.982  1.00  0.00    -0.276 C  
HETATM   10  H   UNL     1     -10.046   8.441  68.243  1.00  0.00     0.000 HD 
HETATM   11  C   UNL     1      -9.694  10.122  66.617  1.00  0.00    -0.242 A  
HETATM   12  C   UNL     1     -10.754  11.006  66.471  1.00  0.00    -0.298 A  
HETATM   13  C   UNL     1     -10.859  12.123  67.322  1.00  0.00    -0.286 A  
HETATM   14  C   UNL     1      -9.868  12.365  68.299  1.00  0.00    -0.224 A  
HETATM   15  O   UNL     1     -10.152  13.256  69.297  1.00  0.00    -0.399 OA 
HETATM   16  C   UNL     1      -8.756  11.537  68.341  1.00  0.00    -0.160 A  
HETATM   17  H   UNL     1      -9.486  13.419  69.955  1.00  0.00     0.000 HD 
HETATM   18  C   UNL     1      -8.628  10.453  67.493  1.00  0.00    -0.125 A  
HETATM   19  C   UNL     1      -7.544   9.488  68.001  1.00  0.00    -0.086 C  
HETATM   20  C   UNL     1      -6.196   8.936  67.041  1.00  0.00    -0.059 C  
HETATM   21  C   UNL     1      -7.523  10.114  69.427  1.00  0.00    -0.119 C  
HETATM   22  O   UNL     1      -7.782  11.538  69.322  1.00  0.00    -0.034 OA 
HETATM   23  C   UNL     1      -6.384   7.367  66.189  1.00  0.00    -0.042 C  
HETATM   24  N   UNL     1      -7.780   7.006  65.780  1.00  0.00    -0.098 NA 
ENDROOT
BRANCH  24  25
HETATM   25  C   UNL     1      -8.478   5.749  66.039  1.00  0.00    -0.135 C  
BRANCH  25  26
HETATM   26  C   UNL     1      -8.953   4.959  64.824  1.00  0.00    -0.125 C  
HETATM   27  C   UNL     1      -7.784   4.661  63.812  1.00  0.00    -0.073 C  
HETATM   28  C   UNL     1      -8.595   3.430  63.370  1.00  0.00    -0.090 C  
HETATM   29  C   UNL     1      -9.154   3.404  64.818  1.00  0.00    -0.136 C  
ENDBRANCH  25  26
ENDBRANCH  24  25
TORSDOF 2
ENDMDL
MODEL      123
REMARK 921   NORMALIZED FREE ENERGY PREDICTED BY IDOCK:   -3.03 KCAL/MOL
REMARK 922        TOTAL FREE ENERGY PREDICTED BY IDOCK:   -3.92 KCAL/MOL
REMARK 923 INTER-LIGAND FREE ENERGY PREDICTED BY IDOCK:   -3.46 KCAL/MOL
REMARK 924 INTRA-LIGAND FREE ENERGY PREDICTED BY IDOCK:   -0.46 KCAL/MOL
REMARK 927      BINDING AFFINITY PREDICTED BY RF-SCORE:    0.00 PKD
ROOT
HETATM    1  O   UNL     1     -13.645   9.198  72.349  1.00  0.00    -0.453 OA 
HETATM    2  C   UNL     1     -12.255   9.484  72.084  1.00  0.00    -0.212 C  
HETATM    3  H   UNL     1     -14.061  10.000  72.643  1.00  0.00     0.000 HD 
HETATM    4  C   UNL     1     -11.584   8.190  71.610  1.00  0.00    -0.325 C  
HETATM    5  C   UNL     1     -11.326   8.068  70.012  1.00  0.00    -0.014 C  
HETATM    6  C   UNL     1     -11.038   9.410  69.096  1.00  0.00    -0.013 C  
HETATM    7  O   UNL     1     -12.211   9.560  68.303  1.00  0.00     1.083 OA 
HETATM    8  C   UNL     1      -9.735   9.956  68.207  1.00  0.00    -0.144 C  
HETATM    9  C   UNL     1      -9.956  11.188  67.327  1.00  0.00    -0.211 C  
HETATM   10  H   UNL     1     -12.045  10.332  67.775  1.00  0.00     0.000 HD 
HETATM   11  C   UNL     1     -10.651  12.188  68.231  1.00  0.00    -0.236 A  
HETATM   12  C   UNL     1     -11.121  13.392  67.726  1.00  0.00    -0.292 A  
HETATM   13  C   UNL     1     -12.046  14.152  68.467  1.00  0.00    -0.312 A  
HETATM   14  C   UNL     1     -12.469  13.708  69.740  1.00  0.00    -0.137 A  
HETATM   15  O   UNL     1     -13.581  14.287  70.287  1.00  0.00    -0.208 OA 
HETATM   16  C   UNL     1     -11.891  12.566  70.275  1.00  0.00    -0.223 A  
HETATM   17  H   UNL     1     -13.866  13.989  71.143  1.00  0.00     0.000 HD 
HETATM   18  C   UNL     1     -10.961  11.826  69.568  1.00  0.00    -0.126 A  
HETATM   19  C   UNL     1     -10.788  10.430  70.189  1.00  0.00    -0.333 C  
HETATM   20  C   UNL     1      -9.254   9.756  70.671  1.00  0.00     0.001 C  
HETATM   21  C   UNL     1     -12.102  10.535  71.019  1.00  0.00    -0.387 C  
HETATM   22  O   UNL     1     -12.297  11.914  71.424  1.00  0.00    -0.200 OA 
HETATM   23  C   UNL     1      -8.411   8.704  69.484  1.00  0.00    -0.117 C  
HETATM   24  N   UNL     1      -8.661   9.013  68.040  1.00  0.00    -0.129 NA 
ENDROOT
BRANCH  24  25
HETATM   25  C   UNL     1      -9.067   8.077  66.995  1.00  0.00    -0.144 C  
BRANCH  25  26
HETATM   26  C   UNL     1      -8.439   8.265  65.618  1.00  0.00    -0.173 C  
HETATM   27  C   UNL     1      -9.357   9.103  64.652  1.00  0.00     0.094 C  
HETATM   28  C   UNL     1      -8.067   9.516  63.922  1.00  0.00    -0.152 C  
HETATM   29  C   UNL     1      -7.359   9.356  65.294  1.00  0.00    -0.096 C  
ENDBRANCH  25  26
ENDBRANCH  24  25
TORSDOF 2
ENDMDL
MODEL      124
REMARK 921   NORMALIZED FREE ENERGY PREDICTED BY IDOCK:   -3.02 KCAL/MOL
REMARK 922        TOTAL FREE ENERGY PREDICTED BY IDOCK:   -3.91 KCAL/MOL
REMARK 923 INTER-LIGAND FREE ENERGY PREDICTED BY IDOCK:   -3.60 KCAL/MOL
REMARK 924 INTRA-LIGAND FREE ENERGY PREDICTED BY IDOCK:   -0.32 KCAL/MOL
REMARK 927      BINDING AFFINITY PREDICTED BY RF-SCORE:    0.00 PKD
ROOT
HETATM    1  O   UNL     1     -11.492  18.950  67.399  1.00  0.00     0.177 OA 
HETATM    2  C   UNL     1     -10.329  18.605  68.180  1.00  0.00    -0.359 C  
HETATM    3  H   UNL     1     -11.363  19.824  67.047  1.00  0.00     0.000 HD 
HETATM    4  C   UNL     1     -10.538  17.196  68.747  1.00  0.00    -0.336 C  
HETATM    5  C   UNL     1      -9.743  16.000  67.990  1.00  0.00    -0.217 C  
HETATM    6  C   UNL     1      -8.289  16.279  67.263  1.00  0.00    -0.180 C  
HETATM    7  O   UNL     1      -8.564  16.187  65.868  1.00  0.00    -0.307 OA 
HETATM    8  C   UNL     1      -6.732  15.735  67.523  1.00  0.00    -0.190 C  
HETATM    9  C   UNL     1      -5.680  16.096  66.472  1.00  0.00     0.935 C  
HETATM   10  H   UNL     1      -7.727  16.347  65.449  1.00  0.00     0.000 HD 
HETATM   11  C   UNL     1      -5.869  17.583  66.234  1.00  0.00    -0.244 A  
HETATM   12  C   UNL     1      -5.156  18.235  65.238  1.00  0.00    -0.204 A  
HETATM   13  C   UNL     1      -5.569  19.507  64.798  1.00  0.00    -0.241 A  
HETATM   14  C   UNL     1      -6.686  20.135  65.392  1.00  0.00    -0.298 A  
HETATM   15  O   UNL     1      -7.245  21.203  64.746  1.00  0.00    -0.302 OA 
HETATM   16  C   UNL     1      -7.305  19.516  66.469  1.00  0.00    -0.240 A  
HETATM   17  H   UNL     1      -7.996  21.625  65.146  1.00  0.00     0.000 HD 
HETATM   18  C   UNL     1      -6.891  18.279  66.928  1.00  0.00    -0.212 A  
HETATM   19  C   UNL     1      -7.964  17.645  67.830  1.00  0.00    -0.231 C  
HETATM   20  C   UNL     1      -7.664  17.065  69.447  1.00  0.00     0.132 C  
HETATM   21  C   UNL     1      -9.080  18.616  67.342  1.00  0.00    -0.279 C  
HETATM   22  O   UNL     1      -8.490  19.911  67.059  1.00  0.00    -0.302 OA 
HETATM   23  C   UNL     1      -7.292  15.318  69.636  1.00  0.00    -0.188 C  
HETATM   24  N   UNL     1      -6.602  14.666  68.477  1.00  0.00    -0.089 NA 
ENDROOT
BRANCH  24  25
HETATM   25  C   UNL     1      -6.991  13.432  67.799  1.00  0.00    -0.156 C  
BRANCH  25  26
HETATM   26  C   UNL     1      -5.985  12.285  67.822  1.00  0.00    -0.098 C  
HETATM   27  C   UNL     1      -5.436  12.002  69.270  1.00  0.00    -0.065 C  
HETATM   28  C   UNL     1      -5.189  10.557  68.802  1.00  0.00    -0.041 C  
HETATM   29  C   UNL     1      -6.391  10.770  67.842  1.00  0.00    -0.061 C  
ENDBRANCH  25  26
ENDBRANCH  24  25
TORSDOF 2
ENDMDL
MODEL      125
REMARK 921   NORMALIZED FREE ENERGY PREDICTED BY IDOCK:   -2.94 KCAL/MOL
REMARK 922        TOTAL FREE ENERGY PREDICTED BY IDOCK:   -3.83 KCAL/MOL
REMARK 923 INTER-LIGAND FREE ENERGY PREDICTED BY IDOCK:   -3.48 KCAL/MOL
REMARK 924 INTRA-LIGAND FREE ENERGY PREDICTED BY IDOCK:   -0.34 KCAL/MOL
REMARK 927      BINDING AFFINITY PREDICTED BY RF-SCORE:    0.00 PKD
ROOT
HETATM    1  O   UNL     1      -5.329  17.632  68.983  1.00  0.00    -0.165 OA 
HETATM    2  C   UNL     1      -5.489  16.457  68.160  1.00  0.00    -0.108 C  
HETATM    3  H   UNL     1      -5.543  18.393  68.456  1.00  0.00     0.000 HD 
HETATM    4  C   UNL     1      -5.142  15.229  69.010  1.00  0.00    -0.095 C  
HETATM    5  C   UNL     1      -6.404  14.374  69.569  1.00  0.00    -0.128 C  
HETATM    6  C   UNL     1      -7.813  14.289  68.715  1.00  0.00    -0.128 C  
HETATM    7  O   UNL     1      -8.741  15.050  69.482  1.00  0.00    -0.390 OA 
HETATM    8  C   UNL     1      -8.648  13.054  67.964  1.00  0.00    -0.186 C  
HETATM    9  C   UNL     1     -10.050  13.374  67.440  1.00  0.00    -0.237 C  
HETATM   10  H   UNL     1      -9.553  15.002  68.991  1.00  0.00     0.000 HD 
HETATM   11  C   UNL     1      -9.885  14.673  66.673  1.00  0.00    -0.280 A  
HETATM   12  C   UNL     1     -10.991  15.334  66.156  1.00  0.00    -0.307 A  
HETATM   13  C   UNL     1     -10.880  16.678  65.752  1.00  0.00    -0.107 A  
HETATM   14  C   UNL     1      -9.637  17.344  65.838  1.00  0.00    -0.025 A  
HETATM   15  O   UNL     1      -9.628  18.708  65.741  1.00  0.00    -0.440 OA 
HETATM   16  C   UNL     1      -8.521  16.624  66.242  1.00  0.00    -0.320 A  
HETATM   17  H   UNL     1      -8.793  19.156  65.800  1.00  0.00     0.000 HD 
HETATM   18  C   UNL     1      -8.612  15.296  66.615  1.00  0.00    -0.305 A  
HETATM   19  C   UNL     1      -7.357  14.859  67.388  1.00  0.00    -0.222 C  
HETATM   20  C   UNL     1      -6.377  13.480  66.965  1.00  0.00     0.861 C  
HETATM   21  C   UNL     1      -6.900  16.324  67.658  1.00  0.00    -0.141 C  
HETATM   22  O   UNL     1      -7.276  17.152  66.528  1.00  0.00    -0.217 OA 
HETATM   23  C   UNL     1      -6.733  11.933  67.804  1.00  0.00    -0.087 C  
HETATM   24  N   UNL     1      -8.156  11.727  68.224  1.00  0.00    -0.147 NA 
ENDROOT
BRANCH  24  25
HETATM   25  C   UNL     1      -8.638  11.338  69.548  1.00  0.00     0.600 C  
BRANCH  25  26
HETATM   26  C   UNL     1      -9.860  10.427  69.597  1.00  0.00    -0.179 C  
HETATM   27  C   UNL     1      -9.614   9.059  68.859  1.00  0.00    -0.156 C  
HETATM   28  C   UNL     1     -10.679   8.460  69.793  1.00  0.00    -0.211 C  
HETATM   29  C   UNL     1     -10.226   9.525  70.827  1.00  0.00    -0.363 C  
ENDBRANCH  25  26
ENDBRANCH  24  25
TORSDOF 2
ENDMDL
MODEL      126
REMARK 921   NORMALIZED FREE ENERGY PREDICTED BY IDOCK:   -2.93 KCAL/MOL
REMARK 922        TOTAL FREE ENERGY PREDICTED BY IDOCK:   -3.82 KCAL/MOL
REMARK 923 INTER-LIGAND FREE ENERGY PREDICTED BY IDOCK:   -3.36 KCAL/MOL
REMARK 924 INTRA-LIGAND FREE ENERGY PREDICTED BY IDOCK:   -0.46 KCAL/MOL
REMARK 927      BINDING AFFINITY PREDICTED BY RF-SCORE:    0.00 PKD
ROOT
HETATM    1  O   UNL     1      -8.719   9.981  70.768  1.00  0.00    -0.316 OA 
HETATM    2  C   UNL     1      -9.278   9.331  69.607  1.00  0.00    -0.175 C  
HETATM    3  H   UNL     1      -9.234   9.726  71.525  1.00  0.00     0.000 HD 
HETATM    4  C   UNL     1      -8.447   9.743  68.386  1.00  0.00    -0.114 C  
HETATM    5  C   UNL     1      -7.383   8.641  67.847  1.00  0.00    -0.092 C  
HETATM    6  C   UNL     1      -7.681   7.027  68.009  1.00  0.00    -0.113 C  
HETATM    7  O   UNL     1      -6.748   6.588  68.991  1.00  0.00    -0.049 OA 
HETATM    8  C   UNL     1      -7.933   5.775  66.934  1.00  0.00    -0.102 C  
HETATM    9  C   UNL     1      -7.980   4.357  67.509  1.00  0.00    -0.096 C  
HETATM   10  H   UNL     1      -6.919   5.658  69.084  1.00  0.00     0.000 HD 
HETATM   11  C   UNL     1      -8.919   4.456  68.697  1.00  0.00    -0.153 A  
HETATM   12  C   UNL     1      -9.105   3.371  69.543  1.00  0.00    -0.202 A  
HETATM   13  C   UNL     1      -9.693   3.561  70.808  1.00  0.00    -0.207 A  
HETATM   14  C   UNL     1     -10.126   4.846  71.203  1.00  0.00    -0.207 A  
HETATM   15  O   UNL     1     -10.396   5.056  72.527  1.00  0.00    -0.189 OA 
HETATM   16  C   UNL     1     -10.041   5.889  70.291  1.00  0.00    -0.202 A  
HETATM   17  H   UNL     1     -10.687   5.921  72.794  1.00  0.00     0.000 HD 
HETATM   18  C   UNL     1      -9.491   5.709  69.036  1.00  0.00    -0.159 A  
HETATM   19  C   UNL     1      -9.146   7.063  68.392  1.00  0.00    -0.127 C  
HETATM   20  C   UNL     1      -9.698   7.567  66.817  1.00  0.00    -0.283 C  
HETATM   21  C   UNL     1      -9.242   7.834  69.742  1.00  0.00    -0.150 C  
HETATM   22  O   UNL     1     -10.271   7.224  70.563  1.00  0.00    -0.195 OA 
HETATM   23  C   UNL     1      -8.595   7.275  65.430  1.00  0.00    -0.031 C  
HETATM   24  N   UNL     1      -7.688   6.088  65.551  1.00  0.00    -0.088 NA 
ENDROOT
BRANCH  24  25
HETATM   25  C   UNL     1      -6.242   6.060  65.350  1.00  0.00    -0.037 C  
BRANCH  25  26
HETATM   26  C   UNL     1      -5.724   5.223  64.185  1.00  0.00    -0.017 C  
HETATM   27  C   UNL     1      -5.422   3.736  64.606  1.00  0.00    -0.010 C  
HETATM   28  C   UNL     1      -5.681   3.357  63.137  1.00  0.00    -0.013 C  
HETATM   29  C   UNL     1      -6.650   4.569  63.101  1.00  0.00    -0.030 C  
ENDBRANCH  25  26
ENDBRANCH  24  25
TORSDOF 2
ENDMDL
MODEL      127
REMARK 921   NORMALIZED FREE ENERGY PREDICTED BY IDOCK:   -2.91 KCAL/MOL
REMARK 922        TOTAL FREE ENERGY PREDICTED BY IDOCK:   -3.80 KCAL/MOL
REMARK 923 INTER-LIGAND FREE ENERGY PREDICTED BY IDOCK:   -3.67 KCAL/MOL
REMARK 924 INTRA-LIGAND FREE ENERGY PREDICTED BY IDOCK:   -0.12 KCAL/MOL
REMARK 927      BINDING AFFINITY PREDICTED BY RF-SCORE:    0.00 PKD
ROOT
HETATM    1  O   UNL     1     -11.496   6.845  72.185  1.00  0.00    -0.261 OA 
HETATM    2  C   UNL     1     -11.453   7.303  70.817  1.00  0.00    -0.299 C  
HETATM    3  H   UNL     1     -11.228   5.934  72.200  1.00  0.00     0.000 HD 
HETATM    4  C   UNL     1     -11.886   8.774  70.794  1.00  0.00    -0.209 C  
HETATM    5  C   UNL     1     -10.692   9.863  70.650  1.00  0.00    -0.372 C  
HETATM    6  C   UNL     1      -9.312   9.502  69.822  1.00  0.00    -0.211 C  
HETATM    7  O   UNL     1      -8.307   9.403  70.827  1.00  0.00    -0.194 OA 
HETATM    8  C   UNL     1      -8.600  10.090  68.431  1.00  0.00    -0.113 C  
HETATM    9  C   UNL     1      -7.187   9.600  68.107  1.00  0.00    -0.080 C  
HETATM   10  H   UNL     1      -7.513   9.195  70.350  1.00  0.00     0.000 HD 
HETATM   11  C   UNL     1      -7.255   8.093  68.273  1.00  0.00    -0.093 A  
HETATM   12  C   UNL     1      -6.107   7.319  68.177  1.00  0.00    -0.031 A  
HETATM   13  C   UNL     1      -6.112   5.995  68.658  1.00  0.00    -0.024 A  
HETATM   14  C   UNL     1      -7.291   5.444  69.205  1.00  0.00    -0.065 A  
HETATM   15  O   UNL     1      -7.185   4.293  69.937  1.00  0.00    -0.045 OA 
HETATM   16  C   UNL     1      -8.456   6.197  69.176  1.00  0.00    -0.119 A  
HETATM   17  H   UNL     1      -7.978   3.922  70.306  1.00  0.00     0.000 HD 
HETATM   18  C   UNL     1      -8.471   7.488  68.681  1.00  0.00    -0.129 A  
HETATM   19  C   UNL     1      -9.744   8.228  69.126  1.00  0.00    -0.171 C  
HETATM   20  C   UNL     1     -10.846   9.023  68.034  1.00  0.00    -0.102 C  
HETATM   21  C   UNL     1     -10.069   7.190  70.242  1.00  0.00    -0.188 C  
HETATM   22  O   UNL     1      -9.645   5.874  69.802  1.00  0.00    -0.147 OA 
HETATM   23  C   UNL     1     -10.607  10.783  67.765  1.00  0.00    -0.228 C  
HETATM   24  N   UNL     1      -9.198  11.279  67.885  1.00  0.00    -0.153 NA 
ENDROOT
BRANCH  24  25
HETATM   25  C   UNL     1      -8.726  12.407  68.684  1.00  0.00     0.036 C  
BRANCH  25  26
HETATM   26  C   UNL     1      -7.223  12.667  68.689  1.00  0.00    -0.108 C  
HETATM   27  C   UNL     1      -6.796  13.727  67.605  1.00  0.00    -0.187 C  
HETATM   28  C   UNL     1      -5.595  14.045  68.512  1.00  0.00    -0.095 C  
HETATM   29  C   UNL     1      -6.509  13.634  69.698  1.00  0.00    -0.083 C  
ENDBRANCH  25  26
ENDBRANCH  24  25
TORSDOF 2
ENDMDL
MODEL      128
REMARK 921   NORMALIZED FREE ENERGY PREDICTED BY IDOCK:   -2.81 KCAL/MOL
REMARK 922        TOTAL FREE ENERGY PREDICTED BY IDOCK:   -3.68 KCAL/MOL
REMARK 923 INTER-LIGAND FREE ENERGY PREDICTED BY IDOCK:   -3.46 KCAL/MOL
REMARK 924 INTRA-LIGAND FREE ENERGY PREDICTED BY IDOCK:   -0.22 KCAL/MOL
REMARK 927      BINDING AFFINITY PREDICTED BY RF-SCORE:    0.00 PKD
ROOT
HETATM    1  O   UNL     1     -10.591  11.037  69.543  1.00  0.00    -0.356 OA 
HETATM    2  C   UNL     1      -9.527  10.160  69.970  1.00  0.00    -0.036 C  
HETATM    3  H   UNL     1     -10.220  11.694  68.966  1.00  0.00     0.000 HD 
HETATM    4  C   UNL     1     -10.127   9.101  70.901  1.00  0.00    -0.356 C  
HETATM    5  C   UNL     1     -10.369   7.635  70.246  1.00  0.00    -0.214 C  
HETATM    6  C   UNL     1      -9.386   7.072  69.046  1.00  0.00    -0.136 C  
HETATM    7  O   UNL     1     -10.205   7.082  67.881  1.00  0.00    -0.163 OA 
HETATM    8  C   UNL     1      -8.315   5.798  68.919  1.00  0.00    -0.101 C  
HETATM    9  C   UNL     1      -7.739   5.504  67.533  1.00  0.00    -0.096 C  
HETATM   10  H   UNL     1      -9.639   6.757  67.190  1.00  0.00     0.000 HD 
HETATM   11  C   UNL     1      -7.283   6.854  67.011  1.00  0.00    -0.084 A  
HETATM   12  C   UNL     1      -6.814   6.989  65.712  1.00  0.00    -0.056 A  
HETATM   13  C   UNL     1      -6.716   8.267  65.130  1.00  0.00    -0.055 A  
HETATM   14  C   UNL     1      -7.060   9.415  65.878  1.00  0.00    -0.091 A  
HETATM   15  O   UNL     1      -7.255  10.589  65.205  1.00  0.00    -0.263 OA 
HETATM   16  C   UNL     1      -7.407   9.262  67.213  1.00  0.00    -0.091 A  
HETATM   17  H   UNL     1      -7.487  11.361  65.708  1.00  0.00     0.000 HD 
HETATM   18  C   UNL     1      -7.480   8.014  67.804  1.00  0.00    -0.094 A  
HETATM   19  C   UNL     1      -8.260   8.082  69.128  1.00  0.00    -0.130 C  
HETATM   20  C   UNL     1      -7.650   7.499  70.654  1.00  0.00    -0.085 C  
HETATM   21  C   UNL     1      -8.876   9.475  68.801  1.00  0.00    -0.132 C  
HETATM   22  O   UNL     1      -7.916  10.249  68.037  1.00  0.00    -0.100 OA 
HETATM   23  C   UNL     1      -8.105   5.829  71.135  1.00  0.00    -0.117 C  
HETATM   24  N   UNL     1      -8.334   4.863  70.012  1.00  0.00    -0.072 NA 
ENDROOT
BRANCH  24  25
HETATM   25  C   UNL     1      -9.493   3.995  69.819  1.00  0.00    -0.195 C  
BRANCH  25  26
HETATM   26  C   UNL     1      -9.479   2.653  70.545  1.00  0.00    -0.195 C  
HETATM   27  C   UNL     1      -8.145   2.424  71.349  1.00  0.00    -0.058 C  
HETATM   28  C   UNL     1      -8.961   1.504  72.274  1.00  0.00    -0.095 C  
HETATM   29  C   UNL     1     -10.178   2.403  71.926  1.00  0.00    -0.087 C  
ENDBRANCH  25  26
ENDBRANCH  24  25
TORSDOF 2
ENDMDL
MODEL      129
REMARK 921   NORMALIZED FREE ENERGY PREDICTED BY IDOCK:   -2.72 KCAL/MOL
REMARK 922        TOTAL FREE ENERGY PREDICTED BY IDOCK:   -3.58 KCAL/MOL
REMARK 923 INTER-LIGAND FREE ENERGY PREDICTED BY IDOCK:   -3.12 KCAL/MOL
REMARK 924 INTRA-LIGAND FREE ENERGY PREDICTED BY IDOCK:   -0.46 KCAL/MOL
REMARK 927      BINDING AFFINITY PREDICTED BY RF-SCORE:    0.00 PKD
ROOT
HETATM    1  O   UNL     1     -10.285   8.798  66.152  1.00  0.00    -0.405 OA 
HETATM    2  C   UNL     1      -8.984   8.234  66.421  1.00  0.00    -0.166 C  
HETATM    3  H   UNL     1     -10.413   8.809  65.211  1.00  0.00     0.000 HD 
HETATM    4  C   UNL     1      -8.777   8.217  67.940  1.00  0.00    -0.128 C  
HETATM    5  C   UNL     1      -8.976   6.779  68.668  1.00  0.00    -0.125 C  
HETATM    6  C   UNL     1      -8.632   5.374  67.875  1.00  0.00    -0.104 C  
HETATM    7  O   UNL     1      -9.903   4.774  67.643  1.00  0.00    -0.164 OA 
HETATM    8  C   UNL     1      -7.514   4.155  68.096  1.00  0.00    -0.067 C  
HETATM    9  C   UNL     1      -7.663   2.902  67.230  1.00  0.00    -0.070 C  
HETATM   10  H   UNL     1      -9.705   3.965  67.187  1.00  0.00     0.000 HD 
HETATM   11  C   UNL     1      -7.850   3.430  65.820  1.00  0.00    -0.085 A  
HETATM   12  C   UNL     1      -8.142   2.565  64.775  1.00  0.00    -0.082 A  
HETATM   13  C   UNL     1      -8.642   3.075  63.561  1.00  0.00    -0.089 A  
HETATM   14  C   UNL     1      -8.813   4.467  63.394  1.00  0.00    -0.132 A  
HETATM   15  O   UNL     1      -9.580   4.902  62.348  1.00  0.00    -0.334 OA 
HETATM   16  C   UNL     1      -8.397   5.317  64.408  1.00  0.00    -0.137 A  
HETATM   17  H   UNL     1      -9.695   5.838  62.235  1.00  0.00     0.000 HD 
HETATM   18  C   UNL     1      -7.879   4.830  65.594  1.00  0.00    -0.095 A  
HETATM   19  C   UNL     1      -7.880   5.920  66.679  1.00  0.00    -0.101 C  
HETATM   20  C   UNL     1      -6.472   6.392  67.594  1.00  0.00    -0.052 C  
HETATM   21  C   UNL     1      -8.873   6.829  65.895  1.00  0.00    -0.110 C  
HETATM   22  O   UNL     1      -8.631   6.678  64.473  1.00  0.00     0.086 OA 
HETATM   23  C   UNL     1      -6.232   5.608  69.192  1.00  0.00    -0.029 C  
HETATM   24  N   UNL     1      -6.769   4.215  69.326  1.00  0.00    -0.044 NA 
ENDROOT
BRANCH  24  25
HETATM   25  C   UNL     1      -7.637   3.703  70.383  1.00  0.00    -0.041 C  
BRANCH  25  26
HETATM   26  C   UNL     1      -8.252   4.729  71.329  1.00  0.00    -0.102 C  
HETATM   27  C   UNL     1      -9.818   4.594  71.418  1.00  0.00    -0.264 C  
HETATM   28  C   UNL     1      -9.706   5.213  72.823  1.00  0.00    -0.177 C  
HETATM   29  C   UNL     1      -8.299   4.560  72.888  1.00  0.00    -0.103 C  
ENDBRANCH  25  26
ENDBRANCH  24  25
TORSDOF 2
ENDMDL
MODEL      130
REMARK 921   NORMALIZED FREE ENERGY PREDICTED BY IDOCK:   -2.21 KCAL/MOL
REMARK 922        TOTAL FREE ENERGY PREDICTED BY IDOCK:   -3.01 KCAL/MOL
REMARK 923 INTER-LIGAND FREE ENERGY PREDICTED BY IDOCK:   -2.69 KCAL/MOL
REMARK 924 INTRA-LIGAND FREE ENERGY PREDICTED BY IDOCK:   -0.32 KCAL/MOL
REMARK 927      BINDING AFFINITY PREDICTED BY RF-SCORE:    0.00 PKD
ROOT
HETATM    1  O   UNL     1     -12.870  14.415  70.803  1.00  0.00    -0.341 OA 
HETATM    2  C   UNL     1     -11.678  13.611  70.670  1.00  0.00    -0.024 C  
HETATM    3  H   UNL     1     -12.667  15.294  70.505  1.00  0.00     0.000 HD 
HETATM    4  C   UNL     1     -12.005  12.193  71.151  1.00  0.00     0.342 C  
HETATM    5  C   UNL     1     -12.253  11.088  69.988  1.00  0.00    -0.418 C  
HETATM    6  C   UNL     1     -11.477  11.199  68.536  1.00  0.00    -0.302 C  
HETATM    7  O   UNL     1     -12.501  11.547  67.609  1.00  0.00     0.075 OA 
HETATM    8  C   UNL     1     -10.353  10.255  67.740  1.00  0.00    -0.204 C  
HETATM    9  C   UNL     1     -10.031  10.624  66.290  1.00  0.00    -0.274 C  
HETATM   10  H   UNL     1     -12.054  11.611  66.774  1.00  0.00     0.000 HD 
HETATM   11  C   UNL     1      -9.790  12.121  66.319  1.00  0.00    -0.250 A  
HETATM   12  C   UNL     1      -9.590  12.828  65.141  1.00  0.00     0.124 A  
HETATM   13  C   UNL     1      -9.705  14.231  65.136  1.00  0.00     0.024 A  
HETATM   14  C   UNL     1      -9.988  14.924  66.334  1.00  0.00    -0.275 A  
HETATM   15  O   UNL     1     -10.399  16.225  66.245  1.00  0.00    -0.304 OA 
HETATM   16  C   UNL     1     -10.060  14.205  67.519  1.00  0.00    -0.236 A  
HETATM   17  H   UNL     1     -10.590  16.691  67.051  1.00  0.00     0.000 HD 
HETATM   18  C   UNL     1      -9.922  12.829  67.541  1.00  0.00    -0.210 A  
HETATM   19  C   UNL     1     -10.438  12.250  68.869  1.00  0.00    -0.131 C  
HETATM   20  C   UNL     1      -9.504  11.209  69.911  1.00  0.00     1.082 C  
HETATM   21  C   UNL     1     -11.211  13.550  69.242  1.00  0.00    -0.231 C  
HETATM   22  O   UNL     1     -10.478  14.697  68.741  1.00  0.00    -0.233 OA 
HETATM   23  C   UNL     1      -9.727   9.438  69.713  1.00  0.00    -0.199 C  
HETATM   24  N   UNL     1     -10.090   8.972  68.335  1.00  0.00    -0.184 NA 
ENDROOT
BRANCH  24  25
HETATM   25  C   UNL     1     -11.193   8.089  67.965  1.00  0.00     0.602 C  
BRANCH  25  26
HETATM   26  C   UNL     1     -11.024   6.606  68.277  1.00  0.00    -0.321 C  
HETATM   27  C   UNL     1      -9.552   6.107  68.026  1.00  0.00    -0.115 C  
HETATM   28  C   UNL     1      -9.831   5.020  69.079  1.00  0.00    -0.252 C  
HETATM   29  C   UNL     1     -10.810   6.038  69.724  1.00  0.00    -0.433 C  
ENDBRANCH  25  26
ENDBRANCH  24  25
TORSDOF 2
ENDMDL
MODEL      131
REMARK 921   NORMALIZED FREE ENERGY PREDICTED BY IDOCK:   -2.20 KCAL/MOL
REMARK 922        TOTAL FREE ENERGY PREDICTED BY IDOCK:   -3.00 KCAL/MOL
REMARK 923 INTER-LIGAND FREE ENERGY PREDICTED BY IDOCK:   -3.43 KCAL/MOL
REMARK 924 INTRA-LIGAND FREE ENERGY PREDICTED BY IDOCK:    0.42 KCAL/MOL
REMARK 927      BINDING AFFINITY PREDICTED BY RF-SCORE:    0.00 PKD
ROOT
HETATM    1  O   UNL     1     -12.063   8.405  70.378  1.00  0.00    -0.482 OA 
HETATM    2  C   UNL     1     -10.621   8.474  70.366  1.00  0.00    -0.223 C  
HETATM    3  H   UNL     1     -12.399   9.172  69.928  1.00  0.00     0.000 HD 
HETATM    4  C   UNL     1     -10.080   7.238  71.093  1.00  0.00    -0.190 C  
HETATM    5  C   UNL     1      -9.513   6.048  70.145  1.00  0.00    -0.182 C  
HETATM    6  C   UNL     1      -8.828   6.386  68.682  1.00  0.00    -0.120 C  
HETATM    7  O   UNL     1      -9.768   5.902  67.728  1.00  0.00    -0.113 OA 
HETATM    8  C   UNL     1      -7.297   6.204  68.043  1.00  0.00    -0.088 C  
HETATM    9  C   UNL     1      -7.128   6.469  66.545  1.00  0.00    -0.068 C  
HETATM   10  H   UNL     1      -9.374   6.096  66.886  1.00  0.00     0.000 HD 
HETATM   11  C   UNL     1      -7.831   7.792  66.307  1.00  0.00    -0.091 A  
HETATM   12  C   UNL     1      -7.986   8.290  65.021  1.00  0.00    -0.141 A  
HETATM   13  C   UNL     1      -8.914   9.319  64.774  1.00  0.00    -0.217 A  
HETATM   14  C   UNL     1      -9.662   9.871  65.838  1.00  0.00    -0.262 A  
HETATM   15  O   UNL     1     -10.757  10.630  65.530  1.00  0.00    -0.165 OA 
HETATM   16  C   UNL     1      -9.398   9.442  67.131  1.00  0.00    -0.139 A  
HETATM   17  H   UNL     1     -11.260  11.000  66.246  1.00  0.00     0.000 HD 
HETATM   18  C   UNL     1      -8.470   8.451  67.389  1.00  0.00    -0.124 A  
HETATM   19  C   UNL     1      -8.656   7.885  68.808  1.00  0.00    -0.128 C  
HETATM   20  C   UNL     1      -7.385   7.789  69.998  1.00  0.00    -0.075 C  
HETATM   21  C   UNL     1     -10.082   8.493  68.963  1.00  0.00    -0.199 C  
HETATM   22  O   UNL     1     -10.136   9.759  68.256  1.00  0.00    -0.152 OA 
HETATM   23  C   UNL     1      -6.489   6.237  70.116  1.00  0.00    -0.040 C  
HETATM   24  N   UNL     1      -6.376   5.446  68.848  1.00  0.00    -0.033 NA 
ENDROOT
BRANCH  24  25
HETATM   25  C   UNL     1      -6.696   4.034  68.658  1.00  0.00    -0.046 C  
BRANCH  25  26
HETATM   26  C   UNL     1      -6.638   3.141  69.893  1.00  0.00    -0.033 C  
HETATM   27  C   UNL     1      -7.382   3.779  71.126  1.00  0.00    -0.033 C  
HETATM   28  C   UNL     1      -7.599   2.341  71.630  1.00  0.00    -0.040 C  
HETATM   29  C   UNL     1      -7.598   1.924  70.135  1.00  0.00    -0.042 C  
ENDBRANCH  25  26
ENDBRANCH  24  25
TORSDOF 2
ENDMDL
MODEL      132
REMARK 921   NORMALIZED FREE ENERGY PREDICTED BY IDOCK:   -1.42 KCAL/MOL
REMARK 922        TOTAL FREE ENERGY PREDICTED BY IDOCK:   -2.13 KCAL/MOL
REMARK 923 INTER-LIGAND FREE ENERGY PREDICTED BY IDOCK:   -2.28 KCAL/MOL
REMARK 924 INTRA-LIGAND FREE ENERGY PREDICTED BY IDOCK:    0.15 KCAL/MOL
REMARK 927      BINDING AFFINITY PREDICTED BY RF-SCORE:    0.00 PKD
ROOT
HETATM    1  O   UNL     1      -9.149  10.563  63.720  1.00  0.00    -0.198 OA 
HETATM    2  C   UNL     1      -9.050  10.487  65.158  1.00  0.00    -0.197 C  
HETATM    3  H   UNL     1     -10.070  10.603  63.489  1.00  0.00     0.000 HD 
HETATM    4  C   UNL     1      -7.564  10.422  65.529  1.00  0.00    -0.144 C  
HETATM    5  C   UNL     1      -6.909  11.803  66.076  1.00  0.00     0.741 C  
HETATM    6  C   UNL     1      -7.816  12.898  66.911  1.00  0.00     0.119 C  
HETATM    7  O   UNL     1      -7.952  14.002  66.021  1.00  0.00     0.893 OA 
HETATM    8  C   UNL     1      -7.785  13.490  68.472  1.00  0.00    -0.125 C  
HETATM    9  C   UNL     1      -8.705  14.670  68.792  1.00  0.00    -0.166 C  
HETATM   10  H   UNL     1      -8.475  14.633  66.501  1.00  0.00     0.000 HD 
HETATM   11  C   UNL     1     -10.054  14.270  68.224  1.00  0.00    -0.238 A  
HETATM   12  C   UNL     1     -11.115  15.165  68.224  1.00  0.00    -0.295 A  
HETATM   13  C   UNL     1     -12.238  14.922  67.410  1.00  0.00     0.129 A  
HETATM   14  C   UNL     1     -12.302  13.753  66.621  1.00  0.00    -0.357 A  
HETATM   15  O   UNL     1     -13.236  13.699  65.623  1.00  0.00    -0.506 OA 
HETATM   16  C   UNL     1     -11.286  12.815  66.734  1.00  0.00    -0.295 A  
HETATM   17  H   UNL     1     -13.279  12.912  65.091  1.00  0.00     0.000 HD 
HETATM   18  C   UNL     1     -10.191  13.029  67.551  1.00  0.00    -0.221 A  
HETATM   19  C   UNL     1      -9.048  12.063  67.195  1.00  0.00    -0.186 C  
HETATM   20  C   UNL     1      -8.255  11.019  68.345  1.00  0.00    -0.137 C  
HETATM   21  C   UNL     1      -9.669  11.688  65.817  1.00  0.00    -0.236 C  
HETATM   22  O   UNL     1     -11.115  11.704  65.930  1.00  0.00    -0.303 OA 
HETATM   23  C   UNL     1      -6.741  11.626  69.096  1.00  0.00    -0.109 C  
HETATM   24  N   UNL     1      -6.637  13.113  69.253  1.00  0.00    -0.107 NA 
ENDROOT
BRANCH  24  25
HETATM   25  C   UNL     1      -5.529  13.969  68.835  1.00  0.00    -0.082 C  
BRANCH  25  26
HETATM   26  C   UNL     1      -5.329  15.267  69.611  1.00  0.00    -0.097 C  
HETATM   27  C   UNL     1      -5.187  16.514  68.661  1.00  0.00    -0.120 C  
HETATM   28  C   UNL     1      -5.726  17.358  69.830  1.00  0.00    -0.231 C  
HETATM   29  C   UNL     1      -6.501  16.084  70.261  1.00  0.00     0.185 C  
ENDBRANCH  25  26
ENDBRANCH  24  25
TORSDOF 2
ENDMDL
MODEL      133
REMARK 921   NORMALIZED FREE ENERGY PREDICTED BY IDOCK:   -0.40 KCAL/MOL
REMARK 922        TOTAL FREE ENERGY PREDICTED BY IDOCK:   -0.98 KCAL/MOL
REMARK 923 INTER-LIGAND FREE ENERGY PREDICTED BY IDOCK:   -1.12 KCAL/MOL
REMARK 924 INTRA-LIGAND FREE ENERGY PREDICTED BY IDOCK:    0.13 KCAL/MOL
REMARK 927      BINDING AFFINITY PREDICTED BY RF-SCORE:    0.00 PKD
ROOT
HETATM    1  O   UNL     1     -12.642  15.497  63.283  1.00  0.00    -0.131 OA 
HETATM    2  C   UNL     1     -11.369  15.722  63.926  1.00  0.00     0.537 C  
HETATM    3  H   UNL     1     -12.525  14.822  62.624  1.00  0.00     0.000 HD 
HETATM    4  C   UNL     1     -11.559  16.811  64.988  1.00  0.00     0.670 C  
HETATM    5  C   UNL     1     -11.656  16.295  66.525  1.00  0.00     0.815 C  
HETATM    6  C   UNL     1     -10.856  14.937  67.014  1.00  0.00    -0.315 C  
HETATM    7  O   UNL     1     -11.885  13.979  67.243  1.00  0.00    -0.368 OA 
HETATM    8  C   UNL     1      -9.618  14.640  68.093  1.00  0.00    -0.213 C  
HETATM    9  C   UNL     1      -9.297  13.176  68.403  1.00  0.00    -0.154 C  
HETATM   10  H   UNL     1     -11.425  13.198  67.525  1.00  0.00     0.000 HD 
HETATM   11  C   UNL     1      -9.215  12.505  67.045  1.00  0.00    -0.214 A  
HETATM   12  C   UNL     1      -9.057  11.129  66.945  1.00  0.00    -0.166 A  
HETATM   13  C   UNL     1      -9.319  10.480  65.723  1.00  0.00    -0.229 A  
HETATM   14  C   UNL     1      -9.706  11.230  64.591  1.00  0.00    -0.253 A  
HETATM   15  O   UNL     1     -10.249  10.561  63.529  1.00  0.00    -0.478 OA 
HETATM   16  C   UNL     1      -9.736  12.614  64.685  1.00  0.00     0.086 A  
HETATM   17  H   UNL     1     -10.510  11.065  62.767  1.00  0.00     0.000 HD 
HETATM   18  C   UNL     1      -9.454  13.265  65.872  1.00  0.00    -0.045 A  
HETATM   19  C   UNL     1      -9.943  14.723  65.824  1.00  0.00    -0.375 C  
HETATM   20  C   UNL     1      -8.934  16.105  66.162  1.00  0.00    -0.372 C  
HETATM   21  C   UNL     1     -10.858  14.473  64.589  1.00  0.00    -0.332 C  
HETATM   22  O   UNL     1     -10.236  13.481  63.732  1.00  0.00     0.021 OA 
HETATM   23  C   UNL     1      -8.964  16.752  67.838  1.00  0.00    -0.219 C  
HETATM   24  N   UNL     1      -9.238  15.754  68.921  1.00  0.00    -0.211 NA 
ENDROOT
BRANCH  24  25
HETATM   25  C   UNL     1     -10.232  15.859  69.987  1.00  0.00    -0.183 C  
BRANCH  25  26
HETATM   26  C   UNL     1     -10.946  14.574  70.395  1.00  0.00     0.049 C  
HETATM   27  C   UNL     1     -11.072  14.432  71.958  1.00  0.00     1.489 C  
HETATM   28  C   UNL     1     -12.315  13.564  71.693  1.00  0.00    -0.108 C  
HETATM   29  C   UNL     1     -12.506  14.408  70.404  1.00  0.00    -0.420 C  
ENDBRANCH  25  26
ENDBRANCH  24  25
TORSDOF 2
ENDMDL
MODEL      134
REMARK 921   NORMALIZED FREE ENERGY PREDICTED BY IDOCK:   -0.11 KCAL/MOL
REMARK 922        TOTAL FREE ENERGY PREDICTED BY IDOCK:   -0.67 KCAL/MOL
REMARK 923 INTER-LIGAND FREE ENERGY PREDICTED BY IDOCK:   -0.60 KCAL/MOL
REMARK 924 INTRA-LIGAND FREE ENERGY PREDICTED BY IDOCK:   -0.07 KCAL/MOL
REMARK 927      BINDING AFFINITY PREDICTED BY RF-SCORE:    0.00 PKD
ROOT
HETATM    1  O   UNL     1      -7.895  15.834  67.692  1.00  0.00    -0.133 OA 
HETATM    2  C   UNL     1      -7.390  14.585  67.176  1.00  0.00     0.092 C  
HETATM    3  H   UNL     1      -8.237  16.339  66.963  1.00  0.00     0.000 HD 
HETATM    4  C   UNL     1      -6.839  13.772  68.353  1.00  0.00    -0.101 C  
HETATM    5  C   UNL     1      -7.787  12.569  68.891  1.00  0.00     0.127 C  
HETATM    6  C   UNL     1      -8.796  11.763  67.864  1.00  0.00    -0.165 C  
HETATM    7  O   UNL     1     -10.103  12.178  68.249  1.00  0.00    -0.201 OA 
HETATM    8  C   UNL     1      -8.889  10.188  67.319  1.00  0.00    -0.132 C  
HETATM    9  C   UNL     1     -10.126   9.801  66.505  1.00  0.00    -0.307 C  
HETATM   10  H   UNL     1     -10.684  11.714  67.658  1.00  0.00     0.000 HD 
HETATM   11  C   UNL     1     -10.268  10.905  65.474  1.00  0.00    -0.332 A  
HETATM   12  C   UNL     1     -11.370  10.947  64.631  1.00  0.00     0.459 A  
HETATM   13  C   UNL     1     -11.669  12.129  63.926  1.00  0.00    -0.546 A  
HETATM   14  C   UNL     1     -10.831  13.259  64.049  1.00  0.00    -0.259 A  
HETATM   15  O   UNL     1     -11.308  14.465  63.614  1.00  0.00    -0.156 OA 
HETATM   16  C   UNL     1      -9.670  13.150  64.800  1.00  0.00     0.147 A  
HETATM   17  H   UNL     1     -10.744  15.226  63.697  1.00  0.00     0.000 HD 
HETATM   18  C   UNL     1      -9.350  11.986  65.475  1.00  0.00    -0.042 A  
HETATM   19  C   UNL     1      -8.264  12.249  66.531  1.00  0.00     0.110 C  
HETATM   20  C   UNL     1      -6.767  11.360  66.638  1.00  0.00    -0.112 C  
HETATM   21  C   UNL     1      -8.472  13.792  66.496  1.00  0.00     0.331 C  
HETATM   22  O   UNL     1      -8.829  14.191  65.148  1.00  0.00     1.548 OA 
HETATM   23  C   UNL     1      -6.721   9.965  67.768  1.00  0.00    -0.072 C  
HETATM   24  N   UNL     1      -8.021   9.251  67.983  1.00  0.00    -0.099 NA 
ENDROOT
BRANCH  24  25
HETATM   25  C   UNL     1      -8.642   8.917  69.262  1.00  0.00    -0.133 C  
BRANCH  25  26
HETATM   26  C   UNL     1     -10.126   8.565  69.237  1.00  0.00    -0.203 C  
HETATM   27  C   UNL     1     -10.370   7.010  69.180  1.00  0.00    -0.209 C  
HETATM   28  C   UNL     1     -11.722   7.283  69.861  1.00  0.00     0.052 C  
HETATM   29  C   UNL     1     -11.031   8.508  70.518  1.00  0.00    -0.263 C  
ENDBRANCH  25  26
ENDBRANCH  24  25
TORSDOF 2
ENDMDL
MODEL      135
REMARK 921   NORMALIZED FREE ENERGY PREDICTED BY IDOCK:    0.29 KCAL/MOL
REMARK 922        TOTAL FREE ENERGY PREDICTED BY IDOCK:   -0.22 KCAL/MOL
REMARK 923 INTER-LIGAND FREE ENERGY PREDICTED BY IDOCK:    0.05 KCAL/MOL
REMARK 924 INTRA-LIGAND FREE ENERGY PREDICTED BY IDOCK:   -0.27 KCAL/MOL
REMARK 927      BINDING AFFINITY PREDICTED BY RF-SCORE:    0.00 PKD
ROOT
HETATM    1  O   UNL     1      -9.104  10.052  68.300  1.00  0.00    -0.121 OA 
HETATM    2  C   UNL     1      -8.209  11.091  67.851  1.00  0.00    -0.119 C  
HETATM    3  H   UNL     1      -8.594   9.408  68.779  1.00  0.00     0.000 HD 
HETATM    4  C   UNL     1      -9.032  12.127  67.078  1.00  0.00    -0.201 C  
HETATM    5  C   UNL     1      -9.383  13.495  67.879  1.00  0.00    -0.215 C  
HETATM    6  C   UNL     1      -8.356  14.093  69.024  1.00  0.00     0.083 C  
HETATM    7  O   UNL     1      -9.038  13.888  70.257  1.00  0.00     1.576 OA 
HETATM    8  C   UNL     1      -7.444  15.485  69.158  1.00  0.00    -0.191 C  
HETATM    9  C   UNL     1      -6.764  15.749  70.503  1.00  0.00     0.592 C  
HETATM   10  H   UNL     1      -8.447  14.232  70.916  1.00  0.00     0.000 HD 
HETATM   11  C   UNL     1      -6.091  14.436  70.858  1.00  0.00    -0.142 A  
HETATM   12  C   UNL     1      -5.473  14.269  72.090  1.00  0.00    -0.177 A  
HETATM   13  C   UNL     1      -5.156  12.975  72.545  1.00  0.00     0.050 A  
HETATM   14  C   UNL     1      -5.432  11.851  71.736  1.00  0.00     0.380 A  
HETATM   15  O   UNL     1      -5.406  10.614  72.320  1.00  0.00    -0.316 OA 
HETATM   16  C   UNL     1      -5.935  12.055  70.459  1.00  0.00    -0.049 A  
HETATM   17  H   UNL     1      -5.592   9.858  71.776  1.00  0.00     0.000 HD 
HETATM   18  C   UNL     1      -6.226  13.323  69.990  1.00  0.00    -0.079 A  
HETATM   19  C   UNL     1      -7.128  13.251  68.746  1.00  0.00    -0.100 C  
HETATM   20  C   UNL     1      -6.761  14.022  67.225  1.00  0.00     0.224 C  
HETATM   21  C   UNL     1      -7.527  11.768  69.007  1.00  0.00    -0.030 C  
HETATM   22  O   UNL     1      -6.402  11.074  69.605  1.00  0.00    -0.077 OA 
HETATM   23  C   UNL     1      -7.469  15.647  66.939  1.00  0.00    -0.134 C  
HETATM   24  N   UNL     1      -7.696  16.488  68.158  1.00  0.00    -0.162 NA 
ENDROOT
BRANCH  24  25
HETATM   25  C   UNL     1      -8.926  17.178  68.537  1.00  0.00    -0.265 C  
BRANCH  25  26
HETATM   26  C   UNL     1      -8.955  18.691  68.348  1.00  0.00    -0.356 C  
HETATM   27  C   UNL     1     -10.403  19.226  68.037  1.00  0.00    -0.506 C  
HETATM   28  C   UNL     1      -9.949  20.563  68.649  1.00  0.00     0.039 C  
HETATM   29  C   UNL     1      -8.994  19.718  69.534  1.00  0.00     0.343 C  
ENDBRANCH  25  26
ENDBRANCH  24  25
TORSDOF 2
ENDMDL
MODEL      136
REMARK 921   NORMALIZED FREE ENERGY PREDICTED BY IDOCK:    0.42 KCAL/MOL
REMARK 922        TOTAL FREE ENERGY PREDICTED BY IDOCK:   -0.07 KCAL/MOL
REMARK 923 INTER-LIGAND FREE ENERGY PREDICTED BY IDOCK:    0.21 KCAL/MOL
REMARK 924 INTRA-LIGAND FREE ENERGY PREDICTED BY IDOCK:   -0.28 KCAL/MOL
REMARK 927      BINDING AFFINITY PREDICTED BY RF-SCORE:    0.00 PKD
ROOT
HETATM    1  O   UNL     1     -10.817   2.777  65.171  1.00  0.00     0.671 OA 
HETATM    2  C   UNL     1     -10.209   4.059  64.902  1.00  0.00    -0.200 C  
HETATM    3  H   UNL     1     -10.165   2.103  65.017  1.00  0.00     0.000 HD 
HETATM    4  C   UNL     1     -11.261   5.146  65.150  1.00  0.00     0.960 C  
HETATM    5  C   UNL     1     -11.126   5.958  66.549  1.00  0.00    -0.016 C  
HETATM    6  C   UNL     1      -9.650   6.206  67.245  1.00  0.00    -0.115 C  
HETATM    7  O   UNL     1      -9.658   5.378  68.404  1.00  0.00    -0.118 OA 
HETATM    8  C   UNL     1      -8.732   7.559  67.579  1.00  0.00    -0.125 C  
HETATM    9  C   UNL     1      -7.477   7.360  68.431  1.00  0.00    -0.105 C  
HETATM   10  H   UNL     1      -8.809   5.520  68.804  1.00  0.00     0.000 HD 
HETATM   11  C   UNL     1      -6.769   6.175  67.802  1.00  0.00    -0.061 A  
HETATM   12  C   UNL     1      -5.640   5.628  68.397  1.00  0.00    -0.008 A  
HETATM   13  C   UNL     1      -5.194   4.349  68.012  1.00  0.00    -0.011 A  
HETATM   14  C   UNL     1      -5.872   3.637  66.998  1.00  0.00    -0.023 A  
HETATM   15  O   UNL     1      -5.617   2.299  66.869  1.00  0.00    -0.016 OA 
HETATM   16  C   UNL     1      -6.921   4.257  66.335  1.00  0.00    -0.059 A  
HETATM   17  H   UNL     1      -6.073   1.820  66.188  1.00  0.00     0.000 HD 
HETATM   18  C   UNL     1      -7.351   5.524  66.685  1.00  0.00    -0.083 A  
HETATM   19  C   UNL     1      -8.744   5.808  66.098  1.00  0.00    -0.139 C  
HETATM   20  C   UNL     1      -9.128   7.199  65.118  1.00  0.00     0.500 C  
HETATM   21  C   UNL     1      -9.027   4.306  65.797  1.00  0.00    -0.129 C  
HETATM   22  O   UNL     1      -7.782   3.654  65.437  1.00  0.00    -0.083 OA 
HETATM   23  C   UNL     1      -9.820   8.628  65.958  1.00  0.00    -0.113 C  
HETATM   24  N   UNL     1      -9.395   8.821  67.382  1.00  0.00    -0.135 NA 
ENDROOT
BRANCH  24  25
HETATM   25  C   UNL     1     -10.260   9.040  68.539  1.00  0.00    -0.200 C  
BRANCH  25  26
HETATM   26  C   UNL     1     -10.891  10.422  68.677  1.00  0.00    -0.270 C  
HETATM   27  C   UNL     1     -10.093  11.524  67.884  1.00  0.00    -0.202 C  
HETATM   28  C   UNL     1     -11.420  12.298  67.793  1.00  0.00    -0.392 C  
HETATM   29  C   UNL     1     -12.115  10.910  67.826  1.00  0.00     0.681 C  
ENDBRANCH  25  26
ENDBRANCH  24  25
TORSDOF 2
ENDMDL
MODEL      137
REMARK 921   NORMALIZED FREE ENERGY PREDICTED BY IDOCK:    2.43 KCAL/MOL
REMARK 922        TOTAL FREE ENERGY PREDICTED BY IDOCK:    2.17 KCAL/MOL
REMARK 923 INTER-LIGAND FREE ENERGY PREDICTED BY IDOCK:    2.36 KCAL/MOL
REMARK 924 INTRA-LIGAND FREE ENERGY PREDICTED BY IDOCK:   -0.19 KCAL/MOL
REMARK 927      BINDING AFFINITY PREDICTED BY RF-SCORE:    0.00 PKD
ROOT
HETATM    1  O   UNL     1      -7.596  19.448  70.524  1.00  0.00     0.859 OA 
HETATM    2  C   UNL     1      -8.352  19.016  69.373  1.00  0.00     0.201 C  
HETATM    3  H   UNL     1      -8.206  19.795  71.165  1.00  0.00     0.000 HD 
HETATM    4  C   UNL     1      -7.367  18.457  68.339  1.00  0.00    -0.289 C  
HETATM    5  C   UNL     1      -7.283  16.839  68.242  1.00  0.00    -0.173 C  
HETATM    6  C   UNL     1      -8.601  15.902  68.567  1.00  0.00    -0.190 C  
HETATM    7  O   UNL     1      -8.287  15.258  69.799  1.00  0.00    -0.352 OA 
HETATM    8  C   UNL     1      -9.543  14.862  67.662  1.00  0.00    -0.200 C  
HETATM    9  C   UNL     1     -10.577  14.021  68.415  1.00  0.00    -0.259 C  
HETATM   10  H   UNL     1      -9.045  14.719  69.986  1.00  0.00     0.000 HD 
HETATM   11  C   UNL     1     -11.295  15.009  69.314  1.00  0.00    -0.311 A  
HETATM   12  C   UNL     1     -12.228  14.570  70.243  1.00  0.00    -0.391 A  
HETATM   13  C   UNL     1     -12.634  15.423  71.287  1.00  0.00    -0.477 A  
HETATM   14  C   UNL     1     -12.119  16.736  71.371  1.00  0.00     1.024 A  
HETATM   15  O   UNL     1     -12.281  17.419  72.545  1.00  0.00     0.766 OA 
HETATM   16  C   UNL     1     -11.283  17.191  70.361  1.00  0.00     0.925 A  
HETATM   17  H   UNL     1     -11.934  18.301  72.601  1.00  0.00     0.000 HD 
HETATM   18  C   UNL     1     -10.900  16.371  69.315  1.00  0.00    -0.327 A  
HETATM   19  C   UNL     1      -9.685  16.960  68.578  1.00  0.00    -0.264 C  
HETATM   20  C   UNL     1      -9.627  17.247  66.859  1.00  0.00    -0.272 C  
HETATM   21  C   UNL     1      -9.343  17.945  69.735  1.00  0.00     1.042 C  
HETATM   22  O   UNL     1     -10.576  18.378  70.367  1.00  0.00     1.155 OA 
HETATM   23  C   UNL     1      -8.902  15.961  65.837  1.00  0.00    -0.133 C  
HETATM   24  N   UNL     1      -9.043  14.559  66.348  1.00  0.00    -0.229 NA 
ENDROOT
BRANCH  24  25
HETATM   25  C   UNL     1      -7.982  13.568  66.506  1.00  0.00     0.866 C  
BRANCH  25  26
HETATM   26  C   UNL     1      -8.407  12.163  66.923  1.00  0.00    -0.151 C  
HETATM   27  C   UNL     1      -9.133  11.390  65.760  1.00  0.00    -0.195 C  
HETATM   28  C   UNL     1      -8.647  10.094  66.433  1.00  0.00    -0.137 C  
HETATM   29  C   UNL     1      -7.440  10.928  66.938  1.00  0.00    -0.128 C  
ENDBRANCH  25  26
ENDBRANCH  24  25
TORSDOF 2
ENDMDL
MODEL      138
REMARK 921   NORMALIZED FREE ENERGY PREDICTED BY IDOCK:    2.93 KCAL/MOL
REMARK 922        TOTAL FREE ENERGY PREDICTED BY IDOCK:    2.73 KCAL/MOL
REMARK 923 INTER-LIGAND FREE ENERGY PREDICTED BY IDOCK:    2.80 KCAL/MOL
REMARK 924 INTRA-LIGAND FREE ENERGY PREDICTED BY IDOCK:   -0.07 KCAL/MOL
REMARK 927      BINDING AFFINITY PREDICTED BY RF-SCORE:    0.00 PKD
ROOT
HETATM    1  O   UNL     1      -5.606  18.494  66.173  1.00  0.00    -0.143 OA 
HETATM    2  C   UNL     1      -6.938  18.482  66.729  1.00  0.00    -0.194 C  
HETATM    3  H   UNL     1      -4.985  18.503  66.893  1.00  0.00     0.000 HD 
HETATM    4  C   UNL     1      -7.939  18.469  65.568  1.00  0.00     0.597 C  
HETATM    5  C   UNL     1      -8.624  17.034  65.239  1.00  0.00     1.931 C  
HETATM    6  C   UNL     1      -8.886  15.928  66.434  1.00  0.00    -0.333 C  
HETATM    7  O   UNL     1      -7.956  14.884  66.165  1.00  0.00     0.101 OA 
HETATM    8  C   UNL     1     -10.251  15.246  67.112  1.00  0.00    -0.252 C  
HETATM    9  C   UNL     1     -10.043  14.085  68.087  1.00  0.00    -0.244 C  
HETATM   10  H   UNL     1      -8.107  14.246  66.853  1.00  0.00     0.000 HD 
HETATM   11  C   UNL     1      -8.961  14.569  69.035  1.00  0.00    -0.044 A  
HETATM   12  C   UNL     1      -8.424  13.716  69.989  1.00  0.00     2.359 A  
HETATM   13  C   UNL     1      -7.212  14.048  70.625  1.00  0.00     1.258 A  
HETATM   14  C   UNL     1      -6.561  15.264  70.318  1.00  0.00     0.005 A  
HETATM   15  O   UNL     1      -5.257  15.411  70.704  1.00  0.00    -0.130 OA 
HETATM   16  C   UNL     1      -7.181  16.154  69.453  1.00  0.00    -0.204 A  
HETATM   17  H   UNL     1      -4.818  16.228  70.497  1.00  0.00     0.000 HD 
HETATM   18  C   UNL     1      -8.385  15.851  68.844  1.00  0.00    -0.226 A  
HETATM   19  C   UNL     1      -8.646  16.791  67.655  1.00  0.00    -0.211 C  
HETATM   20  C   UNL     1     -10.099  17.736  67.455  1.00  0.00    -0.340 C  
HETATM   21  C   UNL     1      -7.165  17.269  67.588  1.00  0.00    -0.162 C  
HETATM   22  O   UNL     1      -6.618  17.303  68.931  1.00  0.00    -0.190 OA 
HETATM   23  C   UNL     1     -11.404  17.029  66.444  1.00  0.00     0.869 C  
HETATM   24  N   UNL     1     -11.488  15.532  66.434  1.00  0.00    -0.013 NA 
ENDROOT
BRANCH  24  25
HETATM   25  C   UNL     1     -11.552  14.661  65.264  1.00  0.00    -0.354 C  
BRANCH  25  26
HETATM   26  C   UNL     1     -11.185  13.195  65.474  1.00  0.00    -0.305 C  
HETATM   27  C   UNL     1     -12.047  12.230  64.578  1.00  0.00    -0.462 C  
HETATM   28  C   UNL     1     -10.868  11.243  64.655  1.00  0.00    -0.335 C  
HETATM   29  C   UNL     1      -9.960  12.496  64.787  1.00  0.00    -0.177 C  
ENDBRANCH  25  26
ENDBRANCH  24  25
TORSDOF 2
ENDMDL
MODEL      139
REMARK 921   NORMALIZED FREE ENERGY PREDICTED BY IDOCK:    6.51 KCAL/MOL
REMARK 922        TOTAL FREE ENERGY PREDICTED BY IDOCK:    6.73 KCAL/MOL
REMARK 923 INTER-LIGAND FREE ENERGY PREDICTED BY IDOCK:    7.04 KCAL/MOL
REMARK 924 INTRA-LIGAND FREE ENERGY PREDICTED BY IDOCK:   -0.31 KCAL/MOL
REMARK 927      BINDING AFFINITY PREDICTED BY RF-SCORE:    0.00 PKD
ROOT
HETATM    1  O   UNL     1     -11.256  19.377  67.778  1.00  0.00    -0.260 OA 
HETATM    2  C   UNL     1     -12.007  18.289  67.198  1.00  0.00     2.906 C  
HETATM    3  H   UNL     1     -11.660  19.605  68.607  1.00  0.00     0.000 HD 
HETATM    4  C   UNL     1     -11.356  17.921  65.860  1.00  0.00     1.205 C  
HETATM    5  C   UNL     1     -10.425  16.591  65.865  1.00  0.00    -0.335 C  
HETATM    6  C   UNL     1     -10.753  15.333  66.880  1.00  0.00    -0.313 C  
HETATM    7  O   UNL     1      -9.698  15.362  67.837  1.00  0.00    -0.207 OA 
HETATM    8  C   UNL     1     -11.208  13.742  66.655  1.00  0.00    -0.318 C  
HETATM    9  C   UNL     1     -11.219  12.837  67.889  1.00  0.00    -0.315 C  
HETATM   10  H   UNL     1      -9.887  14.637  68.421  1.00  0.00     0.000 HD 
HETATM   11  C   UNL     1     -11.964  13.633  68.944  1.00  0.00    -0.392 A  
HETATM   12  C   UNL     1     -12.059  13.165  70.247  1.00  0.00    -0.399 A  
HETATM   13  C   UNL     1     -12.442  14.040  71.281  1.00  0.00    -0.448 A  
HETATM   14  C   UNL     1     -12.764  15.384  70.989  1.00  0.00    -0.448 A  
HETATM   15  O   UNL     1     -12.824  16.273  72.027  1.00  0.00    -0.460 OA 
HETATM   16  C   UNL     1     -12.781  15.794  69.664  1.00  0.00     0.324 A  
HETATM   17  H   UNL     1     -13.040  17.177  71.831  1.00  0.00     0.000 HD 
HETATM   18  C   UNL     1     -12.433  14.936  68.637  1.00  0.00     0.179 A  
HETATM   19  C   UNL     1     -12.141  15.720  67.346  1.00  0.00     0.798 C  
HETATM   20  C   UNL     1     -12.906  15.400  65.812  1.00  0.00     1.433 C  
HETATM   21  C   UNL     1     -12.005  17.080  68.093  1.00  0.00     1.258 C  
HETATM   22  O   UNL     1     -12.919  17.095  69.219  1.00  0.00     3.718 OA 
HETATM   23  C   UNL     1     -12.036  14.319  64.671  1.00  0.00    -0.463 C  
HETATM   24  N   UNL     1     -11.164  13.272  65.296  1.00  0.00    -0.292 NA 
ENDROOT
BRANCH  24  25
HETATM   25  C   UNL     1      -9.767  12.987  64.982  1.00  0.00     0.085 C  
BRANCH  25  26
HETATM   26  C   UNL     1      -9.459  11.616  64.387  1.00  0.00    -0.050 C  
HETATM   27  C   UNL     1     -10.362  11.292  63.138  1.00  0.00    -0.338 C  
HETATM   28  C   UNL     1      -9.224  10.372  62.662  1.00  0.00    -0.322 C  
HETATM   29  C   UNL     1      -8.265  11.339  63.408  1.00  0.00     0.495 C  
ENDBRANCH  25  26
ENDBRANCH  24  25
TORSDOF 2
ENDMDL
MODEL      140
REMARK 921   NORMALIZED FREE ENERGY PREDICTED BY IDOCK:    7.23 KCAL/MOL
REMARK 922        TOTAL FREE ENERGY PREDICTED BY IDOCK:    7.53 KCAL/MOL
REMARK 923 INTER-LIGAND FREE ENERGY PREDICTED BY IDOCK:    8.09 KCAL/MOL
REMARK 924 INTRA-LIGAND FREE ENERGY PREDICTED BY IDOCK:   -0.56 KCAL/MOL
REMARK 927      BINDING AFFINITY PREDICTED BY RF-SCORE:    0.00 PKD
ROOT
HETATM    1  O   UNL     1      -8.203  15.927  64.224  1.00  0.00     6.665 OA 
HETATM    2  C   UNL     1      -9.196  16.102  65.256  1.00  0.00     0.851 C  
HETATM    3  H   UNL     1      -7.486  16.526  64.399  1.00  0.00     0.000 HD 
HETATM    4  C   UNL     1     -10.353  15.137  64.973  1.00  0.00    -0.377 C  
HETATM    5  C   UNL     1     -10.395  13.794  65.883  1.00  0.00    -0.315 C  
HETATM    6  C   UNL     1      -9.821  13.801  67.430  1.00  0.00    -0.238 C  
HETATM    7  O   UNL     1      -8.631  13.019  67.373  1.00  0.00    -0.179 OA 
HETATM    8  C   UNL     1     -10.516  13.583  68.932  1.00  0.00    -0.126 C  
HETATM    9  C   UNL     1      -9.571  13.472  70.130  1.00  0.00     2.889 C  
HETATM   10  H   UNL     1      -8.301  13.024  68.263  1.00  0.00     0.000 HD 
HETATM   11  C   UNL     1      -8.607  14.633  69.969  1.00  0.00     0.759 A  
HETATM   12  C   UNL     1      -7.521  14.774  70.822  1.00  0.00     1.245 A  
HETATM   13  C   UNL     1      -6.461  15.632  70.472  1.00  0.00     0.292 A  
HETATM   14  C   UNL     1      -6.517  16.376  69.272  1.00  0.00    -0.197 A  
HETATM   15  O   UNL     1      -5.362  16.944  68.812  1.00  0.00    -0.128 OA 
HETATM   16  C   UNL     1      -7.668  16.310  68.500  1.00  0.00    -0.189 A  
HETATM   17  H   UNL     1      -5.399  17.444  68.004  1.00  0.00     0.000 HD 
HETATM   18  C   UNL     1      -8.728  15.493  68.848  1.00  0.00    -0.206 A  
HETATM   19  C   UNL     1      -9.677  15.292  67.654  1.00  0.00    -0.208 C  
HETATM   20  C   UNL     1     -11.393  15.600  67.705  1.00  0.00    -0.261 C  
HETATM   21  C   UNL     1      -8.633  15.807  66.619  1.00  0.00    -0.287 C  
HETATM   22  O   UNL     1      -7.827  16.844  67.235  1.00  0.00    -0.166 OA 
HETATM   23  C   UNL     1     -12.466  14.203  68.057  1.00  0.00     0.253 C  
HETATM   24  N   UNL     1     -11.881  13.128  68.922  1.00  0.00    -0.317 NA 
ENDROOT
BRANCH  24  25
HETATM   25  C   UNL     1     -11.857  11.693  68.650  1.00  0.00    -0.308 C  
BRANCH  25  26
HETATM   26  C   UNL     1     -12.190  10.765  69.814  1.00  0.00    -0.359 C  
HETATM   27  C   UNL     1     -10.909  10.064  70.403  1.00  0.00    -0.380 C  
HETATM   28  C   UNL     1     -11.679   9.966  71.732  1.00  0.00    -0.183 C  
HETATM   29  C   UNL     1     -12.413  11.258  71.286  1.00  0.00    -0.441 C  
ENDBRANCH  25  26
ENDBRANCH  24  25
TORSDOF 2
ENDMDL
MODEL      141
REMARK 921   NORMALIZED FREE ENERGY PREDICTED BY IDOCK:    8.79 KCAL/MOL
REMARK 922        TOTAL FREE ENERGY PREDICTED BY IDOCK:    9.28 KCAL/MOL
REMARK 923 INTER-LIGAND FREE ENERGY PREDICTED BY IDOCK:    8.93 KCAL/MOL
REMARK 924 INTRA-LIGAND FREE ENERGY PREDICTED BY IDOCK:    0.35 KCAL/MOL
REMARK 927      BINDING AFFINITY PREDICTED BY RF-SCORE:    0.00 PKD
ROOT
HETATM    1  O   UNL     1     -13.935  11.783  68.112  1.00  0.00     8.060 OA 
HETATM    2  C   UNL     1     -12.607  11.757  68.676  1.00  0.00     1.039 C  
HETATM    3  H   UNL     1     -14.560  11.728  68.825  1.00  0.00     0.000 HD 
HETATM    4  C   UNL     1     -11.599  11.845  67.525  1.00  0.00    -0.374 C  
HETATM    5  C   UNL     1     -10.910  13.298  67.294  1.00  0.00    -0.275 C  
HETATM    6  C   UNL     1     -10.655  14.324  68.560  1.00  0.00    -0.257 C  
HETATM    7  O   UNL     1     -11.584  15.384  68.353  1.00  0.00    -0.341 OA 
HETATM    8  C   UNL     1      -9.294  14.959  69.289  1.00  0.00    -0.104 C  
HETATM    9  C   UNL     1      -9.508  16.054  70.337  1.00  0.00     1.122 C  
HETATM   10  H   UNL     1     -11.437  15.975  69.082  1.00  0.00     0.000 HD 
HETATM   11  C   UNL     1     -10.596  15.510  71.244  1.00  0.00     0.288 A  
HETATM   12  C   UNL     1     -11.139  16.300  72.248  1.00  0.00     0.749 A  
HETATM   13  C   UNL     1     -12.355  15.928  72.853  1.00  0.00    -0.593 A  
HETATM   14  C   UNL     1     -13.005  14.736  72.464  1.00  0.00    -0.392 A  
HETATM   15  O   UNL     1     -14.311  14.565  72.831  1.00  0.00    -0.252 OA 
HETATM   16  C   UNL     1     -12.380  13.903  71.547  1.00  0.00    -0.237 A  
HETATM   17  H   UNL     1     -14.749  13.763  72.569  1.00  0.00     0.000 HD 
HETATM   18  C   UNL     1     -11.172  14.244  70.967  1.00  0.00     0.422 A  
HETATM   19  C   UNL     1     -10.903  13.383  69.721  1.00  0.00     0.310 C  
HETATM   20  C   UNL     1      -9.450  12.452  69.469  1.00  0.00     1.420 C  
HETATM   21  C   UNL     1     -12.384  12.912  69.613  1.00  0.00    -0.023 C  
HETATM   22  O   UNL     1     -12.940  12.791  70.948  1.00  0.00    -0.151 OA 
HETATM   23  C   UNL     1      -8.138  13.222  68.514  1.00  0.00    -0.094 C  
HETATM   24  N   UNL     1      -8.054  14.716  68.602  1.00  0.00    -0.145 NA 
ENDROOT
BRANCH  24  25
HETATM   25  C   UNL     1      -7.982  15.662  67.491  1.00  0.00    -0.162 C  
BRANCH  25  26
HETATM   26  C   UNL     1      -8.474  17.080  67.760  1.00  0.00    -0.199 C  
HETATM   27  C   UNL     1      -7.480  17.895  68.668  1.00  0.00    -0.280 C  
HETATM   28  C   UNL     1      -8.041  19.162  68.000  1.00  0.00    -0.333 C  
HETATM   29  C   UNL     1      -8.294  18.271  66.754  1.00  0.00    -0.269 C  
ENDBRANCH  25  26
ENDBRANCH  24  25
TORSDOF 2
ENDMDL
MODEL      142
REMARK 921   NORMALIZED FREE ENERGY PREDICTED BY IDOCK:    8.90 KCAL/MOL
REMARK 922        TOTAL FREE ENERGY PREDICTED BY IDOCK:    9.40 KCAL/MOL
REMARK 923 INTER-LIGAND FREE ENERGY PREDICTED BY IDOCK:    5.17 KCAL/MOL
REMARK 924 INTRA-LIGAND FREE ENERGY PREDICTED BY IDOCK:    4.23 KCAL/MOL
REMARK 927      BINDING AFFINITY PREDICTED BY RF-SCORE:    0.00 PKD
ROOT
HETATM    1  O   UNL     1      -6.503  10.923  65.056  1.00  0.00    -0.366 OA 
HETATM    2  C   UNL     1      -6.703  11.706  66.251  1.00  0.00     0.248 C  
HETATM    3  H   UNL     1      -5.752  10.358  65.194  1.00  0.00     0.000 HD 
HETATM    4  C   UNL     1      -7.915  12.618  66.027  1.00  0.00     1.367 C  
HETATM    5  C   UNL     1      -9.299  12.145  66.730  1.00  0.00    -0.212 C  
HETATM    6  C   UNL     1      -9.283  11.298  68.146  1.00  0.00    -0.170 C  
HETATM    7  O   UNL     1      -9.703   9.987  67.783  1.00  0.00    -0.147 OA 
HETATM    8  C   UNL     1      -9.823  11.608  69.695  1.00  0.00     0.957 C  
HETATM    9  C   UNL     1      -9.786  10.448  70.693  1.00  0.00     0.862 C  
HETATM   10  H   UNL     1      -9.694   9.499  68.598  1.00  0.00     0.000 HD 
HETATM   11  C   UNL     1      -8.398   9.856  70.544  1.00  0.00     0.148 A  
HETATM   12  C   UNL     1      -8.049   8.693  71.218  1.00  0.00    -0.182 A  
HETATM   13  C   UNL     1      -6.906   7.971  70.824  1.00  0.00    -0.037 A  
HETATM   14  C   UNL     1      -6.096   8.445  69.769  1.00  0.00    -0.028 A  
HETATM   15  O   UNL     1      -5.194   7.581  69.211  1.00  0.00    -0.015 OA 
HETATM   16  C   UNL     1      -6.397   9.672  69.196  1.00  0.00    -0.041 A  
HETATM   17  H   UNL     1      -4.649   7.900  68.501  1.00  0.00     0.000 HD 
HETATM   18  C   UNL     1      -7.501  10.404  69.592  1.00  0.00    -0.160 A  
HETATM   19  C   UNL     1      -7.837  11.489  68.554  1.00  0.00    -0.140 C  
HETATM   20  C   UNL     1      -8.012  13.183  68.931  1.00  0.00     0.159 C  
HETATM   21  C   UNL     1      -6.962  10.831  67.446  1.00  0.00    -0.083 C  
HETATM   22  O   UNL     1      -5.809  10.204  68.064  1.00  0.00    -0.039 OA 
HETATM   23  C   UNL     1      -9.675  13.783  69.251  1.00  0.00     0.436 C  
HETATM   24  N   UNL     1     -10.627  12.791  69.845  1.00  0.00     0.830 NA 
ENDROOT
BRANCH  24  25
HETATM   25  C   UNL     1     -11.970  12.464  69.370  1.00  0.00    -0.260 C  
BRANCH  25  26
HETATM   26  C   UNL     1     -12.341  10.985  69.314  1.00  0.00    -0.160 C  
HETATM   27  C   UNL     1     -11.774  10.181  70.543  1.00  0.00    -0.407 C  
HETATM   28  C   UNL     1     -12.941   9.201  70.332  1.00  0.00     0.649 C  
HETATM   29  C   UNL     1     -13.729  10.417  69.775  1.00  0.00     1.955 C  
ENDBRANCH  25  26
ENDBRANCH  24  25
TORSDOF 2
ENDMDL
MODEL      143
REMARK 921   NORMALIZED FREE ENERGY PREDICTED BY IDOCK:   12.53 KCAL/MOL
REMARK 922        TOTAL FREE ENERGY PREDICTED BY IDOCK:   13.45 KCAL/MOL
REMARK 923 INTER-LIGAND FREE ENERGY PREDICTED BY IDOCK:   12.80 KCAL/MOL
REMARK 924 INTRA-LIGAND FREE ENERGY PREDICTED BY IDOCK:    0.65 KCAL/MOL
REMARK 927      BINDING AFFINITY PREDICTED BY RF-SCORE:    0.00 PKD
ROOT
HETATM    1  O   UNL     1     -10.183  13.665  67.717  1.00  0.00    -0.234 OA 
HETATM    2  C   UNL     1      -9.059  14.147  68.484  1.00  0.00    -0.176 C  
HETATM    3  H   UNL     1     -10.931  13.599  68.300  1.00  0.00     0.000 HD 
HETATM    4  C   UNL     1      -7.852  14.251  67.544  1.00  0.00    -0.209 C  
HETATM    5  C   UNL     1      -7.479  15.746  67.032  1.00  0.00    -0.242 C  
HETATM    6  C   UNL     1      -7.776  17.064  67.979  1.00  0.00    -0.180 C  
HETATM    7  O   UNL     1      -8.845  17.740  67.324  1.00  0.00    -0.233 OA 
HETATM    8  C   UNL     1      -6.812  18.208  68.719  1.00  0.00    -0.260 C  
HETATM    9  C   UNL     1      -7.515  19.407  69.360  1.00  0.00    -0.195 C  
HETATM   10  H   UNL     1      -9.016  18.499  67.870  1.00  0.00     0.000 HD 
HETATM   11  C   UNL     1      -8.634  18.799  70.184  1.00  0.00     1.880 A  
HETATM   12  C   UNL     1      -9.567  19.610  70.816  1.00  0.00     1.664 A  
HETATM   13  C   UNL     1     -10.774  19.057  71.285  1.00  0.00     3.243 A  
HETATM   14  C   UNL     1     -11.022  17.674  71.145  1.00  0.00     2.092 A  
HETATM   15  O   UNL     1     -12.303  17.228  71.317  1.00  0.00     2.090 OA 
HETATM   16  C   UNL     1     -10.022  16.866  70.623  1.00  0.00     2.095 A  
HETATM   17  H   UNL     1     -12.470  16.297  71.223  1.00  0.00     0.000 HD 
HETATM   18  C   UNL     1      -8.821  17.393  70.184  1.00  0.00     2.493 A  
HETATM   19  C   UNL     1      -8.073  16.383  69.299  1.00  0.00    -0.121 C  
HETATM   20  C   UNL     1      -6.429  15.870  69.573  1.00  0.00    -0.186 C  
HETATM   21  C   UNL     1      -9.337  15.499  69.078  1.00  0.00    -0.235 C  
HETATM   22  O   UNL     1     -10.153  15.534  70.277  1.00  0.00    -0.270 OA 
HETATM   23  C   UNL     1      -5.138  16.742  68.677  1.00  0.00    -0.122 C  
HETATM   24  N   UNL     1      -5.421  18.177  68.351  1.00  0.00    -0.161 NA 
ENDROOT
BRANCH  24  25
HETATM   25  C   UNL     1      -5.304  18.824  67.046  1.00  0.00    -0.134 C  
BRANCH  25  26
HETATM   26  C   UNL     1      -6.582  19.400  66.445  1.00  0.00    -0.201 C  
HETATM   27  C   UNL     1      -6.606  20.974  66.491  1.00  0.00    -0.316 C  
HETATM   28  C   UNL     1      -7.544  20.910  65.272  1.00  0.00     0.651 C  
HETATM   29  C   UNL     1      -6.811  19.592  64.904  1.00  0.00     0.065 C  
ENDBRANCH  25  26
ENDBRANCH  24  25
TORSDOF 2
ENDMDL
MODEL      144
REMARK 921   NORMALIZED FREE ENERGY PREDICTED BY IDOCK:   13.63 KCAL/MOL
REMARK 922        TOTAL FREE ENERGY PREDICTED BY IDOCK:   14.69 KCAL/MOL
REMARK 923 INTER-LIGAND FREE ENERGY PREDICTED BY IDOCK:    7.45 KCAL/MOL
REMARK 924 INTRA-LIGAND FREE ENERGY PREDICTED BY IDOCK:    7.24 KCAL/MOL
REMARK 927      BINDING AFFINITY PREDICTED BY RF-SCORE:    0.00 PKD
ROOT
HETATM    1  O   UNL     1      -6.823  20.452  71.103  1.00  0.00    -0.283 OA 
HETATM    2  C   UNL     1      -7.370  20.287  69.778  1.00  0.00     0.385 C  
HETATM    3  H   UNL     1      -7.544  20.587  71.706  1.00  0.00     0.000 HD 
HETATM    4  C   UNL     1      -6.206  20.071  68.805  1.00  0.00    -0.322 C  
HETATM    5  C   UNL     1      -5.955  18.539  68.328  1.00  0.00    -0.197 C  
HETATM    6  C   UNL     1      -7.210  17.475  68.204  1.00  0.00    -0.216 C  
HETATM    7  O   UNL     1      -7.006  16.557  69.274  1.00  0.00    -0.215 OA 
HETATM    8  C   UNL     1      -7.917  16.650  66.937  1.00  0.00    -0.220 C  
HETATM    9  C   UNL     1      -8.959  15.586  67.289  1.00  0.00    -0.216 C  
HETATM   10  H   UNL     1      -7.729  15.944  69.202  1.00  0.00     0.000 HD 
HETATM   11  C   UNL     1      -9.883  16.267  68.281  1.00  0.00    -0.227 A  
HETATM   12  C   UNL     1     -10.889  15.551  68.917  1.00  0.00    -0.254 A  
HETATM   13  C   UNL     1     -11.511  16.083  70.062  1.00  0.00    -0.334 A  
HETATM   14  C   UNL     1     -11.140  17.357  70.544  1.00  0.00     1.348 A  
HETATM   15  O   UNL     1     -11.524  17.705  71.810  1.00  0.00     0.726 OA 
HETATM   16  C   UNL     1     -10.222  18.103  69.819  1.00  0.00     0.643 A  
HETATM   17  H   UNL     1     -11.274  18.562  72.135  1.00  0.00     0.000 HD 
HETATM   18  C   UNL     1      -9.623  17.604  68.677  1.00  0.00    -0.307 A  
HETATM   19  C   UNL     1      -8.381  18.431  68.306  1.00  0.00    -0.321 C  
HETATM   20  C   UNL     1      -8.118  19.153  66.740  1.00  0.00    -0.285 C  
HETATM   21  C   UNL     1      -8.296  19.104  69.708  1.00  0.00     0.701 C  
HETATM   22  O   UNL     1      -9.638  19.288  70.227  1.00  0.00     0.714 OA 
HETATM   23  C   UNL     1      -7.141  18.216  65.559  1.00  0.00     0.001 C  
HETATM   24  N   UNL     1      -7.216  16.725  65.682  1.00  0.00     0.540 NA 
ENDROOT
BRANCH  24  25
HETATM   25  C   UNL     1      -6.097  15.788  65.756  1.00  0.00     5.131 C  
BRANCH  25  26
HETATM   26  C   UNL     1      -5.767  15.214  67.130  1.00  0.00     0.606 C  
HETATM   27  C   UNL     1      -7.051  14.718  67.894  1.00  0.00    -0.171 C  
HETATM   28  C   UNL     1      -6.126  13.743  68.642  1.00  0.00    -0.088 C  
HETATM   29  C   UNL     1      -5.248  13.752  67.362  1.00  0.00     0.312 C  
ENDBRANCH  25  26
ENDBRANCH  24  25
TORSDOF 2
ENDMDL
MODEL      145
REMARK 921   NORMALIZED FREE ENERGY PREDICTED BY IDOCK:   16.05 KCAL/MOL
REMARK 922        TOTAL FREE ENERGY PREDICTED BY IDOCK:   17.38 KCAL/MOL
REMARK 923 INTER-LIGAND FREE ENERGY PREDICTED BY IDOCK:   10.89 KCAL/MOL
REMARK 924 INTRA-LIGAND FREE ENERGY PREDICTED BY IDOCK:    6.48 KCAL/MOL
REMARK 927      BINDING AFFINITY PREDICTED BY RF-SCORE:    0.00 PKD
ROOT
HETATM    1  O   UNL     1     -10.595  13.057  70.820  1.00  0.00     2.117 OA 
HETATM    2  C   UNL     1     -10.563  12.731  69.415  1.00  0.00     0.290 C  
HETATM    3  H   UNL     1      -9.725  12.918  71.176  1.00  0.00     0.000 HD 
HETATM    4  C   UNL     1     -11.967  12.953  68.842  1.00  0.00    -0.291 C  
HETATM    5  C   UNL     1     -12.177  14.318  67.988  1.00  0.00    -0.168 C  
HETATM    6  C   UNL     1     -10.932  14.981  67.132  1.00  0.00    -0.329 C  
HETATM    7  O   UNL     1     -10.603  16.171  67.843  1.00  0.00    -0.290 OA 
HETATM    8  C   UNL     1     -10.646  15.249  65.509  1.00  0.00    -0.373 C  
HETATM    9  C   UNL     1      -9.420  16.089  65.144  1.00  0.00     0.699 C  
HETATM   10  H   UNL     1      -9.887  16.552  67.351  1.00  0.00     0.000 HD 
HETATM   11  C   UNL     1      -8.290  15.494  65.963  1.00  0.00     0.477 A  
HETATM   12  C   UNL     1      -7.037  16.092  65.977  1.00  0.00     1.762 A  
HETATM   13  C   UNL     1      -6.107  15.749  66.977  1.00  0.00     0.268 A  
HETATM   14  C   UNL     1      -6.434  14.774  67.945  1.00  0.00    -0.162 A  
HETATM   15  O   UNL     1      -5.655  14.692  69.066  1.00  0.00    -0.087 OA 
HETATM   16  C   UNL     1      -7.644  14.104  67.835  1.00  0.00    -0.158 A  
HETATM   17  H   UNL     1      -5.875  14.036  69.718  1.00  0.00     0.000 HD 
HETATM   18  C   UNL     1      -8.554  14.411  66.840  1.00  0.00    -0.191 A  
HETATM   19  C   UNL     1      -9.941  13.836  67.173  1.00  0.00    -0.243 C  
HETATM   20  C   UNL     1     -10.858  12.810  66.101  1.00  0.00    -0.303 C  
HETATM   21  C   UNL     1      -9.586  13.597  68.670  1.00  0.00    -0.099 C  
HETATM   22  O   UNL     1      -8.183  13.243  68.773  1.00  0.00    -0.057 OA 
HETATM   23  C   UNL     1     -12.074  13.606  65.045  1.00  0.00    -0.392 C  
HETATM   24  N   UNL     1     -11.766  15.015  64.637  1.00  0.00    -0.414 NA 
ENDROOT
BRANCH  24  25
HETATM   25  C   UNL     1     -12.647  16.176  64.743  1.00  0.00     1.550 C  
BRANCH  25  26
HETATM   26  C   UNL     1     -11.979  17.532  64.944  1.00  0.00     3.580 C  
HETATM   27  C   UNL     1     -11.824  17.901  66.467  1.00  0.00     2.859 C  
HETATM   28  C   UNL     1     -10.625  18.769  66.047  1.00  0.00    -0.442 C  
HETATM   29  C   UNL     1     -10.428  17.757  64.886  1.00  0.00     1.291 C  
ENDBRANCH  25  26
ENDBRANCH  24  25
TORSDOF 2
ENDMDL
MODEL      146
REMARK 921   NORMALIZED FREE ENERGY PREDICTED BY IDOCK:   16.14 KCAL/MOL
REMARK 922        TOTAL FREE ENERGY PREDICTED BY IDOCK:   17.48 KCAL/MOL
REMARK 923 INTER-LIGAND FREE ENERGY PREDICTED BY IDOCK:   15.62 KCAL/MOL
REMARK 924 INTRA-LIGAND FREE ENERGY PREDICTED BY IDOCK:    1.86 KCAL/MOL
REMARK 927      BINDING AFFINITY PREDICTED BY RF-SCORE:    0.00 PKD
ROOT
HETATM    1  O   UNL     1      -8.111  13.778  65.361  1.00  0.00     2.590 OA 
HETATM    2  C   UNL     1      -7.543  15.084  65.595  1.00  0.00     5.028 C  
HETATM    3  H   UNL     1      -7.483  13.126  65.651  1.00  0.00     0.000 HD 
HETATM    4  C   UNL     1      -8.555  16.135  65.125  1.00  0.00     2.740 C  
HETATM    5  C   UNL     1      -9.410  16.869  66.294  1.00  0.00    -0.292 C  
HETATM    6  C   UNL     1      -8.764  17.105  67.794  1.00  0.00    -0.220 C  
HETATM    7  O   UNL     1      -9.484  16.213  68.638  1.00  0.00    -0.210 OA 
HETATM    8  C   UNL     1      -8.359  18.455  68.688  1.00  0.00    -0.296 C  
HETATM    9  C   UNL     1      -7.958  18.233  70.148  1.00  0.00     2.104 C  
HETATM   10  H   UNL     1      -9.112  16.349  69.501  1.00  0.00     0.000 HD 
HETATM   11  C   UNL     1      -6.951  17.099  70.102  1.00  0.00     1.030 A  
HETATM   12  C   UNL     1      -6.459  16.541  71.274  1.00  0.00     2.370 A  
HETATM   13  C   UNL     1      -5.805  15.295  71.238  1.00  0.00     0.292 A  
HETATM   14  C   UNL     1      -5.617  14.629  70.007  1.00  0.00    -0.113 A  
HETATM   15  O   UNL     1      -5.270  13.306  70.036  1.00  0.00    -0.084 OA 
HETATM   16  C   UNL     1      -6.007  15.265  68.837  1.00  0.00    -0.093 A  
HETATM   17  H   UNL     1      -5.144  12.857  69.208  1.00  0.00     0.000 HD 
HETATM   18  C   UNL     1      -6.626  16.501  68.857  1.00  0.00    -0.173 A  
HETATM   19  C   UNL     1      -7.309  16.791  67.510  1.00  0.00    -0.176 C  
HETATM   20  C   UNL     1      -7.031  18.227  66.561  1.00  0.00    -0.250 C  
HETATM   21  C   UNL     1      -7.248  15.303  67.053  1.00  0.00     0.024 C  
HETATM   22  O   UNL     1      -6.039  14.697  67.577  1.00  0.00    -0.323 OA 
HETATM   23  C   UNL     1      -8.177  19.592  66.784  1.00  0.00    -0.304 C  
HETATM   24  N   UNL     1      -8.796  19.713  68.143  1.00  0.00    -0.322 NA 
ENDROOT
BRANCH  24  25
HETATM   25  C   UNL     1     -10.217  19.849  68.456  1.00  0.00    -0.409 C  
BRANCH  25  26
HETATM   26  C   UNL     1     -11.192  19.759  67.286  1.00  0.00     0.030 C  
HETATM   27  C   UNL     1     -10.674  20.531  66.016  1.00  0.00     0.327 C  
HETATM   28  C   UNL     1     -11.526  19.558  65.182  1.00  0.00     1.637 C  
HETATM   29  C   UNL     1     -11.280  18.528  66.317  1.00  0.00     0.711 C  
ENDBRANCH  25  26
ENDBRANCH  24  25
TORSDOF 2
ENDMDL
MODEL      147
REMARK 921   NORMALIZED FREE ENERGY PREDICTED BY IDOCK:   17.66 KCAL/MOL
REMARK 922        TOTAL FREE ENERGY PREDICTED BY IDOCK:   19.18 KCAL/MOL
REMARK 923 INTER-LIGAND FREE ENERGY PREDICTED BY IDOCK:    3.49 KCAL/MOL
REMARK 924 INTRA-LIGAND FREE ENERGY PREDICTED BY IDOCK:   15.69 KCAL/MOL
REMARK 927      BINDING AFFINITY PREDICTED BY RF-SCORE:    0.00 PKD
ROOT
HETATM    1  O   UNL     1     -12.265  17.169  70.669  1.00  0.00     1.535 OA 
HETATM    2  C   UNL     1     -10.870  16.801  70.618  1.00  0.00     0.393 C  
HETATM    3  H   UNL     1     -12.343  18.072  70.384  1.00  0.00     0.000 HD 
HETATM    4  C   UNL     1     -10.744  15.344  71.077  1.00  0.00    -0.081 C  
HETATM    5  C   UNL     1     -10.541  14.244  69.901  1.00  0.00     0.211 C  
HETATM    6  C   UNL     1      -9.753  14.634  68.505  1.00  0.00    -0.225 C  
HETATM    7  O   UNL     1     -10.773  14.647  67.511  1.00  0.00    -0.261 OA 
HETATM    8  C   UNL     1      -8.334  14.126  67.787  1.00  0.00    -0.174 C  
HETATM    9  C   UNL     1      -8.058  14.610  66.362  1.00  0.00     0.708 C  
HETATM   10  H   UNL     1     -10.319  14.871  66.707  1.00  0.00     0.000 HD 
HETATM   11  C   UNL     1      -8.323  16.103  66.405  1.00  0.00    -0.357 A  
HETATM   12  C   UNL     1      -8.290  16.861  65.243  1.00  0.00     2.152 A  
HETATM   13  C   UNL     1      -8.858  18.150  65.229  1.00  0.00     1.984 A  
HETATM   14  C   UNL     1      -9.428  18.686  66.404  1.00  0.00    -0.311 A  
HETATM   15  O   UNL     1     -10.236  19.783  66.287  1.00  0.00    -0.432 OA 
HETATM   16  C   UNL     1      -9.337  17.958  67.582  1.00  0.00    -0.258 A  
HETATM   17  H   UNL     1     -10.620  20.144  67.077  1.00  0.00     0.000 HD 
HETATM   18  C   UNL     1      -8.757  16.703  67.615  1.00  0.00    -0.206 A  
HETATM   19  C   UNL     1      -9.139  15.959  68.906  1.00  0.00    -0.233 C  
HETATM   20  C   UNL     1      -7.985  15.258  70.009  1.00  0.00     0.269 C  
HETATM   21  C   UNL     1     -10.317  16.926  69.225  1.00  0.00    -0.298 C  
HETATM   22  O   UNL     1      -9.970  18.261  68.773  1.00  0.00    -0.363 OA 
HETATM   23  C   UNL     1      -7.602  13.516  69.799  1.00  0.00     0.900 C  
HETATM   24  N   UNL     1      -7.704  12.987  68.400  1.00  0.00    -0.135 NA 
ENDROOT
BRANCH  24  25
HETATM   25  C   UNL     1      -8.431  11.800  67.957  1.00  0.00    -0.157 C  
BRANCH  25  26
HETATM   26  C   UNL     1      -9.929  11.762  68.242  1.00  0.00    -0.200 C  
HETATM   27  C   UNL     1     -10.531  13.200  68.463  1.00  0.00    -0.262 C  
HETATM   28  C   UNL     1     -11.872  12.620  67.981  1.00  0.00    -0.376 C  
HETATM   29  C   UNL     1     -11.026  11.638  67.127  1.00  0.00    -0.330 C  
ENDBRANCH  25  26
ENDBRANCH  24  25
TORSDOF 2
ENDMDL
MODEL      148
REMARK 921   NORMALIZED FREE ENERGY PREDICTED BY IDOCK:   18.85 KCAL/MOL
REMARK 922        TOTAL FREE ENERGY PREDICTED BY IDOCK:   20.51 KCAL/MOL
REMARK 923 INTER-LIGAND FREE ENERGY PREDICTED BY IDOCK:   20.64 KCAL/MOL
REMARK 924 INTRA-LIGAND FREE ENERGY PREDICTED BY IDOCK:   -0.13 KCAL/MOL
REMARK 927      BINDING AFFINITY PREDICTED BY RF-SCORE:    0.00 PKD
ROOT
HETATM    1  O   UNL     1      -5.531  17.679  69.112  1.00  0.00    -0.178 OA 
HETATM    2  C   UNL     1      -6.502  16.860  68.427  1.00  0.00    -0.149 C  
HETATM    3  H   UNL     1      -5.613  18.568  68.787  1.00  0.00     0.000 HD 
HETATM    4  C   UNL     1      -6.369  15.425  68.951  1.00  0.00    -0.106 C  
HETATM    5  C   UNL     1      -7.495  14.953  70.021  1.00  0.00     0.126 C  
HETATM    6  C   UNL     1      -9.026  15.563  69.962  1.00  0.00     0.334 C  
HETATM    7  O   UNL     1      -9.123  16.396  71.114  1.00  0.00     3.826 OA 
HETATM    8  C   UNL     1     -10.532  14.906  69.667  1.00  0.00    -0.166 C  
HETATM    9  C   UNL     1     -11.747  15.804  69.907  1.00  0.00    -0.365 C  
HETATM   10  H   UNL     1     -10.005  16.747  71.080  1.00  0.00     0.000 HD 
HETATM   11  C   UNL     1     -11.406  17.107  69.208  1.00  0.00     0.643 A  
HETATM   12  C   UNL     1     -12.240  18.211  69.324  1.00  0.00     7.182 A  
HETATM   13  C   UNL     1     -11.765  19.488  68.969  1.00  0.00     4.256 A  
HETATM   14  C   UNL     1     -10.455  19.643  68.464  1.00  0.00    -0.215 A  
HETATM   15  O   UNL     1      -9.923  20.903  68.428  1.00  0.00     0.147 OA 
HETATM   16  C   UNL     1      -9.687  18.510  68.242  1.00  0.00    -0.356 A  
HETATM   17  H   UNL     1      -9.042  21.007  68.089  1.00  0.00     0.000 HD 
HETATM   18  C   UNL     1     -10.152  17.247  68.560  1.00  0.00    -0.341 A  
HETATM   19  C   UNL     1      -8.994  16.235  68.605  1.00  0.00    -0.232 C  
HETATM   20  C   UNL     1      -8.965  14.742  67.703  1.00  0.00    -0.183 C  
HETATM   21  C   UNL     1      -7.904  17.344  68.674  1.00  0.00    -0.274 C  
HETATM   22  O   UNL     1      -8.347  18.492  67.904  1.00  0.00    -0.255 OA 
HETATM   23  C   UNL     1      -9.532  13.262  68.548  1.00  0.00    -0.113 C  
HETATM   24  N   UNL     1     -10.578  13.469  69.602  1.00  0.00     0.287 NA 
ENDROOT
BRANCH  24  25
HETATM   25  C   UNL     1     -10.556  12.972  70.975  1.00  0.00     4.849 C  
BRANCH  25  26
HETATM   26  C   UNL     1     -11.874  12.457  71.544  1.00  0.00     1.390 C  
HETATM   27  C   UNL     1     -12.863  13.625  71.912  1.00  0.00    -0.381 C  
HETATM   28  C   UNL     1     -14.003  12.617  71.685  1.00  0.00     0.647 C  
HETATM   29  C   UNL     1     -13.060  11.934  70.659  1.00  0.00     0.262 C  
ENDBRANCH  25  26
ENDBRANCH  24  25
TORSDOF 2
ENDMDL
MODEL      149
REMARK 921   NORMALIZED FREE ENERGY PREDICTED BY IDOCK:   19.71 KCAL/MOL
REMARK 922        TOTAL FREE ENERGY PREDICTED BY IDOCK:   21.47 KCAL/MOL
REMARK 923 INTER-LIGAND FREE ENERGY PREDICTED BY IDOCK:   20.09 KCAL/MOL
REMARK 924 INTRA-LIGAND FREE ENERGY PREDICTED BY IDOCK:    1.38 KCAL/MOL
REMARK 927      BINDING AFFINITY PREDICTED BY RF-SCORE:    0.00 PKD
ROOT
HETATM    1  O   UNL     1     -12.016  17.163  70.341  1.00  0.00     0.949 OA 
HETATM    2  C   UNL     1     -10.703  16.630  70.068  1.00  0.00    -0.153 C  
HETATM    3  H   UNL     1     -12.009  17.529  71.218  1.00  0.00     0.000 HD 
HETATM    4  C   UNL     1     -10.714  16.040  68.653  1.00  0.00    -0.281 C  
HETATM    5  C   UNL     1     -10.017  16.946  67.500  1.00  0.00    -0.268 C  
HETATM    6  C   UNL     1      -8.754  17.946  67.858  1.00  0.00    -0.252 C  
HETATM    7  O   UNL     1      -9.294  19.259  67.741  1.00  0.00    -0.299 OA 
HETATM    8  C   UNL     1      -7.148  18.002  67.406  1.00  0.00    -0.192 C  
HETATM    9  C   UNL     1      -6.347  19.238  67.820  1.00  0.00    -0.226 C  
HETATM   10  H   UNL     1      -8.567  19.834  67.947  1.00  0.00     0.000 HD 
HETATM   11  C   UNL     1      -6.665  19.426  69.292  1.00  0.00    -0.370 A  
HETATM   12  C   UNL     1      -6.202  20.540  69.979  1.00  0.00    -0.169 A  
HETATM   13  C   UNL     1      -6.767  20.882  71.222  1.00  0.00     1.694 A  
HETATM   14  C   UNL     1      -7.778  20.075  71.788  1.00  0.00     1.988 A  
HETATM   15  O   UNL     1      -8.514  20.592  72.819  1.00  0.00     1.108 OA 
HETATM   16  C   UNL     1      -8.135  18.901  71.141  1.00  0.00     5.005 A  
HETATM   17  H   UNL     1      -9.195  20.049  73.199  1.00  0.00     0.000 HD 
HETATM   18  C   UNL     1      -7.568  18.539  69.933  1.00  0.00     0.886 A  
HETATM   19  C   UNL     1      -8.402  17.446  69.244  1.00  0.00     0.200 C  
HETATM   20  C   UNL     1      -7.756  15.923  68.692  1.00  0.00    -0.161 C  
HETATM   21  C   UNL     1      -9.647  17.698  70.146  1.00  0.00     1.769 C  
HETATM   22  O   UNL     1      -9.201  18.085  71.471  1.00  0.00     7.514 OA 
HETATM   23  C   UNL     1      -7.254  15.822  66.970  1.00  0.00    -0.173 C  
HETATM   24  N   UNL     1      -6.770  17.098  66.352  1.00  0.00    -0.246 NA 
ENDROOT
BRANCH  24  25
HETATM   25  C   UNL     1      -7.215  17.692  65.093  1.00  0.00     1.683 C  
BRANCH  25  26
HETATM   26  C   UNL     1      -6.737  19.109  64.792  1.00  0.00     0.235 C  
HETATM   27  C   UNL     1      -5.309  19.397  65.390  1.00  0.00    -0.185 C  
HETATM   28  C   UNL     1      -5.145  20.441  64.271  1.00  0.00    -0.207 C  
HETATM   29  C   UNL     1      -6.089  19.540  63.430  1.00  0.00     0.244 C  
ENDBRANCH  25  26
ENDBRANCH  24  25
TORSDOF 2
ENDMDL
MODEL      150
REMARK 921   NORMALIZED FREE ENERGY PREDICTED BY IDOCK:   21.50 KCAL/MOL
REMARK 922        TOTAL FREE ENERGY PREDICTED BY IDOCK:   23.47 KCAL/MOL
REMARK 923 INTER-LIGAND FREE ENERGY PREDICTED BY IDOCK:    4.81 KCAL/MOL
REMARK 924 INTRA-LIGAND FREE ENERGY PREDICTED BY IDOCK:   18.67 KCAL/MOL
REMARK 927      BINDING AFFINITY PREDICTED BY RF-SCORE:    0.00 PKD
ROOT
HETATM    1  O   UNL     1     -11.708  16.398  69.499  1.00  0.00    -0.257 OA 
HETATM    2  C   UNL     1     -11.083  15.130  69.790  1.00  0.00    -0.278 C  
HETATM    3  H   UNL     1     -11.347  17.048  70.092  1.00  0.00     0.000 HD 
HETATM    4  C   UNL     1     -11.665  14.082  68.835  1.00  0.00    -0.375 C  
HETATM    5  C   UNL     1     -10.726  13.668  67.577  1.00  0.00    -0.266 C  
HETATM    6  C   UNL     1      -9.081  13.698  67.704  1.00  0.00    -0.207 C  
HETATM    7  O   UNL     1      -8.680  14.794  66.888  1.00  0.00    -0.224 OA 
HETATM    8  C   UNL     1      -7.886  12.534  67.635  1.00  0.00    -0.162 C  
HETATM    9  C   UNL     1      -6.436  13.021  67.603  1.00  0.00    -0.162 C  
HETATM   10  H   UNL     1      -7.733  14.811  66.961  1.00  0.00     0.000 HD 
HETATM   11  C   UNL     1      -6.350  14.045  68.720  1.00  0.00    -0.090 A  
HETATM   12  C   UNL     1      -5.196  14.793  68.905  1.00  0.00    -0.088 A  
HETATM   13  C   UNL     1      -5.233  15.954  69.701  1.00  0.00    -0.112 A  
HETATM   14  C   UNL     1      -6.433  16.339  70.339  1.00  0.00     0.466 A  
HETATM   15  O   UNL     1      -6.521  17.611  70.834  1.00  0.00     1.158 OA 
HETATM   16  C   UNL     1      -7.539  15.507  70.238  1.00  0.00     0.621 A  
HETATM   17  H   UNL     1      -7.328  17.870  71.263  1.00  0.00     0.000 HD 
HETATM   18  C   UNL     1      -7.507  14.350  69.482  1.00  0.00     0.033 A  
HETATM   19  C   UNL     1      -8.932  13.840  69.204  1.00  0.00     0.428 C  
HETATM   20  C   UNL     1      -9.479  12.223  69.561  1.00  0.00     1.365 C  
HETATM   21  C   UNL     1      -9.593  15.194  69.599  1.00  0.00    -0.116 C  
HETATM   22  O   UNL     1      -8.820  15.805  70.664  1.00  0.00     1.306 OA 
HETATM   23  C   UNL     1      -9.406  11.020  68.229  1.00  0.00    -0.172 C  
HETATM   24  N   UNL     1      -8.319  11.227  67.218  1.00  0.00    -0.140 NA 
ENDROOT
BRANCH  24  25
HETATM   25  C   UNL     1      -8.462  11.261  65.765  1.00  0.00    -0.018 C  
BRANCH  25  26
HETATM   26  C   UNL     1      -8.970  12.563  65.152  1.00  0.00     0.892 C  
HETATM   27  C   UNL     1     -10.405  12.947  65.673  1.00  0.00    -0.295 C  
HETATM   28  C   UNL     1     -10.029  14.409  65.375  1.00  0.00    -0.344 C  
HETATM   29  C   UNL     1      -8.565  13.987  65.671  1.00  0.00     1.845 C  
ENDBRANCH  25  26
ENDBRANCH  24  25
TORSDOF 2
ENDMDL
MODEL      151
REMARK 921   NORMALIZED FREE ENERGY PREDICTED BY IDOCK:   22.65 KCAL/MOL
REMARK 922        TOTAL FREE ENERGY PREDICTED BY IDOCK:   24.76 KCAL/MOL
REMARK 923 INTER-LIGAND FREE ENERGY PREDICTED BY IDOCK:   21.57 KCAL/MOL
REMARK 924 INTRA-LIGAND FREE ENERGY PREDICTED BY IDOCK:    3.18 KCAL/MOL
REMARK 927      BINDING AFFINITY PREDICTED BY RF-SCORE:    0.00 PKD
ROOT
HETATM    1  O   UNL     1     -11.815   2.837  66.182  1.00  0.00     6.980 OA 
HETATM    2  C   UNL     1     -11.427   3.986  65.398  1.00  0.00     1.877 C  
HETATM    3  H   UNL     1     -11.400   2.069  65.805  1.00  0.00     0.000 HD 
HETATM    4  C   UNL     1     -12.096   5.224  66.005  1.00  0.00     3.286 C  
HETATM    5  C   UNL     1     -11.142   6.173  66.912  1.00  0.00    -0.301 C  
HETATM    6  C   UNL     1      -9.529   6.305  66.592  1.00  0.00    -0.152 C  
HETATM    7  O   UNL     1      -8.894   5.630  67.674  1.00  0.00    -0.108 OA 
HETATM    8  C   UNL     1      -8.537   7.556  66.104  1.00  0.00    -0.149 C  
HETATM    9  C   UNL     1      -7.029   7.296  66.113  1.00  0.00    -0.065 C  
HETATM   10  H   UNL     1      -7.965   5.706  67.490  1.00  0.00     0.000 HD 
HETATM   11  C   UNL     1      -6.864   5.961  65.412  1.00  0.00    -0.055 A  
HETATM   12  C   UNL     1      -5.622   5.345  65.345  1.00  0.00    -0.013 A  
HETATM   13  C   UNL     1      -5.532   3.981  65.005  1.00  0.00    -0.013 A  
HETATM   14  C   UNL     1      -6.700   3.249  64.698  1.00  0.00    -0.040 A  
HETATM   15  O   UNL     1      -6.619   1.883  64.682  1.00  0.00    -0.022 OA 
HETATM   16  C   UNL     1      -7.915   3.918  64.651  1.00  0.00    -0.086 A  
HETATM   17  H   UNL     1      -7.404   1.390  64.476  1.00  0.00     0.000 HD 
HETATM   18  C   UNL     1      -8.012   5.263  64.956  1.00  0.00    -0.103 A  
HETATM   19  C   UNL     1      -9.475   5.657  65.224  1.00  0.00     0.251 C  
HETATM   20  C   UNL     1     -10.303   6.959  64.412  1.00  0.00     6.399 C  
HETATM   21  C   UNL     1      -9.936   4.180  65.404  1.00  0.00    -0.205 C  
HETATM   22  O   UNL     1      -9.159   3.330  64.522  1.00  0.00    -0.121 OA 
HETATM   23  C   UNL     1     -10.322   8.556  65.231  1.00  0.00     2.540 C  
HETATM   24  N   UNL     1      -9.142   8.861  66.102  1.00  0.00    -0.188 NA 
ENDROOT
BRANCH  24  25
HETATM   25  C   UNL     1      -9.164   9.329  67.486  1.00  0.00    -0.124 C  
BRANCH  25  26
HETATM   26  C   UNL     1     -10.093   8.596  68.448  1.00  0.00    -0.217 C  
HETATM   27  C   UNL     1     -10.875   9.584  69.392  1.00  0.00    -0.226 C  
HETATM   28  C   UNL     1     -11.964   8.500  69.483  1.00  0.00     1.249 C  
HETATM   29  C   UNL     1     -11.522   8.079  68.056  1.00  0.00     1.182 C  
ENDBRANCH  25  26
ENDBRANCH  24  25
TORSDOF 2
ENDMDL
MODEL      152
REMARK 921   NORMALIZED FREE ENERGY PREDICTED BY IDOCK:   27.56 KCAL/MOL
REMARK 922        TOTAL FREE ENERGY PREDICTED BY IDOCK:   30.24 KCAL/MOL
REMARK 923 INTER-LIGAND FREE ENERGY PREDICTED BY IDOCK:   12.04 KCAL/MOL
REMARK 924 INTRA-LIGAND FREE ENERGY PREDICTED BY IDOCK:   18.20 KCAL/MOL
REMARK 927      BINDING AFFINITY PREDICTED BY RF-SCORE:    0.00 PKD
ROOT
HETATM    1  O   UNL     1     -11.760  16.358  69.580  1.00  0.00    -0.285 OA 
HETATM    2  C   UNL     1     -11.505  15.132  70.297  1.00  0.00    -0.282 C  
HETATM    3  H   UNL     1     -11.146  17.015  69.890  1.00  0.00     0.000 HD 
HETATM    4  C   UNL     1     -12.495  14.074  69.798  1.00  0.00    -0.255 C  
HETATM    5  C   UNL     1     -11.899  12.980  68.757  1.00  0.00    -0.355 C  
HETATM    6  C   UNL     1     -10.318  12.514  68.831  1.00  0.00    -0.038 C  
HETATM    7  O   UNL     1      -9.724  13.080  67.666  1.00  0.00    -0.202 OA 
HETATM    8  C   UNL     1      -9.541  11.074  69.165  1.00  0.00    -0.061 C  
HETATM    9  C   UNL     1      -8.030  11.024  68.930  1.00  0.00    -0.138 C  
HETATM   10  H   UNL     1      -8.814  12.812  67.709  1.00  0.00     0.000 HD 
HETATM   11  C   UNL     1      -7.495  12.276  69.598  1.00  0.00     0.719 A  
HETATM   12  C   UNL     1      -6.157  12.625  69.478  1.00  0.00    -0.119 A  
HETATM   13  C   UNL     1      -5.741  13.932  69.800  1.00  0.00    -0.110 A  
HETATM   14  C   UNL     1      -6.676  14.876  70.279  1.00  0.00    -0.046 A  
HETATM   15  O   UNL     1      -6.316  16.195  70.282  1.00  0.00    -0.071 OA 
HETATM   16  C   UNL     1      -7.982  14.465  70.508  1.00  0.00     1.817 A  
HETATM   17  H   UNL     1      -6.945  16.830  70.604  1.00  0.00     0.000 HD 
HETATM   18  C   UNL     1      -8.396  13.177  70.221  1.00  0.00     4.025 A  
HETATM   19  C   UNL     1      -9.931  13.096  70.175  1.00  0.00     2.813 C  
HETATM   20  C   UNL     1     -10.880  11.964  71.104  1.00  0.00     3.989 C  
HETATM   21  C   UNL     1     -10.103  14.640  70.067  1.00  0.00     0.366 C  
HETATM   22  O   UNL     1      -9.047  15.288  70.822  1.00  0.00     1.058 OA 
HETATM   23  C   UNL     1     -11.346  10.429  70.296  1.00  0.00    -0.328 C  
HETATM   24  N   UNL     1     -10.394   9.919  69.258  1.00  0.00    -0.205 NA 
ENDROOT
BRANCH  24  25
HETATM   25  C   UNL     1     -10.715   9.507  67.893  1.00  0.00    -0.228 C  
BRANCH  25  26
HETATM   26  C   UNL     1     -10.966  10.618  66.878  1.00  0.00    -0.228 C  
HETATM   27  C   UNL     1     -12.198  11.516  67.269  1.00  0.00     0.843 C  
HETATM   28  C   UNL     1     -11.522  12.644  66.470  1.00  0.00    -0.409 C  
HETATM   29  C   UNL     1     -10.176  11.974  66.857  1.00  0.00    -0.230 C  
ENDBRANCH  25  26
ENDBRANCH  24  25
TORSDOF 2
ENDMDL
MODEL      153
REMARK 921   NORMALIZED FREE ENERGY PREDICTED BY IDOCK:   27.94 KCAL/MOL
REMARK 922        TOTAL FREE ENERGY PREDICTED BY IDOCK:   30.66 KCAL/MOL
REMARK 923 INTER-LIGAND FREE ENERGY PREDICTED BY IDOCK:   30.04 KCAL/MOL
REMARK 924 INTRA-LIGAND FREE ENERGY PREDICTED BY IDOCK:    0.63 KCAL/MOL
REMARK 927      BINDING AFFINITY PREDICTED BY RF-SCORE:    0.00 PKD
ROOT
HETATM    1  O   UNL     1      -7.955  18.786  70.816  1.00  0.00     2.854 OA 
HETATM    2  C   UNL     1      -9.298  18.880  70.297  1.00  0.00     1.751 C  
HETATM    3  H   UNL     1      -7.996  18.877  71.761  1.00  0.00     0.000 HD 
HETATM    4  C   UNL     1      -9.231  18.734  68.773  1.00  0.00    -0.342 C  
HETATM    5  C   UNL     1      -9.660  17.285  68.179  1.00  0.00    -0.283 C  
HETATM    6  C   UNL     1     -10.787  16.356  68.947  1.00  0.00    -0.334 C  
HETATM    7  O   UNL     1     -10.045  15.263  69.481  1.00  0.00    -0.242 OA 
HETATM    8  C   UNL     1     -12.311  15.804  68.547  1.00  0.00     0.498 C  
HETATM    9  C   UNL     1     -12.953  14.780  69.487  1.00  0.00     0.477 C  
HETATM   10  H   UNL     1     -10.693  14.728  69.923  1.00  0.00     0.000 HD 
HETATM   11  C   UNL     1     -12.763  15.361  70.875  1.00  0.00    -0.520 A  
HETATM   12  C   UNL     1     -13.120  14.633  72.002  1.00  0.00    -0.418 A  
HETATM   13  C   UNL     1     -12.640  15.019  73.268  1.00  0.00    -0.600 A  
HETATM   14  C   UNL     1     -11.827  16.166  73.399  1.00  0.00    -0.285 A  
HETATM   15  O   UNL     1     -11.131  16.333  74.564  1.00  0.00     2.298 OA 
HETATM   16  C   UNL     1     -11.588  16.946  72.276  1.00  0.00     0.399 A  
HETATM   17  H   UNL     1     -10.583  17.104  74.652  1.00  0.00     0.000 HD 
HETATM   18  C   UNL     1     -12.076  16.593  71.032  1.00  0.00     0.881 A  
HETATM   19  C   UNL     1     -11.351  17.370  69.921  1.00  0.00     1.468 C  
HETATM   20  C   UNL     1     -12.161  18.313  68.697  1.00  0.00     4.620 C  
HETATM   21  C   UNL     1     -10.182  17.799  70.856  1.00  0.00     2.805 C  
HETATM   22  O   UNL     1     -10.698  18.000  72.197  1.00  0.00     2.143 OA 
HETATM   23  C   UNL     1     -12.493  17.507  67.127  1.00  0.00     4.688 C  
HETATM   24  N   UNL     1     -12.711  16.026  67.183  1.00  0.00     2.493 NA 
ENDROOT
BRANCH  24  25
HETATM   25  C   UNL     1     -12.054  15.006  66.369  1.00  0.00     0.155 C  
BRANCH  25  26
HETATM   26  C   UNL     1     -11.263  15.493  65.159  1.00  0.00    -0.322 C  
HETATM   27  C   UNL     1     -10.024  16.373  65.572  1.00  0.00    -0.175 C  
HETATM   28  C   UNL     1      -9.374  15.926  64.251  1.00  0.00     5.424 C  
HETATM   29  C   UNL     1     -10.201  14.621  64.403  1.00  0.00     0.603 C  
ENDBRANCH  25  26
ENDBRANCH  24  25
TORSDOF 2
ENDMDL
MODEL      154
REMARK 921   NORMALIZED FREE ENERGY PREDICTED BY IDOCK:   27.99 KCAL/MOL
REMARK 922        TOTAL FREE ENERGY PREDICTED BY IDOCK:   30.72 KCAL/MOL
REMARK 923 INTER-LIGAND FREE ENERGY PREDICTED BY IDOCK:   31.18 KCAL/MOL
REMARK 924 INTRA-LIGAND FREE ENERGY PREDICTED BY IDOCK:   -0.46 KCAL/MOL
REMARK 927      BINDING AFFINITY PREDICTED BY RF-SCORE:    0.00 PKD
ROOT
HETATM    1  O   UNL     1     -12.240  12.461  67.982  1.00  0.00    -0.356 OA 
HETATM    2  C   UNL     1     -12.199  13.732  68.666  1.00  0.00    -0.167 C  
HETATM    3  H   UNL     1     -13.004  12.455  67.417  1.00  0.00     0.000 HD 
HETATM    4  C   UNL     1     -10.968  13.742  69.579  1.00  0.00    -0.081 C  
HETATM    5  C   UNL     1      -9.689  14.581  69.036  1.00  0.00    -0.124 C  
HETATM    6  C   UNL     1      -9.893  15.911  68.081  1.00  0.00    -0.214 C  
HETATM    7  O   UNL     1      -9.429  15.503  66.797  1.00  0.00    -0.217 OA 
HETATM    8  C   UNL     1      -9.562  17.537  68.261  1.00  0.00    -0.299 C  
HETATM    9  C   UNL     1      -9.731  18.426  67.028  1.00  0.00    -0.316 C  
HETATM   10  H   UNL     1      -9.546  16.268  66.247  1.00  0.00     0.000 HD 
HETATM   11  C   UNL     1     -11.088  18.049  66.465  1.00  0.00     0.461 A  
HETATM   12  C   UNL     1     -11.524  18.577  65.257  1.00  0.00     2.069 A  
HETATM   13  C   UNL     1     -12.606  17.980  64.581  1.00  0.00     9.653 A  
HETATM   14  C   UNL     1     -13.269  16.869  65.146  1.00  0.00     7.637 A  
HETATM   15  O   UNL     1     -14.090  16.130  64.339  1.00  0.00     2.266 OA 
HETATM   16  C   UNL     1     -12.893  16.439  66.410  1.00  0.00     4.740 A  
HETATM   17  H   UNL     1     -14.537  15.382  64.719  1.00  0.00     0.000 HD 
HETATM   18  C   UNL     1     -11.851  17.034  67.097  1.00  0.00     1.654 A  
HETATM   19  C   UNL     1     -11.380  16.139  68.256  1.00  0.00    -0.316 C  
HETATM   20  C   UNL     1     -11.254  16.669  69.912  1.00  0.00    -0.030 C  
HETATM   21  C   UNL     1     -12.101  14.877  67.697  1.00  0.00    -0.020 C  
HETATM   22  O   UNL     1     -13.326  15.285  67.036  1.00  0.00     2.844 OA 
HETATM   23  C   UNL     1      -9.648  17.251  70.467  1.00  0.00     2.876 C  
HETATM   24  N   UNL     1      -8.783  17.885  69.420  1.00  0.00     0.335 NA 
ENDROOT
BRANCH  24  25
HETATM   25  C   UNL     1      -7.390  17.566  69.116  1.00  0.00    -0.128 C  
BRANCH  25  26
HETATM   26  C   UNL     1      -6.364  18.672  69.342  1.00  0.00    -0.284 C  
HETATM   27  C   UNL     1      -6.455  19.803  68.250  1.00  0.00    -0.291 C  
HETATM   28  C   UNL     1      -5.867  20.754  69.307  1.00  0.00    -0.353 C  
HETATM   29  C   UNL     1      -6.561  19.849  70.360  1.00  0.00    -0.160 C  
ENDBRANCH  25  26
ENDBRANCH  24  25
TORSDOF 2
ENDMDL
MODEL      155
REMARK 921   NORMALIZED FREE ENERGY PREDICTED BY IDOCK:   32.00 KCAL/MOL
REMARK 922        TOTAL FREE ENERGY PREDICTED BY IDOCK:   35.20 KCAL/MOL
REMARK 923 INTER-LIGAND FREE ENERGY PREDICTED BY IDOCK:   34.41 KCAL/MOL
REMARK 924 INTRA-LIGAND FREE ENERGY PREDICTED BY IDOCK:    0.78 KCAL/MOL
REMARK 927      BINDING AFFINITY PREDICTED BY RF-SCORE:    0.00 PKD
ROOT
HETATM    1  O   UNL     1      -5.794  17.998  69.849  1.00  0.00    -0.238 OA 
HETATM    2  C   UNL     1      -7.106  18.577  70.016  1.00  0.00     0.667 C  
HETATM    3  H   UNL     1      -5.643  17.398  70.570  1.00  0.00     0.000 HD 
HETATM    4  C   UNL     1      -7.349  19.546  68.853  1.00  0.00    -0.398 C  
HETATM    5  C   UNL     1      -8.311  19.000  67.664  1.00  0.00    -0.314 C  
HETATM    6  C   UNL     1      -9.526  17.931  67.983  1.00  0.00    -0.279 C  
HETATM    7  O   UNL     1      -9.090  16.710  67.393  1.00  0.00    -0.199 OA 
HETATM    8  C   UNL     1     -11.191  17.994  67.878  1.00  0.00     0.332 C  
HETATM    9  C   UNL     1     -11.956  16.685  68.088  1.00  0.00     0.818 C  
HETATM   10  H   UNL     1      -9.790  16.094  67.577  1.00  0.00     0.000 HD 
HETATM   11  C   UNL     1     -11.358  16.088  69.348  1.00  0.00    -0.355 A  
HETATM   12  C   UNL     1     -11.730  14.822  69.776  1.00  0.00    -0.354 A  
HETATM   13  C   UNL     1     -10.945  14.143  70.727  1.00  0.00     0.753 A  
HETATM   14  C   UNL     1      -9.799  14.763  71.273  1.00  0.00     2.486 A  
HETATM   15  O   UNL     1      -8.898  13.980  71.940  1.00  0.00     6.021 OA 
HETATM   16  C   UNL     1      -9.519  16.076  70.921  1.00  0.00     2.450 A  
HETATM   17  H   UNL     1      -8.127  14.397  72.307  1.00  0.00     0.000 HD 
HETATM   18  C   UNL     1     -10.299  16.763  70.008  1.00  0.00     0.163 A  
HETATM   19  C   UNL     1      -9.564  18.013  69.495  1.00  0.00     0.386 C  
HETATM   20  C   UNL     1     -10.228  19.625  69.538  1.00  0.00    -0.002 C  
HETATM   21  C   UNL     1      -8.178  17.523  70.010  1.00  0.00     2.071 C  
HETATM   22  O   UNL     1      -8.367  16.772  71.236  1.00  0.00     6.017 OA 
HETATM   23  C   UNL     1     -11.061  20.209  68.058  1.00  0.00     0.629 C  
HETATM   24  N   UNL     1     -11.726  19.158  67.222  1.00  0.00     1.016 NA 
ENDROOT
BRANCH  24  25
HETATM   25  C   UNL     1     -11.577  18.950  65.784  1.00  0.00     2.181 C  
BRANCH  25  26
HETATM   26  C   UNL     1     -10.364  19.591  65.117  1.00  0.00     0.746 C  
HETATM   27  C   UNL     1     -10.767  20.521  63.912  1.00  0.00     5.052 C  
HETATM   28  C   UNL     1      -9.465  21.294  64.184  1.00  0.00     3.695 C  
HETATM   29  C   UNL     1      -9.640  20.870  65.666  1.00  0.00     1.073 C  
ENDBRANCH  25  26
ENDBRANCH  24  25
TORSDOF 2
ENDMDL
MODEL      156
REMARK 921   NORMALIZED FREE ENERGY PREDICTED BY IDOCK:   40.44 KCAL/MOL
REMARK 922        TOTAL FREE ENERGY PREDICTED BY IDOCK:   44.62 KCAL/MOL
REMARK 923 INTER-LIGAND FREE ENERGY PREDICTED BY IDOCK:   45.06 KCAL/MOL
REMARK 924 INTRA-LIGAND FREE ENERGY PREDICTED BY IDOCK:   -0.43 KCAL/MOL
REMARK 927      BINDING AFFINITY PREDICTED BY RF-SCORE:    0.00 PKD
ROOT
HETATM    1  O   UNL     1     -12.526  13.549  73.470  1.00  0.00     0.593 OA 
HETATM    2  C   UNL     1     -11.582  12.588  72.950  1.00  0.00     7.412 C  
HETATM    3  H   UNL     1     -12.103  14.399  73.486  1.00  0.00     0.000 HD 
HETATM    4  C   UNL     1     -12.265  11.216  72.925  1.00  0.00     4.774 C  
HETATM    5  C   UNL     1     -12.788  10.709  71.475  1.00  0.00    -0.567 C  
HETATM    6  C   UNL     1     -12.009  11.155  70.091  1.00  0.00    -0.365 C  
HETATM    7  O   UNL     1     -12.908  12.054  69.448  1.00  0.00     0.490 OA 
HETATM    8  C   UNL     1     -11.166  10.329  68.910  1.00  0.00    -0.207 C  
HETATM    9  C   UNL     1     -10.759  11.114  67.661  1.00  0.00    -0.273 C  
HETATM   10  H   UNL     1     -12.459  12.311  68.651  1.00  0.00     0.000 HD 
HETATM   11  C   UNL     1     -10.139  12.392  68.196  1.00  0.00    -0.224 A  
HETATM   12  C   UNL     1      -9.763  13.411  67.332  1.00  0.00    -0.221 A  
HETATM   13  C   UNL     1      -9.512  14.701  67.836  1.00  0.00    -0.210 A  
HETATM   14  C   UNL     1      -9.607  14.952  69.223  1.00  0.00    -0.128 A  
HETATM   15  O   UNL     1      -9.668  16.253  69.640  1.00  0.00    -0.187 OA 
HETATM   16  C   UNL     1      -9.863  13.889  70.077  1.00  0.00     1.615 A  
HETATM   17  H   UNL     1      -9.733  16.422  70.573  1.00  0.00     0.000 HD 
HETATM   18  C   UNL     1     -10.085  12.611  69.596  1.00  0.00     1.220 A  
HETATM   19  C   UNL     1     -10.734  11.728  70.675  1.00  0.00     2.378 C  
HETATM   20  C   UNL     1     -10.101  10.185  71.187  1.00  0.00     0.960 C  
HETATM   21  C   UNL     1     -11.146  12.944  71.556  1.00  0.00     4.510 C  
HETATM   22  O   UNL     1     -10.141  13.983  71.428  1.00  0.00     3.652 OA 
HETATM   23  C   UNL     1     -10.774   8.720  70.396  1.00  0.00    -0.225 C  
HETATM   24  N   UNL     1     -11.244   8.894  68.984  1.00  0.00     0.184 NA 
ENDROOT
BRANCH  24  25
HETATM   25  C   UNL     1     -12.538   8.502  68.430  1.00  0.00     6.833 C  
BRANCH  25  26
HETATM   26  C   UNL     1     -12.530   7.408  67.367  1.00  0.00     6.926 C  
HETATM   27  C   UNL     1     -11.160   7.337  66.594  1.00  0.00     0.488 C  
HETATM   28  C   UNL     1     -11.480   5.854  66.335  1.00  0.00     0.799 C  
HETATM   29  C   UNL     1     -12.262   5.893  67.676  1.00  0.00     4.830 C  
ENDBRANCH  25  26
ENDBRANCH  24  25
TORSDOF 2
ENDMDL
