MODEL        1
REMARK 921   NORMALIZED FREE ENERGY PREDICTED BY IDOCK:   -8.21 KCAL/MOL
REMARK 922        TOTAL FREE ENERGY PREDICTED BY IDOCK:  -11.88 KCAL/MOL
REMARK 923 INTER-LIGAND FREE ENERGY PREDICTED BY IDOCK:  -10.13 KCAL/MOL
REMARK 924 INTRA-LIGAND FREE ENERGY PREDICTED BY IDOCK:   -1.75 KCAL/MOL
REMARK 927      BINDING AFFINITY PREDICTED BY RF-SCORE:    0.00 PKD
ROOT
HETATM    1  C   UNL     1     -10.987   6.479  68.905  1.00  0.00    -0.314 C  
HETATM    2  O   UNL     1     -10.514   5.061  68.949  1.00  0.00    -0.130 OA 
HETATM    3  C   UNL     1     -10.366   4.729  70.297  1.00  0.00    -0.110 A  
HETATM    4  C   UNL     1     -10.699   5.768  71.130  1.00  0.00    -0.327 A  
HETATM    5  C   UNL     1     -10.290   6.063  72.445  1.00  0.00    -0.224 A  
HETATM    6  C   UNL     1      -9.313   5.196  72.889  1.00  0.00    -0.145 A  
HETATM    7  C   UNL     1     -10.642   7.626  72.843  1.00  0.00    -0.411 C  
HETATM    8  C   UNL     1     -10.491   8.952  71.720  1.00  0.00    -0.360 C  
HETATM    9  C   UNL     1      -9.038   4.004  72.135  1.00  0.00    -0.158 A  
HETATM   10  C   UNL     1      -9.627   3.732  70.870  1.00  0.00    -0.186 A  
HETATM   11  N   UNL     1     -11.951   9.436  71.708  1.00  0.00    -0.379 NA 
HETATM   12  C   UNL     1     -13.020   8.475  71.459  1.00  0.00    -0.303 C  
HETATM   13  O   UNL     1      -9.362   2.574  70.209  1.00  0.00    -0.120 OA 
HETATM   14  H   UNL     1      -8.096   6.987  71.287  1.00  0.00     0.000 HD 
HETATM   15  C   UNL     1     -12.623   7.103  70.915  1.00  0.00    -0.268 C  
HETATM   16  H   UNL     1     -10.201   8.648  66.434  1.00  0.00     0.000 HD 
HETATM   17  H   UNL     1      -8.849   1.881  70.607  1.00  0.00     0.000 HD 
HETATM   18  C   UNL     1     -11.100   6.951  70.374  1.00  0.00    -0.341 C  
HETATM   19  O   UNL     1     -10.718   8.012  66.916  1.00  0.00    -0.322 OA 
HETATM   20  C   UNL     1      -9.728   7.861  70.852  1.00  0.00    -0.164 C  
HETATM   21  C   UNL     1     -10.085   7.587  68.064  1.00  0.00    -0.183 C  
HETATM   22  O   UNL     1      -8.553   7.640  71.806  1.00  0.00    -0.109 OA 
HETATM   23  C   UNL     1      -8.661   7.479  69.809  1.00  0.00    -0.140 C  
HETATM   24  C   UNL     1      -8.989   8.209  68.622  1.00  0.00    -0.137 C  
ENDROOT
BRANCH  11  25
HETATM   25  C   UNL     1     -12.372  10.802  71.309  1.00  0.00    -0.365 C  
BRANCH  25  26
HETATM   26  C   UNL     1     -11.507  11.324  70.145  1.00  0.00    -0.336 C  
HETATM   27  C   UNL     1     -11.979  12.479  69.270  1.00  0.00    -0.304 C  
HETATM   28  C   UNL     1     -11.847  11.114  68.676  1.00  0.00    -0.357 C  
ENDBRANCH  25  26
ENDBRANCH  11  25
BRANCH  24  29
HETATM   29  C   UNL     1      -7.933   9.416  68.533  1.00  0.00    -0.093 C  
HETATM   30  N   UNL     1      -8.423  10.733  68.235  1.00  0.00    -0.125 N  
HETATM   31  O   UNL     1      -6.759   9.145  68.722  1.00  0.00    -0.052 OA 
HETATM   32  C   UNL     1      -7.676  12.085  68.175  1.00  0.00    -0.135 C  
HETATM   33  H   UNL     1      -9.421  10.784  68.032  1.00  0.00     0.000 HD 
HETATM   34  C   UNL     1      -8.608  13.361  67.799  1.00  0.00    -0.194 A  
HETATM   35  C   UNL     1      -6.583  12.031  67.094  1.00  0.00    -0.143 C  
HETATM   36  C   UNL     1      -7.029  12.414  69.539  1.00  0.00     0.161 C  
HETATM   37  N   UNL     1      -8.464  14.580  68.094  1.00  0.00    -0.149 NA 
HETATM   38  C   UNL     1      -9.575  15.237  67.423  1.00  0.00    -0.207 A  
HETATM   39  O   UNL     1      -9.676  13.108  66.995  1.00  0.00    -0.228 OA 
HETATM   40  N   UNL     1     -10.304  14.321  66.752  1.00  0.00    -0.271 NA 
BRANCH  38  41
HETATM   41  C   UNL     1      -9.926  16.687  67.423  1.00  0.00    -0.265 A  
HETATM   42  C   UNL     1      -9.872  17.468  68.586  1.00  0.00    -0.338 A  
HETATM   43  C   UNL     1     -10.151  18.855  68.548  1.00  0.00    -0.460 A  
HETATM   44  C   UNL     1     -10.507  19.480  67.353  1.00  0.00    -0.593 A  
HETATM   45  C   UNL     1     -10.525  18.735  66.185  1.00  0.00    -0.499 A  
HETATM   46  C   UNL     1     -10.237  17.360  66.218  1.00  0.00    -0.344 A  
ENDBRANCH  38  41
ENDBRANCH  24  29
TORSDOF 4
ENDMDL
MODEL        2
REMARK 921   NORMALIZED FREE ENERGY PREDICTED BY IDOCK:   -7.65 KCAL/MOL
REMARK 922        TOTAL FREE ENERGY PREDICTED BY IDOCK:  -11.19 KCAL/MOL
REMARK 923 INTER-LIGAND FREE ENERGY PREDICTED BY IDOCK:   -9.90 KCAL/MOL
REMARK 924 INTRA-LIGAND FREE ENERGY PREDICTED BY IDOCK:   -1.29 KCAL/MOL
REMARK 927      BINDING AFFINITY PREDICTED BY RF-SCORE:    0.00 PKD
ROOT
HETATM    1  C   UNL     1     -12.155  13.122  68.263  1.00  0.00    -0.179 C  
HETATM    2  O   UNL     1     -12.192  14.061  69.427  1.00  0.00    -0.336 OA 
HETATM    3  C   UNL     1     -11.692  15.282  68.973  1.00  0.00    -0.347 A  
HETATM    4  C   UNL     1     -11.344  15.244  67.646  1.00  0.00    -0.315 A  
HETATM    5  C   UNL     1     -10.422  16.014  66.911  1.00  0.00    -0.306 A  
HETATM    6  C   UNL     1      -9.695  16.861  67.722  1.00  0.00    -0.250 A  
HETATM    7  C   UNL     1     -10.074  15.305  65.462  1.00  0.00    -0.408 C  
HETATM    8  C   UNL     1      -9.906  13.580  65.260  1.00  0.00    -0.089 C  
HETATM    9  C   UNL     1     -10.115  17.062  69.082  1.00  0.00    -0.259 A  
HETATM   10  C   UNL     1     -11.169  16.326  69.686  1.00  0.00    -0.311 A  
HETATM   11  N   UNL     1     -11.028  13.338  64.236  1.00  0.00    -0.394 NA 
HETATM   12  C   UNL     1     -12.367  13.846  64.512  1.00  0.00    -0.372 C  
HETATM   13  O   UNL     1     -11.554  16.575  70.966  1.00  0.00    -0.598 OA 
HETATM   14  H   UNL     1      -8.612  14.408  67.985  1.00  0.00     0.000 HD 
HETATM   15  C   UNL     1     -12.665  14.316  65.935  1.00  0.00    -0.310 C  
HETATM   16  H   UNL     1     -11.634   9.794  68.545  1.00  0.00     0.000 HD 
HETATM   17  H   UNL     1     -11.191  17.300  71.461  1.00  0.00     0.000 HD 
HETATM   18  C   UNL     1     -11.576  13.921  67.072  1.00  0.00    -0.394 C  
HETATM   19  O   UNL     1     -12.124  10.604  68.460  1.00  0.00    -0.420 OA 
HETATM   20  C   UNL     1      -9.906  13.602  66.850  1.00  0.00    -0.261 C  
HETATM   21  C   UNL     1     -11.301  11.709  68.413  1.00  0.00    -0.279 C  
HETATM   22  O   UNL     1      -8.611  14.395  67.034  1.00  0.00    -0.214 OA 
HETATM   23  C   UNL     1      -9.470  13.008  68.202  1.00  0.00    -0.218 C  
HETATM   24  C   UNL     1      -9.939  11.655  68.210  1.00  0.00    -0.201 C  
ENDROOT
BRANCH  11  25
HETATM   25  C   UNL     1     -11.088  12.165  63.330  1.00  0.00    -0.420 C  
BRANCH  25  26
HETATM   26  C   UNL     1      -9.718  11.465  63.246  1.00  0.00    -0.413 C  
HETATM   27  C   UNL     1      -9.510  10.244  62.359  1.00  0.00    -0.252 C  
HETATM   28  C   UNL     1      -9.428  10.095  63.843  1.00  0.00    -0.332 C  
ENDBRANCH  25  26
ENDBRANCH  11  25
BRANCH  24  29
HETATM   29  C   UNL     1      -8.650  10.733  67.949  1.00  0.00    -0.125 C  
HETATM   30  N   UNL     1      -8.846   9.425  67.389  1.00  0.00    -0.128 N  
HETATM   31  O   UNL     1      -7.562  11.198  68.247  1.00  0.00    -0.099 OA 
HETATM   32  C   UNL     1      -7.813   8.363  66.949  1.00  0.00    -0.095 C  
HETATM   33  H   UNL     1      -9.822   9.154  67.262  1.00  0.00     0.000 HD 
HETATM   34  C   UNL     1      -8.455   6.994  66.355  1.00  0.00    -0.130 A  
HETATM   35  C   UNL     1      -6.955   7.937  68.153  1.00  0.00    -0.073 C  
HETATM   36  C   UNL     1      -6.894   8.921  65.839  1.00  0.00    -0.072 C  
HETATM   37  N   UNL     1      -7.972   6.168  65.531  1.00  0.00    -0.110 NA 
HETATM   38  C   UNL     1      -8.984   5.126  65.447  1.00  0.00    -0.156 A  
HETATM   39  O   UNL     1      -9.667   6.634  66.856  1.00  0.00    -0.151 OA 
HETATM   40  N   UNL     1     -10.012   5.426  66.268  1.00  0.00    -0.175 NA 
BRANCH  38  41
HETATM   41  C   UNL     1      -8.967   3.889  64.613  1.00  0.00    -0.131 A  
HETATM   42  C   UNL     1      -7.795   3.149  64.398  1.00  0.00    -0.078 A  
HETATM   43  C   UNL     1      -7.818   1.947  63.654  1.00  0.00    -0.061 A  
HETATM   44  C   UNL     1      -9.004   1.474  63.094  1.00  0.00    -0.086 A  
HETATM   45  C   UNL     1     -10.180   2.166  63.330  1.00  0.00    -0.140 A  
HETATM   46  C   UNL     1     -10.163   3.356  64.080  1.00  0.00    -0.212 A  
ENDBRANCH  38  41
ENDBRANCH  24  29
TORSDOF 4
ENDMDL
MODEL        3
REMARK 921   NORMALIZED FREE ENERGY PREDICTED BY IDOCK:   -7.59 KCAL/MOL
REMARK 922        TOTAL FREE ENERGY PREDICTED BY IDOCK:  -11.12 KCAL/MOL
REMARK 923 INTER-LIGAND FREE ENERGY PREDICTED BY IDOCK:   -9.72 KCAL/MOL
REMARK 924 INTRA-LIGAND FREE ENERGY PREDICTED BY IDOCK:   -1.39 KCAL/MOL
REMARK 927      BINDING AFFINITY PREDICTED BY RF-SCORE:    0.00 PKD
ROOT
HETATM    1  C   UNL     1      -7.502   7.522  69.732  1.00  0.00    -0.091 C  
HETATM    2  O   UNL     1      -7.248   8.043  71.111  1.00  0.00    -0.052 OA 
HETATM    3  C   UNL     1      -8.287   7.572  71.914  1.00  0.00    -0.107 A  
HETATM    4  C   UNL     1      -9.179   6.797  71.216  1.00  0.00    -0.154 A  
HETATM    5  C   UNL     1     -10.539   6.515  71.452  1.00  0.00    -0.266 A  
HETATM    6  C   UNL     1     -11.041   7.244  72.510  1.00  0.00    -0.334 A  
HETATM    7  C   UNL     1     -11.258   5.881  70.109  1.00  0.00    -0.338 C  
HETATM    8  C   UNL     1     -10.898   6.421  68.489  1.00  0.00    -0.314 C  
HETATM    9  C   UNL     1     -10.131   7.944  73.374  1.00  0.00    -0.249 A  
HETATM   10  C   UNL     1      -8.737   8.043  73.118  1.00  0.00    -0.237 A  
HETATM   11  N   UNL     1     -10.382   5.099  67.895  1.00  0.00    -0.125 NA 
HETATM   12  C   UNL     1      -9.336   4.362  68.595  1.00  0.00    -0.147 C  
HETATM   13  O   UNL     1      -7.909   8.688  73.982  1.00  0.00    -0.404 OA 
HETATM   14  H   UNL     1     -10.958   8.904  70.391  1.00  0.00     0.000 HD 
HETATM   15  C   UNL     1      -8.588   5.088  69.713  1.00  0.00    -0.100 C  
HETATM   16  H   UNL     1      -6.652   9.176  66.909  1.00  0.00     0.000 HD 
HETATM   17  H   UNL     1      -8.221   9.014  74.818  1.00  0.00     0.000 HD 
HETATM   18  C   UNL     1      -8.806   6.694  69.808  1.00  0.00    -0.144 C  
HETATM   19  O   UNL     1      -6.571   8.552  67.622  1.00  0.00    -0.060 OA 
HETATM   20  C   UNL     1     -10.160   7.595  69.266  1.00  0.00    -0.190 C  
HETATM   21  C   UNL     1      -7.642   8.610  68.488  1.00  0.00    -0.095 C  
HETATM   22  O   UNL     1     -11.399   8.202  69.926  1.00  0.00    -0.108 OA 
HETATM   23  C   UNL     1      -9.677   9.055  69.351  1.00  0.00    -0.169 C  
HETATM   24  C   UNL     1      -8.827   9.257  68.216  1.00  0.00    -0.129 C  
ENDROOT
BRANCH  11  25
HETATM   25  C   UNL     1     -10.354   4.795  66.443  1.00  0.00    -0.273 C  
BRANCH  25  26
HETATM   26  C   UNL     1      -8.933   4.967  65.873  1.00  0.00    -0.141 C  
HETATM   27  C   UNL     1      -8.340   6.352  65.641  1.00  0.00    -0.147 C  
HETATM   28  C   UNL     1      -8.639   5.476  64.468  1.00  0.00    -0.042 C  
ENDBRANCH  25  26
ENDBRANCH  11  25
BRANCH  24  29
HETATM   29  C   UNL     1      -9.682  10.120  67.165  1.00  0.00    -0.173 C  
HETATM   30  N   UNL     1      -9.789  11.538  67.370  1.00  0.00    -0.185 N  
HETATM   31  O   UNL     1     -10.203   9.516  66.241  1.00  0.00    -0.271 OA 
HETATM   32  C   UNL     1     -10.455  12.624  66.495  1.00  0.00    -0.247 C  
HETATM   33  H   UNL     1      -9.357  11.881  68.228  1.00  0.00     0.000 HD 
HETATM   34  C   UNL     1     -10.353  14.133  67.089  1.00  0.00    -0.265 A  
HETATM   35  C   UNL     1     -11.958  12.331  66.350  1.00  0.00    -0.286 C  
HETATM   36  C   UNL     1      -9.806  12.671  65.093  1.00  0.00    -0.112 C  
HETATM   37  N   UNL     1     -10.359  15.240  66.483  1.00  0.00    -0.277 NA 
HETATM   38  C   UNL     1     -10.306  16.225  67.553  1.00  0.00    -0.288 A  
HETATM   39  O   UNL     1     -10.316  14.242  68.444  1.00  0.00    -0.234 OA 
HETATM   40  N   UNL     1     -10.283  15.596  68.746  1.00  0.00    -0.209 NA 
BRANCH  38  41
HETATM   41  C   UNL     1     -10.277  17.712  67.437  1.00  0.00    -0.345 A  
HETATM   42  C   UNL     1     -10.048  18.543  68.542  1.00  0.00    -0.414 A  
HETATM   43  C   UNL     1      -9.965  19.948  68.394  1.00  0.00    -0.531 A  
HETATM   44  C   UNL     1     -10.130  20.547  67.146  1.00  0.00    -0.430 A  
HETATM   45  C   UNL     1     -10.316  19.741  66.035  1.00  0.00    -0.612 A  
HETATM   46  C   UNL     1     -10.387  18.344  66.176  1.00  0.00    -0.431 A  
ENDBRANCH  38  41
ENDBRANCH  24  29
TORSDOF 4
ENDMDL
MODEL        4
REMARK 921   NORMALIZED FREE ENERGY PREDICTED BY IDOCK:   -7.44 KCAL/MOL
REMARK 922        TOTAL FREE ENERGY PREDICTED BY IDOCK:  -10.94 KCAL/MOL
REMARK 923 INTER-LIGAND FREE ENERGY PREDICTED BY IDOCK:   -9.57 KCAL/MOL
REMARK 924 INTRA-LIGAND FREE ENERGY PREDICTED BY IDOCK:   -1.37 KCAL/MOL
REMARK 927      BINDING AFFINITY PREDICTED BY RF-SCORE:    0.00 PKD
ROOT
HETATM    1  C   UNL     1     -11.052   6.024  69.575  1.00  0.00    -0.398 C  
HETATM    2  O   UNL     1     -10.423   4.762  70.072  1.00  0.00    -0.194 OA 
HETATM    3  C   UNL     1      -9.985   5.017  71.372  1.00  0.00    -0.193 A  
HETATM    4  C   UNL     1     -10.266   6.298  71.777  1.00  0.00    -0.224 A  
HETATM    5  C   UNL     1      -9.650   7.117  72.743  1.00  0.00    -0.183 A  
HETATM    6  C   UNL     1      -8.515   6.533  73.267  1.00  0.00    -0.125 A  
HETATM    7  C   UNL     1     -10.093   8.696  72.556  1.00  0.00    -0.242 C  
HETATM    8  C   UNL     1     -10.309   9.447  70.997  1.00  0.00    -0.312 C  
HETATM    9  C   UNL     1      -8.257   5.143  73.005  1.00  0.00    -0.105 A  
HETATM   10  C   UNL     1      -9.042   4.362  72.115  1.00  0.00    -0.121 A  
HETATM   11  N   UNL     1     -11.790   9.848  71.116  1.00  0.00    -0.356 NA 
HETATM   12  C   UNL     1     -12.771   8.843  71.510  1.00  0.00    -0.335 C  
HETATM   13  O   UNL     1      -8.780   3.041  71.925  1.00  0.00    -0.074 OA 
HETATM   14  H   UNL     1      -7.836   7.538  70.861  1.00  0.00     0.000 HD 
HETATM   15  C   UNL     1     -12.334   7.379  71.480  1.00  0.00    -0.385 C  
HETATM   16  H   UNL     1     -11.001   7.006  66.341  1.00  0.00     0.000 HD 
HETATM   17  H   UNL     1      -8.126   2.586  72.442  1.00  0.00     0.000 HD 
HETATM   18  C   UNL     1     -10.935   7.055  70.722  1.00  0.00    -0.285 C  
HETATM   19  O   UNL     1     -11.342   6.612  67.135  1.00  0.00    -0.343 OA 
HETATM   20  C   UNL     1      -9.608   8.115  70.487  1.00  0.00    -0.170 C  
HETATM   21  C   UNL     1     -10.458   6.712  68.188  1.00  0.00    -0.214 C  
HETATM   22  O   UNL     1      -8.255   8.334  71.166  1.00  0.00    -0.102 OA 
HETATM   23  C   UNL     1      -8.724   7.364  69.473  1.00  0.00    -0.137 C  
HETATM   24  C   UNL     1      -9.353   7.534  68.198  1.00  0.00    -0.137 C  
ENDROOT
BRANCH  11  25
HETATM   25  C   UNL     1     -12.429  10.918  70.312  1.00  0.00    -0.303 C  
BRANCH  25  26
HETATM   26  C   UNL     1     -12.168  12.303  70.935  1.00  0.00    -0.296 C  
HETATM   27  C   UNL     1     -13.166  12.935  71.897  1.00  0.00    -0.521 C  
HETATM   28  C   UNL     1     -12.938  13.560  70.559  1.00  0.00    -0.025 C  
ENDBRANCH  25  26
ENDBRANCH  11  25
BRANCH  24  29
HETATM   29  C   UNL     1      -8.475   8.624  67.408  1.00  0.00    -0.123 C  
HETATM   30  N   UNL     1      -8.931   9.986  67.390  1.00  0.00    -0.131 N  
HETATM   31  O   UNL     1      -7.460   8.230  66.858  1.00  0.00    -0.085 OA 
HETATM   32  C   UNL     1      -8.267  11.252  66.803  1.00  0.00    -0.158 C  
HETATM   33  H   UNL     1      -9.835  10.142  67.836  1.00  0.00     0.000 HD 
HETATM   34  C   UNL     1      -9.121  12.621  66.996  1.00  0.00    -0.215 A  
HETATM   35  C   UNL     1      -8.076  11.086  65.285  1.00  0.00     0.158 C  
HETATM   36  C   UNL     1      -6.894  11.507  67.465  1.00  0.00    -0.098 C  
HETATM   37  N   UNL     1      -8.723  13.816  67.065  1.00  0.00    -0.221 NA 
HETATM   38  C   UNL     1      -9.952  14.588  67.172  1.00  0.00    -0.252 A  
HETATM   39  O   UNL     1     -10.474  12.483  67.028  1.00  0.00    -0.229 OA 
HETATM   40  N   UNL     1     -11.013  13.756  67.143  1.00  0.00    -0.286 NA 
BRANCH  38  41
HETATM   41  C   UNL     1     -10.104  16.067  67.296  1.00  0.00    -0.266 A  
HETATM   42  C   UNL     1      -9.909  16.739  68.511  1.00  0.00    -0.257 A  
HETATM   43  C   UNL     1      -9.999  18.149  68.588  1.00  0.00    -0.409 A  
HETATM   44  C   UNL     1     -10.306  18.909  67.460  1.00  0.00    -0.496 A  
HETATM   45  C   UNL     1     -10.462  18.269  66.242  1.00  0.00    -0.397 A  
HETATM   46  C   UNL     1     -10.361  16.869  66.159  1.00  0.00    -0.327 A  
ENDBRANCH  38  41
ENDBRANCH  24  29
TORSDOF 4
ENDMDL
MODEL        5
REMARK 921   NORMALIZED FREE ENERGY PREDICTED BY IDOCK:   -7.39 KCAL/MOL
REMARK 922        TOTAL FREE ENERGY PREDICTED BY IDOCK:  -10.87 KCAL/MOL
REMARK 923 INTER-LIGAND FREE ENERGY PREDICTED BY IDOCK:   -9.51 KCAL/MOL
REMARK 924 INTRA-LIGAND FREE ENERGY PREDICTED BY IDOCK:   -1.36 KCAL/MOL
REMARK 927      BINDING AFFINITY PREDICTED BY RF-SCORE:    0.00 PKD
ROOT
HETATM    1  C   UNL     1      -7.351   8.092  70.096  1.00  0.00    -0.060 C  
HETATM    2  O   UNL     1      -7.293   7.296  71.360  1.00  0.00    -0.075 OA 
HETATM    3  C   UNL     1      -7.907   6.072  71.092  1.00  0.00    -0.111 A  
HETATM    4  C   UNL     1      -8.349   5.981  69.795  1.00  0.00    -0.126 A  
HETATM    5  C   UNL     1      -9.373   5.204  69.222  1.00  0.00    -0.172 A  
HETATM    6  C   UNL     1     -10.095   4.516  70.175  1.00  0.00    -0.220 A  
HETATM    7  C   UNL     1      -9.778   5.763  67.722  1.00  0.00    -0.130 C  
HETATM    8  C   UNL     1      -9.842   7.460  67.323  1.00  0.00    -0.175 C  
HETATM    9  C   UNL     1      -9.590   4.443  71.519  1.00  0.00    -0.228 A  
HETATM   10  C   UNL     1      -8.447   5.162  71.959  1.00  0.00    -0.126 A  
HETATM   11  N   UNL     1      -8.784   7.495  66.207  1.00  0.00    -0.143 NA 
HETATM   12  C   UNL     1      -7.466   6.921  66.454  1.00  0.00    -0.074 C  
HETATM   13  O   UNL     1      -7.987   5.035  73.232  1.00  0.00    -0.102 OA 
HETATM   14  H   UNL     1     -10.985   7.058  70.206  1.00  0.00     0.000 HD 
HETATM   15  C   UNL     1      -7.097   6.599  67.902  1.00  0.00    -0.085 C  
HETATM   16  H   UNL     1      -7.621  11.460  70.004  1.00  0.00     0.000 HD 
HETATM   17  H   UNL     1      -8.361   4.403  73.834  1.00  0.00     0.000 HD 
HETATM   18  C   UNL     1      -8.070   7.206  69.051  1.00  0.00    -0.121 C  
HETATM   19  O   UNL     1      -7.195  10.611  69.986  1.00  0.00    -0.147 OA 
HETATM   20  C   UNL     1      -9.726   7.625  68.900  1.00  0.00    -0.156 C  
HETATM   21  C   UNL     1      -8.094   9.574  70.128  1.00  0.00    -0.174 C  
HETATM   22  O   UNL     1     -11.055   6.960  69.264  1.00  0.00    -0.233 OA 
HETATM   23  C   UNL     1     -10.019   8.405  70.195  1.00  0.00    -0.190 C  
HETATM   24  C   UNL     1      -9.459   9.709  70.008  1.00  0.00    -0.277 C  
ENDROOT
BRANCH  11  25
HETATM   25  C   UNL     1      -8.710   8.546  65.163  1.00  0.00    -0.120 C  
BRANCH  25  26
HETATM   26  C   UNL     1      -9.747   9.655  65.427  1.00  0.00    -0.365 C  
HETATM   27  C   UNL     1      -9.955  10.792  64.433  1.00  0.00    -0.400 C  
HETATM   28  C   UNL     1      -9.382  11.090  65.780  1.00  0.00    -0.236 C  
ENDBRANCH  25  26
ENDBRANCH  11  25
BRANCH  24  29
HETATM   29  C   UNL     1     -10.698  10.690  69.721  1.00  0.00    -0.230 C  
HETATM   30  N   UNL     1     -10.423  12.065  69.405  1.00  0.00    -0.419 N  
HETATM   31  O   UNL     1     -11.818  10.210  69.791  1.00  0.00    -0.191 OA 
HETATM   32  C   UNL     1     -11.384  13.205  68.999  1.00  0.00    -0.282 C  
HETATM   33  H   UNL     1      -9.439  12.328  69.456  1.00  0.00     0.000 HD 
HETATM   34  C   UNL     1     -10.663  14.635  68.721  1.00  0.00    -0.249 A  
HETATM   35  C   UNL     1     -12.399  13.460  70.126  1.00  0.00    -0.322 C  
HETATM   36  C   UNL     1     -12.141  12.848  67.701  1.00  0.00    -0.239 C  
HETATM   37  N   UNL     1     -11.025  15.589  67.978  1.00  0.00    -0.300 NA 
HETATM   38  C   UNL     1     -10.009  16.608  68.197  1.00  0.00    -0.259 A  
HETATM   39  O   UNL     1      -9.531  14.883  69.432  1.00  0.00    -0.160 OA 
HETATM   40  N   UNL     1      -9.105  16.160  69.093  1.00  0.00    -0.252 NA 
BRANCH  38  41
HETATM   41  C   UNL     1      -9.908  17.959  67.573  1.00  0.00    -0.309 A  
HETATM   42  C   UNL     1     -10.562  18.278  66.374  1.00  0.00    -0.318 A  
HETATM   43  C   UNL     1     -10.499  19.585  65.835  1.00  0.00    -0.585 A  
HETATM   44  C   UNL     1      -9.768  20.587  66.471  1.00  0.00    -0.345 A  
HETATM   45  C   UNL     1      -9.150  20.304  67.678  1.00  0.00    -0.423 A  
HETATM   46  C   UNL     1      -9.219  19.010  68.223  1.00  0.00    -0.381 A  
ENDBRANCH  38  41
ENDBRANCH  24  29
TORSDOF 4
ENDMDL
MODEL        6
REMARK 921   NORMALIZED FREE ENERGY PREDICTED BY IDOCK:   -7.34 KCAL/MOL
REMARK 922        TOTAL FREE ENERGY PREDICTED BY IDOCK:  -10.82 KCAL/MOL
REMARK 923 INTER-LIGAND FREE ENERGY PREDICTED BY IDOCK:   -9.44 KCAL/MOL
REMARK 924 INTRA-LIGAND FREE ENERGY PREDICTED BY IDOCK:   -1.38 KCAL/MOL
REMARK 927      BINDING AFFINITY PREDICTED BY RF-SCORE:    0.00 PKD
ROOT
HETATM    1  C   UNL     1     -11.987  12.988  68.440  1.00  0.00    -0.271 C  
HETATM    2  O   UNL     1     -12.050  13.880  69.639  1.00  0.00    -0.321 OA 
HETATM    3  C   UNL     1     -11.702  15.160  69.205  1.00  0.00    -0.329 A  
HETATM    4  C   UNL     1     -11.430  15.201  67.860  1.00  0.00    -0.344 A  
HETATM    5  C   UNL     1     -10.634  16.084  67.106  1.00  0.00    -0.305 A  
HETATM    6  C   UNL     1      -9.950  16.975  67.908  1.00  0.00    -0.281 A  
HETATM    7  C   UNL     1     -10.301  15.462  65.614  1.00  0.00    -0.395 C  
HETATM    8  C   UNL     1      -9.973  13.771  65.338  1.00  0.00    -0.229 C  
HETATM    9  C   UNL     1     -10.308  17.088  69.295  1.00  0.00    -0.276 A  
HETATM   10  C   UNL     1     -11.246  16.229  69.927  1.00  0.00    -0.317 A  
HETATM   11  N   UNL     1     -11.123  13.448  64.368  1.00  0.00    -0.378 NA 
HETATM   12  C   UNL     1     -12.488  13.807  64.736  1.00  0.00    -0.349 C  
HETATM   13  O   UNL     1     -11.579  16.396  71.235  1.00  0.00    -0.587 OA 
HETATM   14  H   UNL     1      -8.612  14.639  68.017  1.00  0.00     0.000 HD 
HETATM   15  C   UNL     1     -12.748  14.198  66.190  1.00  0.00    -0.251 C  
HETATM   16  H   UNL     1     -11.118   9.724  68.567  1.00  0.00     0.000 HD 
HETATM   17  H   UNL     1     -11.263  17.138  71.736  1.00  0.00     0.000 HD 
HETATM   18  C   UNL     1     -11.560  13.881  67.250  1.00  0.00    -0.393 C  
HETATM   19  O   UNL     1     -11.691  10.482  68.539  1.00  0.00    -0.325 OA 
HETATM   20  C   UNL     1      -9.883  13.741  66.925  1.00  0.00    -0.264 C  
HETATM   21  C   UNL     1     -10.987  11.666  68.490  1.00  0.00    -0.220 C  
HETATM   22  O   UNL     1      -8.666  14.657  67.069  1.00  0.00    -0.215 OA 
HETATM   23  C   UNL     1      -9.312  13.151  68.228  1.00  0.00    -0.201 C  
HETATM   24  C   UNL     1      -9.642  11.758  68.210  1.00  0.00    -0.199 C  
ENDROOT
BRANCH  11  25
HETATM   25  C   UNL     1     -11.117  12.304  63.424  1.00  0.00    -0.418 C  
BRANCH  25  26
HETATM   26  C   UNL     1      -9.788  11.529  63.508  1.00  0.00    -0.407 C  
HETATM   27  C   UNL     1      -9.570  10.251  62.707  1.00  0.00    -0.277 C  
HETATM   28  C   UNL     1      -9.636  10.181  64.198  1.00  0.00    -0.336 C  
ENDBRANCH  25  26
ENDBRANCH  11  25
BRANCH  24  29
HETATM   29  C   UNL     1      -8.283  10.982  67.845  1.00  0.00    -0.119 C  
HETATM   30  N   UNL     1      -8.374   9.626  67.380  1.00  0.00    -0.114 N  
HETATM   31  O   UNL     1      -7.237  11.593  67.986  1.00  0.00    -0.075 OA 
HETATM   32  C   UNL     1      -7.271   8.669  66.875  1.00  0.00    -0.075 C  
HETATM   33  H   UNL     1      -9.316   9.233  67.385  1.00  0.00     0.000 HD 
HETATM   34  C   UNL     1      -7.797   7.197  66.433  1.00  0.00    -0.109 A  
HETATM   35  C   UNL     1      -6.236   8.429  67.987  1.00  0.00    -0.052 C  
HETATM   36  C   UNL     1      -6.560   9.259  65.636  1.00  0.00    -0.069 C  
HETATM   37  N   UNL     1      -7.310   6.383  65.600  1.00  0.00    -0.077 NA 
HETATM   38  C   UNL     1      -8.185   5.223  65.691  1.00  0.00    -0.121 A  
HETATM   39  O   UNL     1      -8.890   6.728  67.092  1.00  0.00    -0.117 OA 
HETATM   40  N   UNL     1      -9.144   5.452  66.612  1.00  0.00    -0.121 NA 
BRANCH  38  41
HETATM   41  C   UNL     1      -8.105   3.945  64.926  1.00  0.00    -0.093 A  
HETATM   42  C   UNL     1      -9.113   2.972  64.988  1.00  0.00    -0.146 A  
HETATM   43  C   UNL     1      -9.041   1.797  64.205  1.00  0.00    -0.113 A  
HETATM   44  C   UNL     1      -7.955   1.562  63.363  1.00  0.00    -0.060 A  
HETATM   45  C   UNL     1      -6.970   2.530  63.255  1.00  0.00    -0.036 A  
HETATM   46  C   UNL     1      -7.043   3.705  64.023  1.00  0.00    -0.050 A  
ENDBRANCH  38  41
ENDBRANCH  24  29
TORSDOF 4
ENDMDL
MODEL        7
REMARK 921   NORMALIZED FREE ENERGY PREDICTED BY IDOCK:   -6.92 KCAL/MOL
REMARK 922        TOTAL FREE ENERGY PREDICTED BY IDOCK:  -10.29 KCAL/MOL
REMARK 923 INTER-LIGAND FREE ENERGY PREDICTED BY IDOCK:   -9.04 KCAL/MOL
REMARK 924 INTRA-LIGAND FREE ENERGY PREDICTED BY IDOCK:   -1.26 KCAL/MOL
REMARK 927      BINDING AFFINITY PREDICTED BY RF-SCORE:    0.00 PKD
ROOT
HETATM    1  C   UNL     1      -9.623  14.680  67.943  1.00  0.00    -0.212 C  
HETATM    2  O   UNL     1      -9.942  15.656  66.855  1.00  0.00    -0.239 OA 
HETATM    3  C   UNL     1     -11.020  15.126  66.144  1.00  0.00    -0.331 A  
HETATM    4  C   UNL     1     -11.441  13.923  66.653  1.00  0.00    -0.370 A  
HETATM    5  C   UNL     1     -12.123  12.852  66.044  1.00  0.00    -0.484 A  
HETATM    6  C   UNL     1     -12.277  13.043  64.686  1.00  0.00    -0.477 A  
HETATM    7  C   UNL     1     -12.024  11.483  66.961  1.00  0.00     0.291 C  
HETATM    8  C   UNL     1     -10.588  11.026  67.841  1.00  0.00    -0.205 C  
HETATM    9  C   UNL     1     -12.004  14.337  64.125  1.00  0.00    -0.401 A  
HETATM   10  C   UNL     1     -11.446  15.407  64.875  1.00  0.00    -0.311 A  
HETATM   11  N   UNL     1     -11.162  11.018  69.268  1.00  0.00    -0.235 NA 
HETATM   12  C   UNL     1     -11.892  12.184  69.751  1.00  0.00    -0.327 C  
HETATM   13  O   UNL     1     -11.237  16.625  64.309  1.00  0.00    -1.314 OA 
HETATM   14  H   UNL     1      -9.742  12.218  65.076  1.00  0.00     0.000 HD 
HETATM   15  C   UNL     1     -11.782  13.473  68.936  1.00  0.00    -0.379 C  
HETATM   16  H   UNL     1      -6.508  14.152  69.143  1.00  0.00     0.000 HD 
HETATM   17  H   UNL     1     -11.533  16.821  63.428  1.00  0.00     0.000 HD 
HETATM   18  C   UNL     1     -10.629  13.513  67.795  1.00  0.00    -0.252 C  
HETATM   19  O   UNL     1      -7.385  14.514  69.102  1.00  0.00    -0.131 OA 
HETATM   20  C   UNL     1      -9.935  12.182  66.967  1.00  0.00    -0.202 C  
HETATM   21  C   UNL     1      -8.092  14.048  68.014  1.00  0.00    -0.152 C  
HETATM   22  O   UNL     1     -10.132  11.527  65.598  1.00  0.00    -0.218 OA 
HETATM   23  C   UNL     1      -8.722  12.800  66.245  1.00  0.00     0.219 C  
HETATM   24  C   UNL     1      -7.712  12.970  67.245  1.00  0.00    -0.112 C  
ENDROOT
BRANCH  11  25
HETATM   25  C   UNL     1     -10.563  10.268  70.400  1.00  0.00    -0.147 C  
BRANCH  25  26
HETATM   26  C   UNL     1     -11.486   9.116  70.844  1.00  0.00    -0.357 C  
HETATM   27  C   UNL     1     -12.428   9.275  72.031  1.00  0.00    -0.451 C  
HETATM   28  C   UNL     1     -11.286   8.317  72.124  1.00  0.00    -0.419 C  
ENDBRANCH  25  26
ENDBRANCH  11  25
BRANCH  24  29
HETATM   29  C   UNL     1      -6.638  11.801  66.999  1.00  0.00    -0.140 C  
HETATM   30  N   UNL     1      -7.119  10.470  66.753  1.00  0.00    -0.103 N  
HETATM   31  O   UNL     1      -5.458  12.110  67.039  1.00  0.00    -0.207 OA 
HETATM   32  C   UNL     1      -6.346   9.180  66.399  1.00  0.00    -0.065 C  
HETATM   33  H   UNL     1      -8.131  10.359  66.824  1.00  0.00     0.000 HD 
HETATM   34  C   UNL     1      -7.277   7.863  66.195  1.00  0.00    -0.073 A  
HETATM   35  C   UNL     1      -5.365   8.829  67.530  1.00  0.00    -0.035 C  
HETATM   36  C   UNL     1      -5.561   9.357  65.079  1.00  0.00    -0.057 C  
HETATM   37  N   UNL     1      -7.072   6.831  65.498  1.00  0.00    -0.066 NA 
HETATM   38  C   UNL     1      -8.226   5.988  65.774  1.00  0.00    -0.136 A  
HETATM   39  O   UNL     1      -8.423   7.822  66.925  1.00  0.00    -0.120 OA 
HETATM   40  N   UNL     1      -9.040   6.609  66.652  1.00  0.00    -0.140 NA 
BRANCH  38  41
HETATM   41  C   UNL     1      -8.536   4.639  65.217  1.00  0.00    -0.133 A  
HETATM   42  C   UNL     1      -7.697   3.535  65.422  1.00  0.00    -0.081 A  
HETATM   43  C   UNL     1      -8.045   2.253  64.935  1.00  0.00    -0.079 A  
HETATM   44  C   UNL     1      -9.224   2.056  64.219  1.00  0.00    -0.121 A  
HETATM   45  C   UNL     1     -10.088   3.125  64.041  1.00  0.00    -0.175 A  
HETATM   46  C   UNL     1      -9.751   4.397  64.534  1.00  0.00    -0.090 A  
ENDBRANCH  38  41
ENDBRANCH  24  29
TORSDOF 4
ENDMDL
MODEL        8
REMARK 921   NORMALIZED FREE ENERGY PREDICTED BY IDOCK:   -6.92 KCAL/MOL
REMARK 922        TOTAL FREE ENERGY PREDICTED BY IDOCK:  -10.29 KCAL/MOL
REMARK 923 INTER-LIGAND FREE ENERGY PREDICTED BY IDOCK:   -9.01 KCAL/MOL
REMARK 924 INTRA-LIGAND FREE ENERGY PREDICTED BY IDOCK:   -1.29 KCAL/MOL
REMARK 927      BINDING AFFINITY PREDICTED BY RF-SCORE:    0.00 PKD
ROOT
HETATM    1  C   UNL     1      -9.738  14.897  67.934  1.00  0.00    -0.206 C  
HETATM    2  O   UNL     1     -10.033  15.818  66.793  1.00  0.00    -0.240 OA 
HETATM    3  C   UNL     1     -11.068  15.233  66.063  1.00  0.00    -0.278 A  
HETATM    4  C   UNL     1     -11.484  14.043  66.607  1.00  0.00    -0.377 A  
HETATM    5  C   UNL     1     -12.117  12.931  66.018  1.00  0.00    -0.484 A  
HETATM    6  C   UNL     1     -12.218  13.059  64.648  1.00  0.00    -0.477 A  
HETATM    7  C   UNL     1     -12.027  11.606  66.999  1.00  0.00     0.166 C  
HETATM    8  C   UNL     1     -10.619  11.221  67.955  1.00  0.00    -0.194 C  
HETATM    9  C   UNL     1     -11.950  14.334  64.042  1.00  0.00    -0.328 A  
HETATM   10  C   UNL     1     -11.447  15.448  64.766  1.00  0.00    -0.336 A  
HETATM   11  N   UNL     1     -11.251  11.261  69.357  1.00  0.00    -0.262 NA 
HETATM   12  C   UNL     1     -12.026  12.430  69.758  1.00  0.00    -0.289 C  
HETATM   13  O   UNL     1     -11.241  16.646  64.156  1.00  0.00    -1.410 OA 
HETATM   14  H   UNL     1      -9.684  12.312  65.177  1.00  0.00     0.000 HD 
HETATM   15  C   UNL     1     -11.910  13.684  68.892  1.00  0.00    -0.402 C  
HETATM   16  H   UNL     1      -6.665  14.495  69.282  1.00  0.00     0.000 HD 
HETATM   17  H   UNL     1     -11.504  16.796  63.256  1.00  0.00     0.000 HD 
HETATM   18  C   UNL     1     -10.711  13.702  67.797  1.00  0.00    -0.255 C  
HETATM   19  O   UNL     1      -7.548  14.835  69.190  1.00  0.00    -0.140 OA 
HETATM   20  C   UNL     1      -9.955  12.353  67.058  1.00  0.00    -0.212 C  
HETATM   21  C   UNL     1      -8.198  14.305  68.096  1.00  0.00    -0.146 C  
HETATM   22  O   UNL     1     -10.081  11.636  65.713  1.00  0.00    -0.223 OA 
HETATM   23  C   UNL     1      -8.727  12.967  66.360  1.00  0.00     0.167 C  
HETATM   24  C   UNL     1      -7.763  13.204  67.392  1.00  0.00    -0.151 C  
ENDROOT
BRANCH  11  25
HETATM   25  C   UNL     1     -10.684  10.575  70.544  1.00  0.00     0.116 C  
BRANCH  25  26
HETATM   26  C   UNL     1     -11.550   9.365  70.944  1.00  0.00    -0.380 C  
HETATM   27  C   UNL     1     -11.233   8.547  72.191  1.00  0.00    -0.432 C  
HETATM   28  C   UNL     1     -11.084   7.919  70.843  1.00  0.00    -0.268 C  
ENDBRANCH  25  26
ENDBRANCH  11  25
BRANCH  24  29
HETATM   29  C   UNL     1      -6.655  12.051  67.242  1.00  0.00    -0.145 C  
HETATM   30  N   UNL     1      -7.077  10.680  67.325  1.00  0.00    -0.087 N  
HETATM   31  O   UNL     1      -5.500  12.406  67.066  1.00  0.00    -0.301 OA 
HETATM   32  C   UNL     1      -6.273   9.376  67.132  1.00  0.00    -0.065 C  
HETATM   33  H   UNL     1      -8.064  10.548  67.546  1.00  0.00     0.000 HD 
HETATM   34  C   UNL     1      -7.136   8.011  67.312  1.00  0.00    -0.083 A  
HETATM   35  C   UNL     1      -5.143   9.298  68.173  1.00  0.00    -0.034 C  
HETATM   36  C   UNL     1      -5.664   9.313  65.713  1.00  0.00    -0.049 C  
HETATM   37  N   UNL     1      -6.952   6.868  66.809  1.00  0.00    -0.064 NA 
HETATM   38  C   UNL     1      -8.009   6.055  67.392  1.00  0.00    -0.102 A  
HETATM   39  O   UNL     1      -8.182   8.074  68.179  1.00  0.00    -0.123 OA 
HETATM   40  N   UNL     1      -8.749   6.809  68.230  1.00  0.00    -0.123 NA 
BRANCH  38  41
HETATM   41  C   UNL     1      -8.298   4.610  67.155  1.00  0.00    -0.105 A  
HETATM   42  C   UNL     1      -8.821   3.779  68.155  1.00  0.00    -0.144 A  
HETATM   43  C   UNL     1      -9.144   2.428  67.887  1.00  0.00    -0.226 A  
HETATM   44  C   UNL     1      -8.931   1.879  66.623  1.00  0.00    -0.111 A  
HETATM   45  C   UNL     1      -8.454   2.694  65.609  1.00  0.00    -0.103 A  
HETATM   46  C   UNL     1      -8.144   4.040  65.869  1.00  0.00    -0.101 A  
ENDBRANCH  38  41
ENDBRANCH  24  29
TORSDOF 4
ENDMDL
MODEL        9
REMARK 921   NORMALIZED FREE ENERGY PREDICTED BY IDOCK:   -6.92 KCAL/MOL
REMARK 922        TOTAL FREE ENERGY PREDICTED BY IDOCK:  -10.29 KCAL/MOL
REMARK 923 INTER-LIGAND FREE ENERGY PREDICTED BY IDOCK:   -9.31 KCAL/MOL
REMARK 924 INTRA-LIGAND FREE ENERGY PREDICTED BY IDOCK:   -0.98 KCAL/MOL
REMARK 927      BINDING AFFINITY PREDICTED BY RF-SCORE:    0.00 PKD
ROOT
HETATM    1  C   UNL     1     -12.141  13.403  68.259  1.00  0.00    -0.236 C  
HETATM    2  O   UNL     1     -12.143  14.395  69.379  1.00  0.00    -0.306 OA 
HETATM    3  C   UNL     1     -11.554  15.559  68.884  1.00  0.00    -0.373 A  
HETATM    4  C   UNL     1     -11.180  15.438  67.569  1.00  0.00    -0.302 A  
HETATM    5  C   UNL     1     -10.193  16.112  66.825  1.00  0.00    -0.281 A  
HETATM    6  C   UNL     1      -9.430  16.947  67.615  1.00  0.00    -0.241 A  
HETATM    7  C   UNL     1      -9.859  15.317  65.417  1.00  0.00    -0.318 C  
HETATM    8  C   UNL     1      -9.800  13.577  65.297  1.00  0.00    -0.089 C  
HETATM    9  C   UNL     1      -9.867  17.237  68.953  1.00  0.00    -0.286 A  
HETATM   10  C   UNL     1     -10.980  16.599  69.563  1.00  0.00    -0.228 A  
HETATM   11  N   UNL     1     -10.912  13.361  64.256  1.00  0.00    -0.388 NA 
HETATM   12  C   UNL     1     -12.222  13.966  64.475  1.00  0.00    -0.417 C  
HETATM   13  O   UNL     1     -11.376  16.931  70.820  1.00  0.00    -0.415 OA 
HETATM   14  H   UNL     1      -8.516  14.445  68.014  1.00  0.00     0.000 HD 
HETATM   15  C   UNL     1     -12.519  14.519  65.868  1.00  0.00    -0.203 C  
HETATM   16  H   UNL     1     -11.845  10.065  68.702  1.00  0.00     0.000 HD 
HETATM   17  H   UNL     1     -10.978  17.653  71.292  1.00  0.00     0.000 HD 
HETATM   18  C   UNL     1     -11.484  14.108  67.049  1.00  0.00    -0.370 C  
HETATM   19  O   UNL     1     -12.279  10.900  68.568  1.00  0.00    -0.535 OA 
HETATM   20  C   UNL     1      -9.834  13.672  66.883  1.00  0.00    -0.261 C  
HETATM   21  C   UNL     1     -11.384  11.947  68.493  1.00  0.00    -0.276 C  
HETATM   22  O   UNL     1      -8.495  14.388  67.065  1.00  0.00    -0.213 OA 
HETATM   23  C   UNL     1      -9.469  13.114  68.271  1.00  0.00    -0.210 C  
HETATM   24  C   UNL     1     -10.025  11.796  68.327  1.00  0.00    -0.200 C  
ENDROOT
BRANCH  11  25
HETATM   25  C   UNL     1     -11.029  12.153  63.402  1.00  0.00    -0.412 C  
BRANCH  25  26
HETATM   26  C   UNL     1      -9.702  11.370  63.376  1.00  0.00    -0.385 C  
HETATM   27  C   UNL     1      -9.524  10.154  62.475  1.00  0.00    -0.269 C  
HETATM   28  C   UNL     1      -9.531   9.974  63.958  1.00  0.00    -0.299 C  
ENDBRANCH  25  26
ENDBRANCH  11  25
BRANCH  24  29
HETATM   29  C   UNL     1      -8.794  10.781  68.140  1.00  0.00    -0.133 C  
HETATM   30  N   UNL     1      -8.756   9.594  68.948  1.00  0.00    -0.127 N  
HETATM   31  O   UNL     1      -7.946  11.080  67.315  1.00  0.00    -0.118 OA 
HETATM   32  C   UNL     1      -7.766   8.408  68.931  1.00  0.00    -0.105 C  
HETATM   33  H   UNL     1      -9.500   9.524  69.642  1.00  0.00     0.000 HD 
HETATM   34  C   UNL     1      -8.079   7.245  70.022  1.00  0.00    -0.130 A  
HETATM   35  C   UNL     1      -6.345   8.907  69.246  1.00  0.00    -0.042 C  
HETATM   36  C   UNL     1      -7.769   7.712  67.551  1.00  0.00    -0.118 C  
HETATM   37  N   UNL     1      -7.799   6.014  69.991  1.00  0.00    -0.102 NA 
HETATM   38  C   UNL     1      -8.277   5.515  71.272  1.00  0.00    -0.125 A  
HETATM   39  O   UNL     1      -8.676   7.650  71.174  1.00  0.00    -0.132 OA 
HETATM   40  N   UNL     1      -8.807   6.531  71.984  1.00  0.00    -0.133 NA 
BRANCH  38  41
HETATM   41  C   UNL     1      -8.227   4.119  71.794  1.00  0.00    -0.091 A  
HETATM   42  C   UNL     1      -7.038   3.535  72.254  1.00  0.00    -0.046 A  
HETATM   43  C   UNL     1      -7.030   2.230  72.801  1.00  0.00    -0.023 A  
HETATM   44  C   UNL     1      -8.201   1.479  72.878  1.00  0.00    -0.052 A  
HETATM   45  C   UNL     1      -9.394   2.052  72.467  1.00  0.00    -0.129 A  
HETATM   46  C   UNL     1      -9.408   3.353  71.935  1.00  0.00    -0.193 A  
ENDBRANCH  38  41
ENDBRANCH  24  29
TORSDOF 4
ENDMDL
MODEL       10
REMARK 921   NORMALIZED FREE ENERGY PREDICTED BY IDOCK:   -6.89 KCAL/MOL
REMARK 922        TOTAL FREE ENERGY PREDICTED BY IDOCK:  -10.26 KCAL/MOL
REMARK 923 INTER-LIGAND FREE ENERGY PREDICTED BY IDOCK:   -8.76 KCAL/MOL
REMARK 924 INTRA-LIGAND FREE ENERGY PREDICTED BY IDOCK:   -1.50 KCAL/MOL
REMARK 927      BINDING AFFINITY PREDICTED BY RF-SCORE:    0.00 PKD
ROOT
HETATM    1  C   UNL     1     -10.628   7.019  67.260  1.00  0.00    -0.325 C  
HETATM    2  O   UNL     1     -10.248   5.804  66.475  1.00  0.00    -0.191 OA 
HETATM    3  C   UNL     1      -9.843   4.840  67.398  1.00  0.00    -0.175 A  
HETATM    4  C   UNL     1      -9.926   5.288  68.693  1.00  0.00    -0.234 A  
HETATM    5  C   UNL     1      -9.233   4.891  69.853  1.00  0.00    -0.178 A  
HETATM    6  C   UNL     1      -8.243   3.972  69.574  1.00  0.00    -0.068 A  
HETATM    7  C   UNL     1      -9.393   6.011  71.056  1.00  0.00    -0.175 C  
HETATM    8  C   UNL     1      -9.396   7.730  70.762  1.00  0.00    -0.161 C  
HETATM    9  C   UNL     1      -8.209   3.349  68.280  1.00  0.00    -0.088 A  
HETATM   10  C   UNL     1      -9.065   3.730  67.212  1.00  0.00    -0.159 A  
HETATM   11  N   UNL     1     -10.793   8.074  71.309  1.00  0.00    -0.229 NA 
HETATM   12  C   UNL     1     -11.949   7.319  70.839  1.00  0.00    -0.305 C  
HETATM   13  O   UNL     1      -9.019   3.088  66.014  1.00  0.00    -0.137 OA 
HETATM   14  H   UNL     1      -7.276   6.393  68.892  1.00  0.00     0.000 HD 
HETATM   15  C   UNL     1     -11.763   6.441  69.602  1.00  0.00    -0.195 C  
HETATM   16  H   UNL     1     -10.240  10.183  66.138  1.00  0.00     0.000 HD 
HETATM   17  H   UNL     1      -8.479   2.317  65.884  1.00  0.00     0.000 HD 
HETATM   18  C   UNL     1     -10.400   6.668  68.749  1.00  0.00    -0.214 C  
HETATM   19  O   UNL     1     -10.684   9.364  66.325  1.00  0.00    -0.021 OA 
HETATM   20  C   UNL     1      -8.903   7.278  69.321  1.00  0.00    -0.136 C  
HETATM   21  C   UNL     1      -9.853   8.447  66.932  1.00  0.00    -0.245 C  
HETATM   22  O   UNL     1      -7.571   6.664  69.754  1.00  0.00    -0.099 OA 
HETATM   23  C   UNL     1      -8.105   7.539  68.029  1.00  0.00    -0.124 C  
HETATM   24  C   UNL     1      -8.627   8.754  67.481  1.00  0.00    -0.127 C  
ENDROOT
BRANCH  11  25
HETATM   25  C   UNL     1     -11.199   9.428  71.761  1.00  0.00    -0.289 C  
BRANCH  25  26
HETATM   26  C   UNL     1     -11.992  10.159  70.660  1.00  0.00    -0.423 C  
HETATM   27  C   UNL     1     -11.279  10.930  69.556  1.00  0.00    -0.340 C  
HETATM   28  C   UNL     1     -12.101  11.674  70.559  1.00  0.00    -0.458 C  
ENDBRANCH  25  26
ENDBRANCH  11  25
BRANCH  24  29
HETATM   29  C   UNL     1      -7.538   9.892  67.798  1.00  0.00    -0.090 C  
HETATM   30  N   UNL     1      -7.909  11.267  67.607  1.00  0.00    -0.113 N  
HETATM   31  O   UNL     1      -6.442   9.522  68.184  1.00  0.00    -0.056 OA 
HETATM   32  C   UNL     1      -7.123  12.562  67.908  1.00  0.00    -0.111 C  
HETATM   33  H   UNL     1      -8.838  11.409  67.210  1.00  0.00     0.000 HD 
HETATM   34  C   UNL     1      -7.910  13.936  67.544  1.00  0.00    -0.181 A  
HETATM   35  C   UNL     1      -5.825  12.591  67.083  1.00  0.00    -0.020 C  
HETATM   36  C   UNL     1      -6.775  12.654  69.411  1.00  0.00    -0.022 C  
HETATM   37  N   UNL     1      -7.793  15.090  68.043  1.00  0.00    -0.118 NA 
HETATM   38  C   UNL     1      -8.712  15.904  67.262  1.00  0.00    -0.187 A  
HETATM   39  O   UNL     1      -8.787  13.867  66.507  1.00  0.00    -0.141 OA 
HETATM   40  N   UNL     1      -9.308  15.140  66.324  1.00  0.00    -0.298 NA 
BRANCH  38  41
HETATM   41  C   UNL     1      -9.007  17.359  67.409  1.00  0.00    -0.232 A  
HETATM   42  C   UNL     1      -7.995  18.311  67.597  1.00  0.00    -0.245 A  
HETATM   43  C   UNL     1      -8.296  19.691  67.672  1.00  0.00    -0.343 A  
HETATM   44  C   UNL     1      -9.613  20.142  67.582  1.00  0.00    -0.534 A  
HETATM   45  C   UNL     1     -10.623  19.222  67.353  1.00  0.00    -0.594 A  
HETATM   46  C   UNL     1     -10.326  17.851  67.266  1.00  0.00    -0.374 A  
ENDBRANCH  38  41
ENDBRANCH  24  29
TORSDOF 4
ENDMDL
MODEL       11
REMARK 921   NORMALIZED FREE ENERGY PREDICTED BY IDOCK:   -6.85 KCAL/MOL
REMARK 922        TOTAL FREE ENERGY PREDICTED BY IDOCK:  -10.21 KCAL/MOL
REMARK 923 INTER-LIGAND FREE ENERGY PREDICTED BY IDOCK:   -9.12 KCAL/MOL
REMARK 924 INTRA-LIGAND FREE ENERGY PREDICTED BY IDOCK:   -1.09 KCAL/MOL
REMARK 927      BINDING AFFINITY PREDICTED BY RF-SCORE:    0.00 PKD
ROOT
HETATM    1  C   UNL     1      -7.387   7.655  70.418  1.00  0.00    -0.071 C  
HETATM    2  O   UNL     1      -7.579   7.905  71.880  1.00  0.00    -0.074 OA 
HETATM    3  C   UNL     1      -8.536   6.991  72.322  1.00  0.00    -0.110 A  
HETATM    4  C   UNL     1      -8.980   6.171  71.314  1.00  0.00    -0.140 A  
HETATM    5  C   UNL     1     -10.191   5.468  71.162  1.00  0.00    -0.285 A  
HETATM    6  C   UNL     1     -11.091   5.768  72.164  1.00  0.00    -0.327 A  
HETATM    7  C   UNL     1     -10.401   4.972  69.602  1.00  0.00    -0.260 C  
HETATM    8  C   UNL     1      -9.944   5.940  68.224  1.00  0.00    -0.146 C  
HETATM    9  C   UNL     1     -10.637   6.486  73.322  1.00  0.00    -0.301 A  
HETATM   10  C   UNL     1      -9.330   7.032  73.435  1.00  0.00    -0.167 A  
HETATM   11  N   UNL     1      -8.923   4.988  67.578  1.00  0.00    -0.109 NA 
HETATM   12  C   UNL     1      -7.843   4.441  68.392  1.00  0.00    -0.079 C  
HETATM   13  O   UNL     1      -8.934   7.676  74.565  1.00  0.00    -0.434 OA 
HETATM   14  H   UNL     1     -11.165   7.813  70.412  1.00  0.00     0.000 HD 
HETATM   15  C   UNL     1      -7.594   5.081  69.757  1.00  0.00    -0.060 C  
HETATM   16  H   UNL     1      -6.619  10.070  68.182  1.00  0.00     0.000 HD 
HETATM   17  H   UNL     1      -9.485   7.705  75.339  1.00  0.00     0.000 HD 
HETATM   18  C   UNL     1      -8.339   6.495  70.043  1.00  0.00    -0.134 C  
HETATM   19  O   UNL     1      -6.472   9.353  68.787  1.00  0.00    -0.047 OA 
HETATM   20  C   UNL     1      -9.788   7.071  69.330  1.00  0.00    -0.160 C  
HETATM   21  C   UNL     1      -7.643   8.907  69.362  1.00  0.00    -0.081 C  
HETATM   22  O   UNL     1     -11.258   7.137  69.751  1.00  0.00    -0.243 OA 
HETATM   23  C   UNL     1      -9.834   8.551  69.756  1.00  0.00    -0.186 C  
HETATM   24  C   UNL     1      -8.903   9.235  68.910  1.00  0.00    -0.135 C  
ENDROOT
BRANCH  11  25
HETATM   25  C   UNL     1      -8.529   5.037  66.148  1.00  0.00    -0.114 C  
BRANCH  25  26
HETATM   26  C   UNL     1      -7.408   6.070  65.923  1.00  0.00    -0.076 C  
HETATM   27  C   UNL     1      -7.630   7.294  65.042  1.00  0.00    -0.107 C  
HETATM   28  C   UNL     1      -6.665   6.240  64.605  1.00  0.00    -0.038 C  
ENDBRANCH  25  26
ENDBRANCH  11  25
BRANCH  24  29
HETATM   29  C   UNL     1      -9.783  10.031  67.827  1.00  0.00    -0.150 C  
HETATM   30  N   UNL     1      -9.825  11.465  67.900  1.00  0.00    -0.175 N  
HETATM   31  O   UNL     1     -10.377   9.366  66.994  1.00  0.00    -0.240 OA 
HETATM   32  C   UNL     1     -10.497  12.491  66.961  1.00  0.00    -0.231 C  
HETATM   33  H   UNL     1      -9.333  11.868  68.698  1.00  0.00     0.000 HD 
HETATM   34  C   UNL     1     -10.306  14.044  67.402  1.00  0.00    -0.259 A  
HETATM   35  C   UNL     1     -12.016  12.250  66.924  1.00  0.00    -0.214 C  
HETATM   36  C   UNL     1      -9.927  12.379  65.530  1.00  0.00    -0.260 C  
HETATM   37  N   UNL     1     -10.305  15.088  66.694  1.00  0.00    -0.272 NA 
HETATM   38  C   UNL     1     -10.155  16.166  67.660  1.00  0.00    -0.248 A  
HETATM   39  O   UNL     1     -10.189  14.277  68.736  1.00  0.00    -0.231 OA 
HETATM   40  N   UNL     1     -10.089  15.651  68.905  1.00  0.00    -0.207 NA 
BRANCH  38  41
HETATM   41  C   UNL     1     -10.078  17.633  67.401  1.00  0.00    -0.331 A  
HETATM   42  C   UNL     1     -10.527  18.204  66.202  1.00  0.00    -0.377 A  
HETATM   43  C   UNL     1     -10.498  19.605  66.005  1.00  0.00    -0.622 A  
HETATM   44  C   UNL     1     -10.002  20.456  66.992  1.00  0.00    -0.568 A  
HETATM   45  C   UNL     1      -9.593  19.916  68.200  1.00  0.00    -0.463 A  
HETATM   46  C   UNL     1      -9.631  18.526  68.403  1.00  0.00    -0.383 A  
ENDBRANCH  38  41
ENDBRANCH  24  29
TORSDOF 4
ENDMDL
MODEL       12
REMARK 921   NORMALIZED FREE ENERGY PREDICTED BY IDOCK:   -6.84 KCAL/MOL
REMARK 922        TOTAL FREE ENERGY PREDICTED BY IDOCK:  -10.20 KCAL/MOL
REMARK 923 INTER-LIGAND FREE ENERGY PREDICTED BY IDOCK:   -8.79 KCAL/MOL
REMARK 924 INTRA-LIGAND FREE ENERGY PREDICTED BY IDOCK:   -1.40 KCAL/MOL
REMARK 927      BINDING AFFINITY PREDICTED BY RF-SCORE:    0.00 PKD
ROOT
HETATM    1  C   UNL     1      -8.675   7.126  70.011  1.00  0.00    -0.141 C  
HETATM    2  O   UNL     1      -9.222   6.803  71.366  1.00  0.00    -0.153 OA 
HETATM    3  C   UNL     1     -10.499   7.362  71.426  1.00  0.00    -0.202 A  
HETATM    4  C   UNL     1     -10.846   8.002  70.262  1.00  0.00    -0.241 A  
HETATM    5  C   UNL     1     -11.758   9.047  70.020  1.00  0.00     0.170 A  
HETATM    6  C   UNL     1     -12.289   9.550  71.189  1.00  0.00    -0.410 A  
HETATM    7  C   UNL     1     -11.503   9.731  68.540  1.00  0.00     0.146 C  
HETATM    8  C   UNL     1      -9.913   9.983  67.868  1.00  0.00    -0.154 C  
HETATM    9  C   UNL     1     -12.092   8.829  72.417  1.00  0.00    -0.379 A  
HETATM   10  C   UNL     1     -11.256   7.684  72.519  1.00  0.00    -0.346 A  
HETATM   11  N   UNL     1     -10.040   9.128  66.596  1.00  0.00    -0.265 NA 
HETATM   12  C   UNL     1     -10.502   7.748  66.706  1.00  0.00    -0.248 C  
HETATM   13  O   UNL     1     -11.127   7.014  73.695  1.00  0.00    -0.541 OA 
HETATM   14  H   UNL     1      -9.825  10.607  70.932  1.00  0.00     0.000 HD 
HETATM   15  C   UNL     1     -10.535   7.125  68.102  1.00  0.00    -0.244 C  
HETATM   16  H   UNL     1      -5.397   7.653  69.382  1.00  0.00     0.000 HD 
HETATM   17  H   UNL     1     -11.652   7.238  74.454  1.00  0.00     0.000 HD 
HETATM   18  C   UNL     1      -9.769   7.939  69.279  1.00  0.00    -0.159 C  
HETATM   19  O   UNL     1      -6.216   7.175  69.438  1.00  0.00    -0.032 OA 
HETATM   20  C   UNL     1      -9.456   9.623  69.348  1.00  0.00    -0.192 C  
HETATM   21  C   UNL     1      -7.246   7.959  69.913  1.00  0.00    -0.066 C  
HETATM   22  O   UNL     1     -10.098  10.823  70.047  1.00  0.00     0.058 OA 
HETATM   23  C   UNL     1      -8.464   9.757  70.518  1.00  0.00    -0.002 C  
HETATM   24  C   UNL     1      -7.194   9.332  70.011  1.00  0.00    -0.078 C  
ENDROOT
BRANCH  11  25
HETATM   25  C   UNL     1      -9.196   9.303  65.388  1.00  0.00    -0.222 C  
BRANCH  25  26
HETATM   26  C   UNL     1      -9.399  10.702  64.775  1.00  0.00    -0.276 C  
HETATM   27  C   UNL     1     -10.796  11.272  64.558  1.00  0.00    -0.354 C  
HETATM   28  C   UNL     1      -9.945  10.943  63.375  1.00  0.00    -0.414 C  
ENDBRANCH  25  26
ENDBRANCH  11  25
BRANCH  24  29
HETATM   29  C   UNL     1      -6.335  10.670  69.778  1.00  0.00    -0.099 C  
HETATM   30  N   UNL     1      -7.010  11.839  69.286  1.00  0.00    -0.232 N  
HETATM   31  O   UNL     1      -5.143  10.618  70.031  1.00  0.00    -0.038 OA 
HETATM   32  C   UNL     1      -6.480  13.271  69.053  1.00  0.00    -0.102 C  
HETATM   33  H   UNL     1      -7.993  11.701  69.054  1.00  0.00     0.000 HD 
HETATM   34  C   UNL     1      -7.581  14.320  68.479  1.00  0.00    -0.127 A  
HETATM   35  C   UNL     1      -5.343  13.247  68.016  1.00  0.00    -0.109 C  
HETATM   36  C   UNL     1      -5.954  13.882  70.371  1.00  0.00    -0.160 C  
HETATM   37  N   UNL     1      -7.641  15.574  68.602  1.00  0.00    -0.133 NA 
HETATM   38  C   UNL     1      -8.809  15.947  67.819  1.00  0.00    -0.175 A  
HETATM   39  O   UNL     1      -8.558  13.792  67.694  1.00  0.00    -0.163 OA 
HETATM   40  N   UNL     1      -9.355  14.844  67.268  1.00  0.00    -0.199 NA 
BRANCH  38  41
HETATM   41  C   UNL     1      -9.380  17.309  67.607  1.00  0.00    -0.237 A  
HETATM   42  C   UNL     1      -9.223  18.340  68.544  1.00  0.00    -0.335 A  
HETATM   43  C   UNL     1      -9.722  19.639  68.291  1.00  0.00    -0.500 A  
HETATM   44  C   UNL     1     -10.404  19.926  67.109  1.00  0.00    -0.581 A  
HETATM   45  C   UNL     1     -10.533  18.934  66.151  1.00  0.00    -0.521 A  
HETATM   46  C   UNL     1     -10.028  17.644  66.394  1.00  0.00    -0.337 A  
ENDBRANCH  38  41
ENDBRANCH  24  29
TORSDOF 4
ENDMDL
MODEL       13
REMARK 921   NORMALIZED FREE ENERGY PREDICTED BY IDOCK:   -6.82 KCAL/MOL
REMARK 922        TOTAL FREE ENERGY PREDICTED BY IDOCK:  -10.17 KCAL/MOL
REMARK 923 INTER-LIGAND FREE ENERGY PREDICTED BY IDOCK:   -8.60 KCAL/MOL
REMARK 924 INTRA-LIGAND FREE ENERGY PREDICTED BY IDOCK:   -1.57 KCAL/MOL
REMARK 927      BINDING AFFINITY PREDICTED BY RF-SCORE:    0.00 PKD
ROOT
HETATM    1  C   UNL     1      -9.259  15.733  65.725  1.00  0.00    -0.219 C  
HETATM    2  O   UNL     1     -10.101  16.885  65.279  1.00  0.00    -0.577 OA 
HETATM    3  C   UNL     1      -9.788  17.958  66.113  1.00  0.00    -0.249 A  
HETATM    4  C   UNL     1      -8.832  17.636  67.044  1.00  0.00    -0.256 A  
HETATM    5  C   UNL     1      -8.554  18.186  68.310  1.00  0.00    -0.298 A  
HETATM    6  C   UNL     1      -9.489  19.131  68.679  1.00  0.00    -0.460 A  
HETATM    7  C   UNL     1      -7.590  17.183  69.198  1.00  0.00    -0.126 C  
HETATM    8  C   UNL     1      -7.747  15.446  69.178  1.00  0.00    -0.207 C  
HETATM    9  C   UNL     1     -10.413  19.624  67.695  1.00  0.00    -0.579 A  
HETATM   10  C   UNL     1     -10.509  19.089  66.383  1.00  0.00    -0.446 A  
HETATM   11  N   UNL     1      -6.347  15.074  68.662  1.00  0.00    -0.085 NA 
HETATM   12  C   UNL     1      -5.842  15.707  67.448  1.00  0.00     0.004 C  
HETATM   13  O   UNL     1     -11.376  19.611  65.475  1.00  0.00    -0.140 OA 
HETATM   14  H   UNL     1     -10.604  16.718  69.118  1.00  0.00     0.000 HD 
HETATM   15  C   UNL     1      -6.843  16.469  66.581  1.00  0.00    -0.161 C  
HETATM   16  H   UNL     1     -10.235  12.503  65.536  1.00  0.00     0.000 HD 
HETATM   17  H   UNL     1     -11.877  20.397  65.661  1.00  0.00     0.000 HD 
HETATM   18  C   UNL     1      -8.415  16.242  66.918  1.00  0.00    -0.257 C  
HETATM   19  O   UNL     1      -9.802  13.307  65.276  1.00  0.00    -0.196 OA 
HETATM   20  C   UNL     1      -9.103  15.783  68.420  1.00  0.00    -0.188 C  
HETATM   21  C   UNL     1     -10.015  14.329  66.178  1.00  0.00    -0.314 C  
HETATM   22  O   UNL     1      -9.793  16.516  69.571  1.00  0.00    -0.197 OA 
HETATM   23  C   UNL     1     -10.561  15.444  68.059  1.00  0.00    -0.263 C  
HETATM   24  C   UNL     1     -10.527  14.152  67.444  1.00  0.00    -0.271 C  
ENDROOT
BRANCH  11  25
HETATM   25  C   UNL     1      -5.710  13.749  68.865  1.00  0.00    -0.082 C  
BRANCH  25  26
HETATM   26  C   UNL     1      -5.995  12.814  67.674  1.00  0.00    -0.150 C  
HETATM   27  C   UNL     1      -7.352  12.141  67.509  1.00  0.00    -0.135 C  
HETATM   28  C   UNL     1      -6.149  11.305  67.800  1.00  0.00    -0.048 C  
ENDBRANCH  25  26
ENDBRANCH  11  25
BRANCH  24  29
HETATM   29  C   UNL     1     -11.078  13.119  68.544  1.00  0.00    -0.266 C  
HETATM   30  N   UNL     1     -10.903  11.712  68.311  1.00  0.00    -0.207 N  
HETATM   31  O   UNL     1     -11.625  13.591  69.528  1.00  0.00    -0.279 OA 
HETATM   32  C   UNL     1     -11.240  10.503  69.211  1.00  0.00    -0.262 C  
HETATM   33  H   UNL     1     -10.492  11.475  67.408  1.00  0.00     0.000 HD 
HETATM   34  C   UNL     1     -10.880   9.054  68.569  1.00  0.00    -0.013 A  
HETATM   35  C   UNL     1     -12.751  10.469  69.500  1.00  0.00     0.347 C  
HETATM   36  C   UNL     1     -10.467  10.583  70.547  1.00  0.00     0.281 C  
HETATM   37  N   UNL     1     -10.596   7.966  69.142  1.00  0.00    -0.206 NA 
HETATM   38  C   UNL     1     -10.438   7.024  68.044  1.00  0.00    -0.208 A  
HETATM   39  O   UNL     1     -10.949   8.967  67.213  1.00  0.00    -0.124 OA 
HETATM   40  N   UNL     1     -10.661   7.653  66.872  1.00  0.00    -0.341 NA 
BRANCH  38  41
HETATM   41  C   UNL     1     -10.086   5.576  68.115  1.00  0.00    -0.221 A  
HETATM   42  C   UNL     1      -9.882   4.799  66.966  1.00  0.00    -0.224 A  
HETATM   43  C   UNL     1      -9.490   3.443  67.062  1.00  0.00    -0.188 A  
HETATM   44  C   UNL     1      -9.315   2.835  68.305  1.00  0.00    -0.258 A  
HETATM   45  C   UNL     1      -9.471   3.595  69.452  1.00  0.00    -0.249 A  
HETATM   46  C   UNL     1      -9.849   4.946  69.360  1.00  0.00    -0.281 A  
ENDBRANCH  38  41
ENDBRANCH  24  29
TORSDOF 4
ENDMDL
MODEL       14
REMARK 921   NORMALIZED FREE ENERGY PREDICTED BY IDOCK:   -6.80 KCAL/MOL
REMARK 922        TOTAL FREE ENERGY PREDICTED BY IDOCK:  -10.14 KCAL/MOL
REMARK 923 INTER-LIGAND FREE ENERGY PREDICTED BY IDOCK:   -8.28 KCAL/MOL
REMARK 924 INTRA-LIGAND FREE ENERGY PREDICTED BY IDOCK:   -1.86 KCAL/MOL
REMARK 927      BINDING AFFINITY PREDICTED BY RF-SCORE:    0.00 PKD
ROOT
HETATM    1  C   UNL     1      -7.964   7.748  69.592  1.00  0.00    -0.116 C  
HETATM    2  O   UNL     1      -8.461   6.387  69.963  1.00  0.00    -0.131 OA 
HETATM    3  C   UNL     1      -8.657   5.692  68.770  1.00  0.00    -0.104 A  
HETATM    4  C   UNL     1      -8.335   6.444  67.667  1.00  0.00    -0.117 A  
HETATM    5  C   UNL     1      -8.781   6.365  66.334  1.00  0.00    -0.140 A  
HETATM    6  C   UNL     1      -9.784   5.431  66.180  1.00  0.00    -0.165 A  
HETATM    7  C   UNL     1      -8.418   7.742  65.500  1.00  0.00    -0.146 C  
HETATM    8  C   UNL     1      -8.512   9.336  66.205  1.00  0.00    -0.127 C  
HETATM    9  C   UNL     1     -10.053   4.508  67.248  1.00  0.00    -0.138 A  
HETATM   10  C   UNL     1      -9.429   4.591  68.522  1.00  0.00    -0.152 A  
HETATM   11  N   UNL     1      -7.044   9.768  66.041  1.00  0.00    -0.097 NA 
HETATM   12  C   UNL     1      -5.983   8.891  66.524  1.00  0.00    -0.056 C  
HETATM   13  O   UNL     1      -9.691   3.674  69.491  1.00  0.00    -0.177 OA 
HETATM   14  H   UNL     1     -10.921   7.631  67.240  1.00  0.00     0.000 HD 
HETATM   15  C   UNL     1      -6.384   7.740  67.445  1.00  0.00    -0.055 C  
HETATM   16  H   UNL     1      -8.638  10.545  71.366  1.00  0.00     0.000 HD 
HETATM   17  H   UNL     1     -10.227   2.909  69.319  1.00  0.00     0.000 HD 
HETATM   18  C   UNL     1      -7.892   7.782  68.047  1.00  0.00    -0.124 C  
HETATM   19  O   UNL     1      -8.146   9.787  71.071  1.00  0.00    -0.213 OA 
HETATM   20  C   UNL     1      -9.264   8.553  67.367  1.00  0.00    -0.140 C  
HETATM   21  C   UNL     1      -8.822   9.070  70.107  1.00  0.00    -0.182 C  
HETATM   22  O   UNL     1     -10.472   8.099  66.546  1.00  0.00    -0.252 OA 
HETATM   23  C   UNL     1     -10.302   8.507  68.503  1.00  0.00    -0.230 C  
HETATM   24  C   UNL     1      -9.925   9.535  69.426  1.00  0.00    -0.199 C  
ENDROOT
BRANCH  11  25
HETATM   25  C   UNL     1      -6.591  11.181  66.026  1.00  0.00     0.035 C  
BRANCH  25  26
HETATM   26  C   UNL     1      -7.323  12.004  67.103  1.00  0.00    -0.134 C  
HETATM   27  C   UNL     1      -6.652  13.196  67.775  1.00  0.00    -0.151 C  
HETATM   28  C   UNL     1      -6.963  11.977  68.581  1.00  0.00    -0.096 C  
ENDBRANCH  25  26
ENDBRANCH  11  25
BRANCH  24  29
HETATM   29  C   UNL     1     -10.959  10.743  69.196  1.00  0.00    -0.244 C  
HETATM   30  N   UNL     1     -10.439  12.077  69.087  1.00  0.00    -0.425 N  
HETATM   31  O   UNL     1     -12.144  10.458  69.129  1.00  0.00    -0.147 OA 
HETATM   32  C   UNL     1     -11.163  13.407  68.780  1.00  0.00    -0.275 C  
HETATM   33  H   UNL     1      -9.433  12.160  69.237  1.00  0.00     0.000 HD 
HETATM   34  C   UNL     1     -10.199  14.715  68.744  1.00  0.00    -0.242 A  
HETATM   35  C   UNL     1     -12.217  13.693  69.864  1.00  0.00    -0.367 C  
HETATM   36  C   UNL     1     -11.854  13.348  67.400  1.00  0.00    -0.418 C  
HETATM   37  N   UNL     1     -10.336  15.801  68.116  1.00  0.00    -0.237 NA 
HETATM   38  C   UNL     1      -9.190  16.595  68.536  1.00  0.00    -0.234 A  
HETATM   39  O   UNL     1      -9.106  14.676  69.554  1.00  0.00     0.047 OA 
HETATM   40  N   UNL     1      -8.452  15.891  69.419  1.00  0.00    -0.242 NA 
BRANCH  38  41
HETATM   41  C   UNL     1      -8.818  17.975  68.108  1.00  0.00    -0.277 A  
HETATM   42  C   UNL     1      -7.487  18.412  68.071  1.00  0.00    -0.263 A  
HETATM   43  C   UNL     1      -7.156  19.706  67.603  1.00  0.00    -0.275 A  
HETATM   44  C   UNL     1      -8.149  20.590  67.185  1.00  0.00    -0.358 A  
HETATM   45  C   UNL     1      -9.467  20.164  67.174  1.00  0.00    -0.537 A  
HETATM   46  C   UNL     1      -9.798  18.875  67.627  1.00  0.00    -0.383 A  
ENDBRANCH  38  41
ENDBRANCH  24  29
TORSDOF 4
ENDMDL
MODEL       15
REMARK 921   NORMALIZED FREE ENERGY PREDICTED BY IDOCK:   -6.70 KCAL/MOL
REMARK 922        TOTAL FREE ENERGY PREDICTED BY IDOCK:  -10.02 KCAL/MOL
REMARK 923 INTER-LIGAND FREE ENERGY PREDICTED BY IDOCK:   -8.90 KCAL/MOL
REMARK 924 INTRA-LIGAND FREE ENERGY PREDICTED BY IDOCK:   -1.12 KCAL/MOL
REMARK 927      BINDING AFFINITY PREDICTED BY RF-SCORE:    0.00 PKD
ROOT
HETATM    1  C   UNL     1     -10.688   6.718  68.881  1.00  0.00    -0.240 C  
HETATM    2  O   UNL     1     -11.297   6.232  67.604  1.00  0.00    -0.246 OA 
HETATM    3  C   UNL     1     -10.530   5.146  67.182  1.00  0.00    -0.162 A  
HETATM    4  C   UNL     1      -9.498   4.867  68.045  1.00  0.00    -0.173 A  
HETATM    5  C   UNL     1      -8.263   4.227  67.829  1.00  0.00    -0.095 A  
HETATM    6  C   UNL     1      -8.053   3.946  66.495  1.00  0.00    -0.097 A  
HETATM    7  C   UNL     1      -7.218   4.512  69.074  1.00  0.00    -0.052 C  
HETATM    8  C   UNL     1      -7.108   6.049  69.894  1.00  0.00    -0.072 C  
HETATM    9  C   UNL     1      -9.148   4.065  65.572  1.00  0.00    -0.142 A  
HETATM   10  C   UNL     1     -10.416   4.594  65.936  1.00  0.00    -0.268 A  
HETATM   11  N   UNL     1      -7.473   5.598  71.319  1.00  0.00    -0.091 NA 
HETATM   12  C   UNL     1      -8.687   4.818  71.532  1.00  0.00    -0.121 C  
HETATM   13  O   UNL     1     -11.433   4.656  65.036  1.00  0.00    -1.052 OA 
HETATM   14  H   UNL     1      -7.513   6.563  66.835  1.00  0.00     0.000 HD 
HETATM   15  C   UNL     1      -9.695   4.755  70.386  1.00  0.00    -0.289 C  
HETATM   16  H   UNL     1     -10.693   9.955  69.854  1.00  0.00     0.000 HD 
HETATM   17  H   UNL     1     -11.354   4.273  64.171  1.00  0.00     0.000 HD 
HETATM   18  C   UNL     1      -9.474   5.802  69.165  1.00  0.00    -0.157 C  
HETATM   19  O   UNL     1     -10.980   9.051  69.805  1.00  0.00    -0.231 OA 
HETATM   20  C   UNL     1      -8.003   6.531  68.672  1.00  0.00    -0.114 C  
HETATM   21  C   UNL     1     -10.187   8.297  68.967  1.00  0.00    -0.217 C  
HETATM   22  O   UNL     1      -6.978   6.274  67.566  1.00  0.00    -0.064 OA 
HETATM   23  C   UNL     1      -8.456   7.626  67.687  1.00  0.00    -0.117 C  
HETATM   24  C   UNL     1      -8.958   8.698  68.492  1.00  0.00    -0.139 C  
ENDROOT
BRANCH  11  25
HETATM   25  C   UNL     1      -7.108   6.348  72.546  1.00  0.00    -0.078 C  
BRANCH  25  26
HETATM   26  C   UNL     1      -8.368   6.863  73.269  1.00  0.00    -0.131 C  
HETATM   27  C   UNL     1      -9.016   8.185  72.875  1.00  0.00    -0.328 C  
HETATM   28  C   UNL     1      -8.373   8.054  74.218  1.00  0.00    -0.285 C  
ENDBRANCH  25  26
ENDBRANCH  11  25
BRANCH  24  29
HETATM   29  C   UNL     1      -7.827   9.840  68.471  1.00  0.00    -0.081 C  
HETATM   30  N   UNL     1      -8.203  11.168  68.072  1.00  0.00    -0.120 N  
HETATM   31  O   UNL     1      -6.698   9.512  68.795  1.00  0.00    -0.051 OA 
HETATM   32  C   UNL     1      -7.373  12.471  68.040  1.00  0.00    -0.111 C  
HETATM   33  H   UNL     1      -9.170  11.265  67.761  1.00  0.00     0.000 HD 
HETATM   34  C   UNL     1      -8.183  13.780  67.518  1.00  0.00    -0.188 A  
HETATM   35  C   UNL     1      -6.178  12.308  67.085  1.00  0.00    -0.118 C  
HETATM   36  C   UNL     1      -6.854  12.824  69.452  1.00  0.00     0.039 C  
HETATM   37  N   UNL     1      -7.996  15.001  67.780  1.00  0.00    -0.131 NA 
HETATM   38  C   UNL     1      -8.990  15.688  66.969  1.00  0.00    -0.222 A  
HETATM   39  O   UNL     1      -9.173  13.551  66.615  1.00  0.00    -0.248 OA 
HETATM   40  N   UNL     1      -9.698  14.785  66.260  1.00  0.00    -0.287 NA 
BRANCH  38  41
HETATM   41  C   UNL     1      -9.250  17.154  66.877  1.00  0.00    -0.255 A  
HETATM   42  C   UNL     1     -10.476  17.720  67.254  1.00  0.00    -0.356 A  
HETATM   43  C   UNL     1     -10.676  19.120  67.214  1.00  0.00    -0.585 A  
HETATM   44  C   UNL     1      -9.665  19.975  66.778  1.00  0.00    -0.563 A  
HETATM   45  C   UNL     1      -8.433  19.440  66.440  1.00  0.00    -0.361 A  
HETATM   46  C   UNL     1      -8.227  18.051  66.490  1.00  0.00    -0.298 A  
ENDBRANCH  38  41
ENDBRANCH  24  29
TORSDOF 4
ENDMDL
MODEL       16
REMARK 921   NORMALIZED FREE ENERGY PREDICTED BY IDOCK:   -6.66 KCAL/MOL
REMARK 922        TOTAL FREE ENERGY PREDICTED BY IDOCK:   -9.97 KCAL/MOL
REMARK 923 INTER-LIGAND FREE ENERGY PREDICTED BY IDOCK:   -8.49 KCAL/MOL
REMARK 924 INTRA-LIGAND FREE ENERGY PREDICTED BY IDOCK:   -1.48 KCAL/MOL
REMARK 927      BINDING AFFINITY PREDICTED BY RF-SCORE:    0.00 PKD
ROOT
HETATM    1  C   UNL     1      -9.388   5.019  67.366  1.00  0.00    -0.127 C  
HETATM    2  O   UNL     1      -9.198   4.048  66.244  1.00  0.00    -0.138 OA 
HETATM    3  C   UNL     1      -7.822   3.881  66.088  1.00  0.00    -0.090 A  
HETATM    4  C   UNL     1      -7.099   4.625  66.987  1.00  0.00    -0.072 A  
HETATM    5  C   UNL     1      -5.785   5.127  66.923  1.00  0.00    -0.018 A  
HETATM    6  C   UNL     1      -5.204   4.900  65.693  1.00  0.00    -0.012 A  
HETATM    7  C   UNL     1      -5.538   6.298  68.061  1.00  0.00    -0.008 C  
HETATM    8  C   UNL     1      -6.748   7.478  68.492  1.00  0.00    -0.057 C  
HETATM    9  C   UNL     1      -5.840   3.997  64.773  1.00  0.00    -0.018 A  
HETATM   10  C   UNL     1      -7.118   3.424  65.007  1.00  0.00    -0.065 A  
HETATM   11  N   UNL     1      -6.904   7.141  69.985  1.00  0.00    -0.055 NA 
HETATM   12  C   UNL     1      -7.154   5.760  70.383  1.00  0.00    -0.070 C  
HETATM   13  O   UNL     1      -7.666   2.548  64.123  1.00  0.00    -0.072 OA 
HETATM   14  H   UNL     1      -6.849   7.013  65.401  1.00  0.00     0.000 HD 
HETATM   15  C   UNL     1      -7.558   4.773  69.289  1.00  0.00    -0.056 C  
HETATM   16  H   UNL     1     -11.958   7.208  67.545  1.00  0.00     0.000 HD 
HETATM   17  H   UNL     1      -7.178   2.230  63.373  1.00  0.00     0.000 HD 
HETATM   18  C   UNL     1      -7.973   5.409  67.854  1.00  0.00    -0.096 C  
HETATM   19  O   UNL     1     -11.467   6.411  67.712  1.00  0.00    -0.146 OA 
HETATM   20  C   UNL     1      -7.469   6.910  67.195  1.00  0.00    -0.095 C  
HETATM   21  C   UNL     1     -10.245   6.408  67.073  1.00  0.00    -0.205 C  
HETATM   22  O   UNL     1      -6.418   7.353  66.177  1.00  0.00    -0.043 OA 
HETATM   23  C   UNL     1      -8.398   7.099  65.981  1.00  0.00    -0.134 C  
HETATM   24  C   UNL     1      -9.660   7.521  66.511  1.00  0.00    -0.239 C  
ENDROOT
BRANCH  11  25
HETATM   25  C   UNL     1      -7.439   8.084  70.999  1.00  0.00    -0.071 C  
BRANCH  25  26
HETATM   26  C   UNL     1      -8.977   8.007  71.061  1.00  0.00    -0.160 C  
HETATM   27  C   UNL     1      -9.838   9.238  70.804  1.00  0.00    -0.350 C  
HETATM   28  C   UNL     1      -9.812   8.633  72.169  1.00  0.00    -0.387 C  
ENDBRANCH  25  26
ENDBRANCH  11  25
BRANCH  24  29
HETATM   29  C   UNL     1      -9.766   9.096  66.215  1.00  0.00    -0.274 C  
HETATM   30  N   UNL     1     -10.373   9.940  67.206  1.00  0.00    -0.229 N  
HETATM   31  O   UNL     1      -9.323   9.494  65.150  1.00  0.00    -0.248 OA 
HETATM   32  C   UNL     1     -10.533  11.476  67.245  1.00  0.00    -0.212 C  
HETATM   33  H   UNL     1     -10.759   9.447  68.011  1.00  0.00     0.000 HD 
HETATM   34  C   UNL     1     -11.288  12.048  68.565  1.00  0.00    -0.272 A  
HETATM   35  C   UNL     1     -11.372  11.946  66.044  1.00  0.00    -0.375 C  
HETATM   36  C   UNL     1      -9.153  12.171  67.207  1.00  0.00    -0.181 C  
HETATM   37  N   UNL     1     -11.190  13.175  69.126  1.00  0.00    -0.263 NA 
HETATM   38  C   UNL     1     -12.156  13.111  70.212  1.00  0.00    -0.328 A  
HETATM   39  O   UNL     1     -12.215  11.227  69.128  1.00  0.00    -0.379 OA 
HETATM   40  N   UNL     1     -12.776  11.913  70.196  1.00  0.00     0.080 NA 
BRANCH  38  41
HETATM   41  C   UNL     1     -12.472  14.157  71.228  1.00  0.00    -0.446 A  
HETATM   42  C   UNL     1     -11.527  15.106  71.642  1.00  0.00    -0.445 A  
HETATM   43  C   UNL     1     -11.871  16.125  72.561  1.00  0.00    -0.630 A  
HETATM   44  C   UNL     1     -13.156  16.201  73.097  1.00  0.00    -0.534 A  
HETATM   45  C   UNL     1     -14.116  15.299  72.669  1.00  0.00    -0.476 A  
HETATM   46  C   UNL     1     -13.781  14.292  71.747  1.00  0.00    -0.496 A  
ENDBRANCH  38  41
ENDBRANCH  24  29
TORSDOF 4
ENDMDL
MODEL       17
REMARK 921   NORMALIZED FREE ENERGY PREDICTED BY IDOCK:   -6.61 KCAL/MOL
REMARK 922        TOTAL FREE ENERGY PREDICTED BY IDOCK:   -9.91 KCAL/MOL
REMARK 923 INTER-LIGAND FREE ENERGY PREDICTED BY IDOCK:   -8.15 KCAL/MOL
REMARK 924 INTRA-LIGAND FREE ENERGY PREDICTED BY IDOCK:   -1.76 KCAL/MOL
REMARK 927      BINDING AFFINITY PREDICTED BY RF-SCORE:    0.00 PKD
ROOT
HETATM    1  C   UNL     1      -8.645   7.662  66.390  1.00  0.00    -0.143 C  
HETATM    2  O   UNL     1      -8.251   7.616  64.948  1.00  0.00    -0.137 OA 
HETATM    3  C   UNL     1      -7.000   8.227  64.854  1.00  0.00    -0.074 A  
HETATM    4  C   UNL     1      -6.534   8.655  66.073  1.00  0.00    -0.057 A  
HETATM    5  C   UNL     1      -5.620   9.673  66.404  1.00  0.00    -0.052 A  
HETATM    6  C   UNL     1      -5.236  10.404  65.299  1.00  0.00    -0.102 A  
HETATM    7  C   UNL     1      -5.717  10.064  68.005  1.00  0.00    -0.038 C  
HETATM    8  C   UNL     1      -7.224  10.126  68.881  1.00  0.00    -0.079 C  
HETATM    9  C   UNL     1      -5.559   9.912  63.987  1.00  0.00    -0.097 A  
HETATM   10  C   UNL     1      -6.379   8.773  63.765  1.00  0.00    -0.080 A  
HETATM   11  N   UNL     1      -6.936   9.057  69.950  1.00  0.00    -0.049 NA 
HETATM   12  C   UNL     1      -6.464   7.741  69.534  1.00  0.00    -0.035 C  
HETATM   13  O   UNL     1      -6.630   8.326  62.506  1.00  0.00    -0.087 OA 
HETATM   14  H   UNL     1      -7.674  11.297  66.016  1.00  0.00     0.000 HD 
HETATM   15  C   UNL     1      -6.579   7.386  68.052  1.00  0.00    -0.054 C  
HETATM   16  H   UNL     1     -11.839   7.935  67.461  1.00  0.00     0.000 HD 
HETATM   17  H   UNL     1      -6.199   8.705  61.749  1.00  0.00     0.000 HD 
HETATM   18  C   UNL     1      -7.490   8.371  67.138  1.00  0.00    -0.089 C  
HETATM   19  O   UNL     1     -11.023   7.508  67.227  1.00  0.00    -0.264 OA 
HETATM   20  C   UNL     1      -7.841  10.025  67.419  1.00  0.00    -0.099 C  
HETATM   21  C   UNL     1     -10.069   8.406  66.798  1.00  0.00    -0.303 C  
HETATM   22  O   UNL     1      -7.306  11.357  66.890  1.00  0.00    -0.135 OA 
HETATM   23  C   UNL     1      -8.963  10.332  66.410  1.00  0.00    -0.166 C  
HETATM   24  C   UNL     1     -10.158   9.771  66.964  1.00  0.00    -0.277 C  
ENDROOT
BRANCH  11  25
HETATM   25  C   UNL     1      -7.639   8.975  71.254  1.00  0.00    -0.070 C  
BRANCH  25  26
HETATM   26  C   UNL     1      -9.101   8.527  71.062  1.00  0.00    -0.221 C  
HETATM   27  C   UNL     1     -10.221   9.547  70.895  1.00  0.00    -0.356 C  
HETATM   28  C   UNL     1     -10.183   8.692  72.120  1.00  0.00    -0.394 C  
ENDBRANCH  25  26
ENDBRANCH  11  25
BRANCH  24  29
HETATM   29  C   UNL     1     -11.009  11.008  67.535  1.00  0.00    -0.281 C  
HETATM   30  N   UNL     1     -10.386  12.301  67.587  1.00  0.00    -0.202 N  
HETATM   31  O   UNL     1     -12.151  10.778  67.900  1.00  0.00    -0.407 OA 
HETATM   32  C   UNL     1     -10.970  13.673  67.994  1.00  0.00    -0.250 C  
HETATM   33  H   UNL     1      -9.404  12.316  67.313  1.00  0.00     0.000 HD 
HETATM   34  C   UNL     1      -9.920  14.910  67.913  1.00  0.00    -0.219 A  
HETATM   35  C   UNL     1     -11.452  13.625  69.454  1.00  0.00    -0.343 C  
HETATM   36  C   UNL     1     -12.154  14.057  67.078  1.00  0.00    -0.455 C  
HETATM   37  N   UNL     1     -10.135  16.140  67.727  1.00  0.00    -0.245 NA 
HETATM   38  C   UNL     1      -8.815  16.745  67.823  1.00  0.00    -0.208 A  
HETATM   39  O   UNL     1      -8.614  14.603  68.139  1.00  0.00    -0.153 OA 
HETATM   40  N   UNL     1      -7.898  15.790  68.079  1.00  0.00    -0.130 NA 
BRANCH  38  41
HETATM   41  C   UNL     1      -8.447  18.183  67.675  1.00  0.00    -0.245 A  
HETATM   42  C   UNL     1      -7.113  18.616  67.673  1.00  0.00    -0.219 A  
HETATM   43  C   UNL     1      -6.789  19.978  67.470  1.00  0.00    -0.272 A  
HETATM   44  C   UNL     1      -7.789  20.932  67.286  1.00  0.00    -0.233 A  
HETATM   45  C   UNL     1      -9.110  20.519  67.242  1.00  0.00    -0.473 A  
HETATM   46  C   UNL     1      -9.436  19.165  67.432  1.00  0.00    -0.362 A  
ENDBRANCH  38  41
ENDBRANCH  24  29
TORSDOF 4
ENDMDL
MODEL       18
REMARK 921   NORMALIZED FREE ENERGY PREDICTED BY IDOCK:   -6.54 KCAL/MOL
REMARK 922        TOTAL FREE ENERGY PREDICTED BY IDOCK:   -9.82 KCAL/MOL
REMARK 923 INTER-LIGAND FREE ENERGY PREDICTED BY IDOCK:   -8.00 KCAL/MOL
REMARK 924 INTRA-LIGAND FREE ENERGY PREDICTED BY IDOCK:   -1.82 KCAL/MOL
REMARK 927      BINDING AFFINITY PREDICTED BY RF-SCORE:    0.00 PKD
ROOT
HETATM    1  C   UNL     1      -8.671   8.013  68.558  1.00  0.00    -0.131 C  
HETATM    2  O   UNL     1      -9.337   6.681  68.421  1.00  0.00    -0.126 OA 
HETATM    3  C   UNL     1      -8.795   6.077  67.285  1.00  0.00    -0.107 A  
HETATM    4  C   UNL     1      -7.848   6.863  66.677  1.00  0.00    -0.107 A  
HETATM    5  C   UNL     1      -7.400   6.902  65.342  1.00  0.00    -0.080 A  
HETATM    6  C   UNL     1      -8.138   6.070  64.526  1.00  0.00    -0.126 A  
HETATM    7  C   UNL     1      -6.562   8.290  65.034  1.00  0.00    -0.059 C  
HETATM    8  C   UNL     1      -7.009   9.841  65.697  1.00  0.00    -0.101 C  
HETATM    9  C   UNL     1      -9.028   5.112  65.121  1.00  0.00    -0.129 A  
HETATM   10  C   UNL     1      -9.298   5.064  66.516  1.00  0.00    -0.141 A  
HETATM   11  N   UNL     1      -5.727  10.153  66.488  1.00  0.00    -0.056 NA 
HETATM   12  C   UNL     1      -5.203   9.160  67.419  1.00  0.00    -0.037 C  
HETATM   13  O   UNL     1     -10.122   4.118  67.038  1.00  0.00    -0.239 OA 
HETATM   14  H   UNL     1      -9.610   8.294  64.907  1.00  0.00     0.000 HD 
HETATM   15  C   UNL     1      -6.117   7.995  67.796  1.00  0.00    -0.047 C  
HETATM   16  H   UNL     1     -10.185  10.748  69.845  1.00  0.00     0.000 HD 
HETATM   17  H   UNL     1     -10.471   3.414  66.504  1.00  0.00     0.000 HD 
HETATM   18  C   UNL     1      -7.679   8.133  67.377  1.00  0.00    -0.102 C  
HETATM   19  O   UNL     1      -9.641   9.969  69.829  1.00  0.00    -0.222 OA 
HETATM   20  C   UNL     1      -8.335   9.058  66.092  1.00  0.00    -0.121 C  
HETATM   21  C   UNL     1      -9.621   9.372  68.586  1.00  0.00    -0.147 C  
HETATM   22  O   UNL     1      -8.817   8.761  64.671  1.00  0.00    -0.136 OA 
HETATM   23  C   UNL     1      -9.850   9.036  66.369  1.00  0.00    -0.356 C  
HETATM   24  C   UNL     1     -10.072   9.970  67.431  1.00  0.00    -0.256 C  
ENDROOT
BRANCH  11  25
HETATM   25  C   UNL     1      -5.309  11.519  66.888  1.00  0.00    -0.118 C  
BRANCH  25  26
HETATM   26  C   UNL     1      -6.507  12.323  67.428  1.00  0.00    -0.157 C  
HETATM   27  C   UNL     1      -6.320  13.392  68.499  1.00  0.00    -0.087 C  
HETATM   28  C   UNL     1      -7.082  12.150  68.827  1.00  0.00    -0.110 C  
ENDBRANCH  25  26
ENDBRANCH  11  25
BRANCH  24  29
HETATM   29  C   UNL     1     -10.717  11.275  66.750  1.00  0.00    -0.275 C  
HETATM   30  N   UNL     1     -10.160  12.560  67.070  1.00  0.00    -0.215 N  
HETATM   31  O   UNL     1     -11.657  11.102  65.992  1.00  0.00    -0.082 OA 
HETATM   32  C   UNL     1     -10.501  13.961  66.514  1.00  0.00    -0.282 C  
HETATM   33  H   UNL     1      -9.424  12.545  67.776  1.00  0.00     0.000 HD 
HETATM   34  C   UNL     1      -9.626  15.175  67.147  1.00  0.00    -0.218 A  
HETATM   35  C   UNL     1     -11.970  14.301  66.816  1.00  0.00    -0.462 C  
HETATM   36  C   UNL     1     -10.267  14.015  64.988  1.00  0.00    -0.395 C  
HETATM   37  N   UNL     1      -9.316  16.292  66.646  1.00  0.00    -0.232 NA 
HETATM   38  C   UNL     1      -8.585  16.962  67.711  1.00  0.00    -0.208 A  
HETATM   39  O   UNL     1      -9.208  15.007  68.430  1.00  0.00    -0.181 OA 
HETATM   40  N   UNL     1      -8.532  16.162  68.796  1.00  0.00    -0.222 NA 
BRANCH  38  41
HETATM   41  C   UNL     1      -7.962  18.317  67.690  1.00  0.00    -0.245 A  
HETATM   42  C   UNL     1      -7.309  18.857  68.808  1.00  0.00    -0.356 A  
HETATM   43  C   UNL     1      -6.673  20.119  68.743  1.00  0.00    -0.314 A  
HETATM   44  C   UNL     1      -6.696  20.871  67.570  1.00  0.00    -0.422 A  
HETATM   45  C   UNL     1      -7.298  20.339  66.442  1.00  0.00    -0.300 A  
HETATM   46  C   UNL     1      -7.921  19.080  66.499  1.00  0.00    -0.294 A  
ENDBRANCH  38  41
ENDBRANCH  24  29
TORSDOF 4
ENDMDL
MODEL       19
REMARK 921   NORMALIZED FREE ENERGY PREDICTED BY IDOCK:   -6.43 KCAL/MOL
REMARK 922        TOTAL FREE ENERGY PREDICTED BY IDOCK:   -9.69 KCAL/MOL
REMARK 923 INTER-LIGAND FREE ENERGY PREDICTED BY IDOCK:   -8.30 KCAL/MOL
REMARK 924 INTRA-LIGAND FREE ENERGY PREDICTED BY IDOCK:   -1.38 KCAL/MOL
REMARK 927      BINDING AFFINITY PREDICTED BY RF-SCORE:    0.00 PKD
ROOT
HETATM    1  C   UNL     1      -9.354   6.944  68.267  1.00  0.00    -0.125 C  
HETATM    2  O   UNL     1      -8.076   6.893  67.492  1.00  0.00    -0.114 OA 
HETATM    3  C   UNL     1      -7.047   7.147  68.399  1.00  0.00    -0.085 A  
HETATM    4  C   UNL     1      -7.512   7.347  69.675  1.00  0.00    -0.093 A  
HETATM    5  C   UNL     1      -6.956   8.053  70.759  1.00  0.00    -0.045 A  
HETATM    6  C   UNL     1      -5.806   8.727  70.401  1.00  0.00    -0.027 A  
HETATM    7  C   UNL     1      -8.087   8.343  71.925  1.00  0.00    -0.193 C  
HETATM    8  C   UNL     1      -9.745   8.750  71.564  1.00  0.00    -0.291 C  
HETATM    9  C   UNL     1      -5.186   8.434  69.139  1.00  0.00    -0.031 A  
HETATM   10  C   UNL     1      -5.770   7.579  68.166  1.00  0.00    -0.027 A  
HETATM   11  N   UNL     1     -10.448   7.572  72.260  1.00  0.00    -0.218 NA 
HETATM   12  C   UNL     1     -10.021   6.209  71.963  1.00  0.00    -0.172 C  
HETATM   13  O   UNL     1      -5.129   7.305  66.999  1.00  0.00    -0.016 OA 
HETATM   14  H   UNL     1      -7.881  10.196  69.511  1.00  0.00     0.000 HD 
HETATM   15  C   UNL     1      -9.115   6.003  70.749  1.00  0.00    -0.161 C  
HETATM   16  H   UNL     1     -12.296   7.998  66.978  1.00  0.00     0.000 HD 
HETATM   17  H   UNL     1      -4.243   7.605  66.837  1.00  0.00     0.000 HD 
HETATM   18  C   UNL     1      -8.968   7.259  69.731  1.00  0.00    -0.142 C  
HETATM   19  O   UNL     1     -11.625   7.383  67.250  1.00  0.00     0.524 OA 
HETATM   20  C   UNL     1      -9.167   8.923  70.094  1.00  0.00    -0.180 C  
HETATM   21  C   UNL     1     -10.526   8.016  67.791  1.00  0.00    -0.214 C  
HETATM   22  O   UNL     1      -8.227  10.093  70.390  1.00  0.00    -0.107 OA 
HETATM   23  C   UNL     1      -9.199   9.592  68.707  1.00  0.00    -0.140 C  
HETATM   24  C   UNL     1     -10.504   9.339  68.176  1.00  0.00    -0.263 C  
ENDROOT
BRANCH  11  25
HETATM   25  C   UNL     1     -11.865   7.592  72.701  1.00  0.00    -0.218 C  
BRANCH  25  26
HETATM   26  C   UNL     1     -12.742   8.361  71.695  1.00  0.00    -0.358 C  
HETATM   27  C   UNL     1     -13.368   9.702  72.059  1.00  0.00    -0.547 C  
HETATM   28  C   UNL     1     -14.250   8.518  71.832  1.00  0.00    -0.536 C  
ENDBRANCH  25  26
ENDBRANCH  11  25
BRANCH  24  29
HETATM   29  C   UNL     1     -11.317  10.717  68.313  1.00  0.00    -0.309 C  
HETATM   30  N   UNL     1     -10.596  11.953  68.188  1.00  0.00    -0.201 N  
HETATM   31  O   UNL     1     -12.517  10.638  68.522  1.00  0.00    -0.169 OA 
HETATM   32  C   UNL     1     -11.109  13.411  68.183  1.00  0.00    -0.258 C  
HETATM   33  H   UNL     1      -9.586  11.852  68.087  1.00  0.00     0.000 HD 
HETATM   34  C   UNL     1      -9.951  14.539  68.014  1.00  0.00    -0.222 A  
HETATM   35  C   UNL     1     -11.810  13.724  69.516  1.00  0.00    -0.394 C  
HETATM   36  C   UNL     1     -12.100  13.638  67.019  1.00  0.00    -0.423 C  
HETATM   37  N   UNL     1     -10.024  15.703  67.533  1.00  0.00    -0.229 NA 
HETATM   38  C   UNL     1      -8.685  16.242  67.716  1.00  0.00    -0.179 A  
HETATM   39  O   UNL     1      -8.729  14.222  68.519  1.00  0.00    -0.176 OA 
HETATM   40  N   UNL     1      -7.907  15.323  68.324  1.00  0.00    -0.114 NA 
BRANCH  38  41
HETATM   41  C   UNL     1      -8.170  17.586  67.324  1.00  0.00    -0.222 A  
HETATM   42  C   UNL     1      -7.273  17.762  66.262  1.00  0.00    -0.331 A  
HETATM   43  C   UNL     1      -6.847  19.053  65.871  1.00  0.00    -0.296 A  
HETATM   44  C   UNL     1      -7.294  20.188  66.547  1.00  0.00    -0.308 A  
HETATM   45  C   UNL     1      -8.214  20.040  67.572  1.00  0.00    -0.369 A  
HETATM   46  C   UNL     1      -8.647  18.759  67.955  1.00  0.00    -0.324 A  
ENDBRANCH  38  41
ENDBRANCH  24  29
TORSDOF 4
ENDMDL
MODEL       20
REMARK 921   NORMALIZED FREE ENERGY PREDICTED BY IDOCK:   -6.39 KCAL/MOL
REMARK 922        TOTAL FREE ENERGY PREDICTED BY IDOCK:   -9.64 KCAL/MOL
REMARK 923 INTER-LIGAND FREE ENERGY PREDICTED BY IDOCK:   -8.42 KCAL/MOL
REMARK 924 INTRA-LIGAND FREE ENERGY PREDICTED BY IDOCK:   -1.22 KCAL/MOL
REMARK 927      BINDING AFFINITY PREDICTED BY RF-SCORE:    0.00 PKD
ROOT
HETATM    1  C   UNL     1      -7.101   7.452  68.972  1.00  0.00    -0.079 C  
HETATM    2  O   UNL     1      -7.194   7.493  70.464  1.00  0.00    -0.062 OA 
HETATM    3  C   UNL     1      -8.102   6.501  70.836  1.00  0.00    -0.123 A  
HETATM    4  C   UNL     1      -8.601   5.817  69.756  1.00  0.00    -0.127 A  
HETATM    5  C   UNL     1      -9.808   5.110  69.590  1.00  0.00    -0.286 A  
HETATM    6  C   UNL     1     -10.640   5.244  70.682  1.00  0.00    -0.263 A  
HETATM    7  C   UNL     1     -10.119   4.828  67.993  1.00  0.00    -0.112 C  
HETATM    8  C   UNL     1      -9.775   5.989  66.736  1.00  0.00    -0.153 C  
HETATM    9  C   UNL     1     -10.119   5.809  71.896  1.00  0.00    -0.228 A  
HETATM   10  C   UNL     1      -8.816   6.368  71.995  1.00  0.00    -0.134 A  
HETATM   11  N   UNL     1      -8.786   5.162  65.897  1.00  0.00    -0.130 NA 
HETATM   12  C   UNL     1      -7.642   4.537  66.552  1.00  0.00    -0.090 C  
HETATM   13  O   UNL     1      -8.354   6.860  73.175  1.00  0.00    -0.113 OA 
HETATM   14  H   UNL     1     -10.871   7.509  69.241  1.00  0.00     0.000 HD 
HETATM   15  C   UNL     1      -7.310   4.989  67.974  1.00  0.00    -0.075 C  
HETATM   16  H   UNL     1      -6.532  10.172  67.047  1.00  0.00     0.000 HD 
HETATM   17  H   UNL     1      -8.849   6.768  73.980  1.00  0.00     0.000 HD 
HETATM   18  C   UNL     1      -8.057   6.330  68.503  1.00  0.00    -0.109 C  
HETATM   19  O   UNL     1      -6.330   9.382  67.535  1.00  0.00    -0.060 OA 
HETATM   20  C   UNL     1      -9.562   6.960  67.976  1.00  0.00    -0.123 C  
HETATM   21  C   UNL     1      -7.451   8.831  68.120  1.00  0.00    -0.092 C  
HETATM   22  O   UNL     1     -10.999   6.928  68.499  1.00  0.00    -0.200 OA 
HETATM   23  C   UNL     1      -9.603   8.365  68.606  1.00  0.00    -0.153 C  
HETATM   24  C   UNL     1      -8.745   9.184  67.803  1.00  0.00    -0.121 C  
ENDROOT
BRANCH  11  25
HETATM   25  C   UNL     1      -8.494   5.418  64.465  1.00  0.00    -0.117 C  
BRANCH  25  26
HETATM   26  C   UNL     1      -7.585   6.652  64.302  1.00  0.00    -0.104 C  
HETATM   27  C   UNL     1      -8.172   8.033  64.037  1.00  0.00    -0.049 C  
HETATM   28  C   UNL     1      -7.355   7.366  62.978  1.00  0.00    -0.089 C  
ENDBRANCH  25  26
ENDBRANCH  11  25
BRANCH  24  29
HETATM   29  C   UNL     1      -9.712  10.098  66.903  1.00  0.00    -0.187 C  
HETATM   30  N   UNL     1      -9.723  11.516  67.134  1.00  0.00    -0.183 N  
HETATM   31  O   UNL     1     -10.394   9.531  66.065  1.00  0.00    -0.220 OA 
HETATM   32  C   UNL     1     -10.466  12.642  66.381  1.00  0.00    -0.249 C  
HETATM   33  H   UNL     1      -9.150  11.827  67.918  1.00  0.00     0.000 HD 
HETATM   34  C   UNL     1     -10.207  14.136  66.964  1.00  0.00    -0.260 A  
HETATM   35  C   UNL     1     -11.985  12.415  66.466  1.00  0.00    -0.325 C  
HETATM   36  C   UNL     1     -10.038  12.683  64.896  1.00  0.00    -0.244 C  
HETATM   37  N   UNL     1     -10.258  15.252  66.376  1.00  0.00    -0.265 NA 
HETATM   38  C   UNL     1      -9.998  16.217  67.434  1.00  0.00    -0.247 A  
HETATM   39  O   UNL     1      -9.959  14.223  68.299  1.00  0.00    -0.225 OA 
HETATM   40  N   UNL     1      -9.821  15.569  68.603  1.00  0.00    -0.201 NA 
BRANCH  38  41
HETATM   41  C   UNL     1      -9.921  17.703  67.327  1.00  0.00    -0.322 A  
HETATM   42  C   UNL     1      -9.178  18.479  68.227  1.00  0.00    -0.342 A  
HETATM   43  C   UNL     1      -9.073  19.881  68.068  1.00  0.00    -0.382 A  
HETATM   44  C   UNL     1      -9.723  20.533  67.021  1.00  0.00    -0.548 A  
HETATM   45  C   UNL     1     -10.428  19.780  66.096  1.00  0.00    -0.613 A  
HETATM   46  C   UNL     1     -10.525  18.386  66.245  1.00  0.00    -0.421 A  
ENDBRANCH  38  41
ENDBRANCH  24  29
TORSDOF 4
ENDMDL
MODEL       21
REMARK 921   NORMALIZED FREE ENERGY PREDICTED BY IDOCK:   -6.35 KCAL/MOL
REMARK 922        TOTAL FREE ENERGY PREDICTED BY IDOCK:   -9.59 KCAL/MOL
REMARK 923 INTER-LIGAND FREE ENERGY PREDICTED BY IDOCK:   -7.82 KCAL/MOL
REMARK 924 INTRA-LIGAND FREE ENERGY PREDICTED BY IDOCK:   -1.77 KCAL/MOL
REMARK 927      BINDING AFFINITY PREDICTED BY RF-SCORE:    0.00 PKD
ROOT
HETATM    1  C   UNL     1      -8.722   7.304  69.981  1.00  0.00    -0.141 C  
HETATM    2  O   UNL     1      -9.387   7.027  71.292  1.00  0.00    -0.160 OA 
HETATM    3  C   UNL     1     -10.654   7.608  71.231  1.00  0.00    -0.219 A  
HETATM    4  C   UNL     1     -10.890   8.221  70.025  1.00  0.00    -0.232 A  
HETATM    5  C   UNL     1     -11.760   9.273  69.680  1.00  0.00     0.358 A  
HETATM    6  C   UNL     1     -12.378   9.817  70.788  1.00  0.00    -0.321 A  
HETATM    7  C   UNL     1     -11.369   9.913  68.210  1.00  0.00    -0.045 C  
HETATM    8  C   UNL     1      -9.723  10.122  67.668  1.00  0.00    -0.161 C  
HETATM    9  C   UNL     1     -12.297   9.126  72.045  1.00  0.00    -0.448 A  
HETATM   10  C   UNL     1     -11.494   7.972  72.247  1.00  0.00    -0.360 A  
HETATM   11  N   UNL     1      -9.759   9.234  66.412  1.00  0.00    -0.236 NA 
HETATM   12  C   UNL     1     -10.253   7.866  66.519  1.00  0.00    -0.142 C  
HETATM   13  O   UNL     1     -11.476   7.332  73.446  1.00  0.00    -0.549 OA 
HETATM   14  H   UNL     1      -9.882  10.827  70.711  1.00  0.00     0.000 HD 
HETATM   15  C   UNL     1     -10.415   7.281  67.922  1.00  0.00    -0.267 C  
HETATM   16  H   UNL     1      -5.393   7.762  69.617  1.00  0.00     0.000 HD 
HETATM   17  H   UNL     1     -12.059   7.584  74.152  1.00  0.00     0.000 HD 
HETATM   18  C   UNL     1      -9.735   8.115  69.138  1.00  0.00    -0.163 C  
HETATM   19  O   UNL     1      -6.223   7.299  69.617  1.00  0.00    -0.030 OA 
HETATM   20  C   UNL     1      -9.399   9.795  69.190  1.00  0.00    -0.182 C  
HETATM   21  C   UNL     1      -7.275   8.112  69.983  1.00  0.00    -0.056 C  
HETATM   22  O   UNL     1     -10.075  11.023  69.802  1.00  0.00     0.044 OA 
HETATM   23  C   UNL     1      -8.506   9.945  70.436  1.00  0.00     0.028 C  
HETATM   24  C   UNL     1      -7.206   9.486  70.049  1.00  0.00    -0.101 C  
ENDROOT
BRANCH  11  25
HETATM   25  C   UNL     1      -8.814   9.363  65.276  1.00  0.00    -0.190 C  
BRANCH  25  26
HETATM   26  C   UNL     1      -7.359   9.426  65.777  1.00  0.00    -0.095 C  
HETATM   27  C   UNL     1      -6.223   8.796  64.980  1.00  0.00    -0.060 C  
HETATM   28  C   UNL     1      -6.593   8.223  66.309  1.00  0.00    -0.050 C  
ENDBRANCH  25  26
ENDBRANCH  11  25
BRANCH  24  29
HETATM   29  C   UNL     1      -6.307  10.803  69.855  1.00  0.00    -0.118 C  
HETATM   30  N   UNL     1      -6.932  11.988  69.337  1.00  0.00    -0.306 N  
HETATM   31  O   UNL     1      -5.128  10.723  70.157  1.00  0.00    -0.041 OA 
HETATM   32  C   UNL     1      -6.359  13.408  69.130  1.00  0.00    -0.102 C  
HETATM   33  H   UNL     1      -7.908  11.874  69.064  1.00  0.00     0.000 HD 
HETATM   34  C   UNL     1      -7.410  14.483  68.513  1.00  0.00    -0.120 A  
HETATM   35  C   UNL     1      -5.181  13.358  68.141  1.00  0.00    -0.104 C  
HETATM   36  C   UNL     1      -5.875  14.005  70.470  1.00  0.00    -0.178 C  
HETATM   37  N   UNL     1      -7.445  15.738  68.636  1.00  0.00    -0.142 NA 
HETATM   38  C   UNL     1      -8.570  16.140  67.805  1.00  0.00    -0.167 A  
HETATM   39  O   UNL     1      -8.366  13.979  67.686  1.00  0.00    -0.160 OA 
HETATM   40  N   UNL     1      -9.119  15.051  67.229  1.00  0.00    -0.193 NA 
BRANCH  38  41
HETATM   41  C   UNL     1      -9.099  17.515  67.572  1.00  0.00    -0.234 A  
HETATM   42  C   UNL     1     -10.090  18.083  68.386  1.00  0.00    -0.392 A  
HETATM   43  C   UNL     1     -10.531  19.411  68.180  1.00  0.00    -0.476 A  
HETATM   44  C   UNL     1     -10.006  20.187  67.148  1.00  0.00    -0.595 A  
HETATM   45  C   UNL     1      -8.997  19.661  66.359  1.00  0.00    -0.427 A  
HETATM   46  C   UNL     1      -8.548  18.345  66.568  1.00  0.00    -0.287 A  
ENDBRANCH  38  41
ENDBRANCH  24  29
TORSDOF 4
ENDMDL
MODEL       22
REMARK 921   NORMALIZED FREE ENERGY PREDICTED BY IDOCK:   -6.29 KCAL/MOL
REMARK 922        TOTAL FREE ENERGY PREDICTED BY IDOCK:   -9.51 KCAL/MOL
REMARK 923 INTER-LIGAND FREE ENERGY PREDICTED BY IDOCK:   -8.16 KCAL/MOL
REMARK 924 INTRA-LIGAND FREE ENERGY PREDICTED BY IDOCK:   -1.35 KCAL/MOL
REMARK 927      BINDING AFFINITY PREDICTED BY RF-SCORE:    0.00 PKD
ROOT
HETATM    1  C   UNL     1      -9.713  14.773  68.037  1.00  0.00    -0.213 C  
HETATM    2  O   UNL     1      -9.886  15.672  66.854  1.00  0.00    -0.230 OA 
HETATM    3  C   UNL     1     -10.952  15.159  66.114  1.00  0.00    -0.331 A  
HETATM    4  C   UNL     1     -11.495  14.036  66.687  1.00  0.00    -0.377 A  
HETATM    5  C   UNL     1     -12.214  12.966  66.120  1.00  0.00    -0.385 A  
HETATM    6  C   UNL     1     -12.265  13.050  64.744  1.00  0.00    -0.487 A  
HETATM    7  C   UNL     1     -12.279  11.679  67.151  1.00  0.00     0.792 C  
HETATM    8  C   UNL     1     -10.942  11.201  68.164  1.00  0.00    -0.238 C  
HETATM    9  C   UNL     1     -11.859  14.269  64.100  1.00  0.00    -0.338 A  
HETATM   10  C   UNL     1     -11.273  15.358  64.799  1.00  0.00    -0.395 A  
HETATM   11  N   UNL     1     -11.606  11.355  69.543  1.00  0.00    -0.300 NA 
HETATM   12  C   UNL     1     -12.276  12.607  69.877  1.00  0.00    -0.168 C  
HETATM   13  O   UNL     1     -10.936  16.505  64.152  1.00  0.00    -1.169 OA 
HETATM   14  H   UNL     1      -9.830  12.088  65.379  1.00  0.00     0.000 HD 
HETATM   15  C   UNL     1     -12.017  13.809  68.969  1.00  0.00    -0.399 C  
HETATM   16  H   UNL     1      -6.731  14.135  69.494  1.00  0.00     0.000 HD 
HETATM   17  H   UNL     1     -11.159  16.644  63.239  1.00  0.00     0.000 HD 
HETATM   18  C   UNL     1     -10.792  13.671  67.913  1.00  0.00    -0.264 C  
HETATM   19  O   UNL     1      -7.574  14.553  69.362  1.00  0.00    -0.120 OA 
HETATM   20  C   UNL     1     -10.148  12.228  67.248  1.00  0.00    -0.204 C  
HETATM   21  C   UNL     1      -8.242  14.045  68.268  1.00  0.00    -0.153 C  
HETATM   22  O   UNL     1     -10.305  11.473  65.927  1.00  0.00    -0.232 OA 
HETATM   23  C   UNL     1      -8.848  12.696  66.567  1.00  0.00    -0.067 C  
HETATM   24  C   UNL     1      -7.894  12.881  67.619  1.00  0.00    -0.168 C  
ENDROOT
BRANCH  11  25
HETATM   25  C   UNL     1     -11.140  10.666  70.772  1.00  0.00     0.160 C  
BRANCH  25  26
HETATM   26  C   UNL     1     -12.005   9.425  71.066  1.00  0.00    -0.389 C  
HETATM   27  C   UNL     1     -13.521   9.469  70.921  1.00  0.00    -0.099 C  
HETATM   28  C   UNL     1     -12.918   9.296  72.277  1.00  0.00    -0.488 C  
ENDBRANCH  25  26
ENDBRANCH  11  25
BRANCH  24  29
HETATM   29  C   UNL     1      -6.898  11.623  67.546  1.00  0.00    -0.104 C  
HETATM   30  N   UNL     1      -7.286  10.403  68.198  1.00  0.00    -0.086 N  
HETATM   31  O   UNL     1      -5.852  11.774  66.935  1.00  0.00    -0.133 OA 
HETATM   32  C   UNL     1      -6.593   9.023  68.225  1.00  0.00    -0.060 C  
HETATM   33  H   UNL     1      -8.156  10.458  68.728  1.00  0.00     0.000 HD 
HETATM   34  C   UNL     1      -7.369   7.888  69.091  1.00  0.00    -0.083 A  
HETATM   35  C   UNL     1      -5.196   9.150  68.857  1.00  0.00    -0.037 C  
HETATM   36  C   UNL     1      -6.456   8.451  66.796  1.00  0.00    -0.056 C  
HETATM   37  N   UNL     1      -7.360   6.632  68.967  1.00  0.00    -0.091 NA 
HETATM   38  C   UNL     1      -8.191   6.165  70.067  1.00  0.00    -0.124 A  
HETATM   39  O   UNL     1      -8.093   8.335  70.152  1.00  0.00    -0.106 OA 
HETATM   40  N   UNL     1      -8.628   7.222  70.783  1.00  0.00    -0.143 NA 
BRANCH  38  41
HETATM   41  C   UNL     1      -8.553   4.761  70.418  1.00  0.00    -0.117 A  
HETATM   42  C   UNL     1      -7.845   3.660  69.916  1.00  0.00    -0.051 A  
HETATM   43  C   UNL     1      -8.170   2.341  70.313  1.00  0.00    -0.063 A  
HETATM   44  C   UNL     1      -9.218   2.099  71.199  1.00  0.00    -0.185 A  
HETATM   45  C   UNL     1      -9.903   3.175  71.739  1.00  0.00    -0.229 A  
HETATM   46  C   UNL     1      -9.575   4.487  71.356  1.00  0.00    -0.232 A  
ENDBRANCH  38  41
ENDBRANCH  24  29
TORSDOF 4
ENDMDL
MODEL       23
REMARK 921   NORMALIZED FREE ENERGY PREDICTED BY IDOCK:   -6.28 KCAL/MOL
REMARK 922        TOTAL FREE ENERGY PREDICTED BY IDOCK:   -9.50 KCAL/MOL
REMARK 923 INTER-LIGAND FREE ENERGY PREDICTED BY IDOCK:   -8.37 KCAL/MOL
REMARK 924 INTRA-LIGAND FREE ENERGY PREDICTED BY IDOCK:   -1.13 KCAL/MOL
REMARK 927      BINDING AFFINITY PREDICTED BY RF-SCORE:    0.00 PKD
ROOT
HETATM    1  C   UNL     1      -7.586   8.275  70.664  1.00  0.00    -0.071 C  
HETATM    2  O   UNL     1      -7.904   8.191  72.123  1.00  0.00    -0.106 OA 
HETATM    3  C   UNL     1      -8.873   7.197  72.266  1.00  0.00    -0.128 A  
HETATM    4  C   UNL     1      -9.212   6.621  71.067  1.00  0.00    -0.160 A  
HETATM    5  C   UNL     1     -10.390   5.965  70.659  1.00  0.00    -0.296 A  
HETATM    6  C   UNL     1     -11.376   6.029  71.621  1.00  0.00    -0.313 A  
HETATM    7  C   UNL     1     -10.458   5.829  69.015  1.00  0.00    -0.336 C  
HETATM    8  C   UNL     1      -9.911   7.083  67.932  1.00  0.00    -0.154 C  
HETATM    9  C   UNL     1     -11.037   6.473  72.945  1.00  0.00    -0.257 A  
HETATM   10  C   UNL     1      -9.757   6.985  73.288  1.00  0.00    -0.198 A  
HETATM   11  N   UNL     1      -8.818   6.304  67.181  1.00  0.00    -0.109 NA 
HETATM   12  C   UNL     1      -7.797   5.593  67.942  1.00  0.00    -0.097 C  
HETATM   13  O   UNL     1      -9.472   7.362  74.563  1.00  0.00    -0.420 OA 
HETATM   14  H   UNL     1     -11.353   8.413  70.368  1.00  0.00     0.000 HD 
HETATM   15  C   UNL     1      -7.677   5.913  69.432  1.00  0.00    -0.093 C  
HETATM   16  H   UNL     1      -6.692  11.132  69.095  1.00  0.00     0.000 HD 
HETATM   17  H   UNL     1     -10.085   7.214  75.273  1.00  0.00     0.000 HD 
HETATM   18  C   UNL     1      -8.476   7.224  69.959  1.00  0.00    -0.139 C  
HETATM   19  O   UNL     1      -6.579  10.298  69.536  1.00  0.00    -0.050 OA 
HETATM   20  C   UNL     1      -9.874   7.939  69.271  1.00  0.00    -0.177 C  
HETATM   21  C   UNL     1      -7.783   9.730  69.894  1.00  0.00    -0.157 C  
HETATM   22  O   UNL     1     -11.375   7.902  69.567  1.00  0.00     0.044 OA 
HETATM   23  C   UNL     1      -9.990   9.286  70.009  1.00  0.00    -0.238 C  
HETATM   24  C   UNL     1      -9.008  10.145  69.420  1.00  0.00    -0.205 C  
ENDROOT
BRANCH  11  25
HETATM   25  C   UNL     1      -8.308   6.673  65.837  1.00  0.00    -0.137 C  
BRANCH  25  26
HETATM   26  C   UNL     1      -7.580   8.030  65.880  1.00  0.00    -0.086 C  
HETATM   27  C   UNL     1      -8.141   9.248  65.155  1.00  0.00    -0.124 C  
HETATM   28  C   UNL     1      -6.858   8.642  64.688  1.00  0.00    -0.073 C  
ENDBRANCH  25  26
ENDBRANCH  11  25
BRANCH  24  29
HETATM   29  C   UNL     1      -9.814  11.159  68.470  1.00  0.00    -0.198 C  
HETATM   30  N   UNL     1      -9.365  12.521  68.386  1.00  0.00    -0.318 N  
HETATM   31  O   UNL     1     -10.775  10.712  67.866  1.00  0.00    -0.209 OA 
HETATM   32  C   UNL     1      -9.871  13.685  67.504  1.00  0.00    -0.227 C  
HETATM   33  H   UNL     1      -8.591  12.757  69.007  1.00  0.00     0.000 HD 
HETATM   34  C   UNL     1      -9.082  15.090  67.713  1.00  0.00    -0.180 A  
HETATM   35  C   UNL     1     -11.347  13.981  67.824  1.00  0.00    -0.328 C  
HETATM   36  C   UNL     1      -9.734  13.336  66.005  1.00  0.00    -0.230 C  
HETATM   37  N   UNL     1      -8.911  16.046  66.907  1.00  0.00    -0.212 NA 
HETATM   38  C   UNL     1      -8.187  17.037  67.689  1.00  0.00    -0.185 A  
HETATM   39  O   UNL     1      -8.575  15.313  68.955  1.00  0.00    -0.194 OA 
HETATM   40  N   UNL     1      -7.994  16.573  68.941  1.00  0.00    -0.234 NA 
BRANCH  38  41
HETATM   41  C   UNL     1      -7.699  18.378  67.253  1.00  0.00    -0.228 A  
HETATM   42  C   UNL     1      -7.777  19.507  68.082  1.00  0.00    -0.341 A  
HETATM   43  C   UNL     1      -7.251  20.753  67.668  1.00  0.00    -0.332 A  
HETATM   44  C   UNL     1      -6.659  20.899  66.414  1.00  0.00    -0.298 A  
HETATM   45  C   UNL     1      -6.534  19.788  65.597  1.00  0.00    -0.268 A  
HETATM   46  C   UNL     1      -7.045  18.544  66.010  1.00  0.00    -0.306 A  
ENDBRANCH  38  41
ENDBRANCH  24  29
TORSDOF 4
ENDMDL
MODEL       24
REMARK 921   NORMALIZED FREE ENERGY PREDICTED BY IDOCK:   -6.27 KCAL/MOL
REMARK 922        TOTAL FREE ENERGY PREDICTED BY IDOCK:   -9.49 KCAL/MOL
REMARK 923 INTER-LIGAND FREE ENERGY PREDICTED BY IDOCK:   -8.18 KCAL/MOL
REMARK 924 INTRA-LIGAND FREE ENERGY PREDICTED BY IDOCK:   -1.31 KCAL/MOL
REMARK 927      BINDING AFFINITY PREDICTED BY RF-SCORE:    0.00 PKD
ROOT
HETATM    1  C   UNL     1     -10.221  10.278  64.467  1.00  0.00    -0.091 C  
HETATM    2  O   UNL     1      -9.066  10.164  63.523  1.00  0.00    -0.231 OA 
HETATM    3  C   UNL     1      -7.922  10.010  64.306  1.00  0.00    -0.152 A  
HETATM    4  C   UNL     1      -8.204  10.000  65.650  1.00  0.00    -0.143 A  
HETATM    5  C   UNL     1      -7.406  10.328  66.762  1.00  0.00    -0.106 A  
HETATM    6  C   UNL     1      -6.180  10.838  66.387  1.00  0.00    -0.119 A  
HETATM    7  C   UNL     1      -8.328  10.554  68.113  1.00  0.00    -0.119 C  
HETATM    8  C   UNL     1      -9.888  11.335  68.081  1.00  0.00    -0.183 C  
HETATM    9  C   UNL     1      -5.765  10.726  65.016  1.00  0.00    -0.037 A  
HETATM   10  C   UNL     1      -6.612  10.237  63.985  1.00  0.00    -0.073 A  
HETATM   11  N   UNL     1     -10.755  10.183  68.619  1.00  0.00    -0.211 NA 
HETATM   12  C   UNL     1     -10.659   8.867  67.997  1.00  0.00    -0.168 C  
HETATM   13  O   UNL     1      -6.163  10.117  62.707  1.00  0.00    -0.118 OA 
HETATM   14  H   UNL     1      -7.972  12.831  66.114  1.00  0.00     0.000 HD 
HETATM   15  C   UNL     1      -9.943   8.774  66.650  1.00  0.00    -0.355 C  
HETATM   16  H   UNL     1     -12.982  12.126  63.849  1.00  0.00     0.000 HD 
HETATM   17  H   UNL     1      -5.253  10.275  62.484  1.00  0.00     0.000 HD 
HETATM   18  C   UNL     1      -9.633  10.176  65.894  1.00  0.00    -0.274 C  
HETATM   19  O   UNL     1     -12.434  11.351  63.894  1.00  0.00    -0.011 OA 
HETATM   20  C   UNL     1      -9.435  11.723  66.608  1.00  0.00    -0.205 C  
HETATM   21  C   UNL     1     -11.178  11.630  64.388  1.00  0.00    -0.291 C  
HETATM   22  O   UNL     1      -8.243  12.599  66.995  1.00  0.00    -0.171 OA 
HETATM   23  C   UNL     1      -9.461  12.681  65.402  1.00  0.00     0.126 C  
HETATM   24  C   UNL     1     -10.836  12.803  65.023  1.00  0.00    -0.319 C  
ENDROOT
BRANCH  11  25
HETATM   25  C   UNL     1     -12.083  10.368  69.254  1.00  0.00     0.050 C  
BRANCH  25  26
HETATM   26  C   UNL     1     -11.943  10.557  70.777  1.00  0.00    -0.472 C  
HETATM   27  C   UNL     1     -12.202   9.405  71.740  1.00  0.00    -0.465 C  
HETATM   28  C   UNL     1     -13.121  10.583  71.739  1.00  0.00    -0.570 C  
ENDBRANCH  25  26
ENDBRANCH  11  25
BRANCH  24  29
HETATM   29  C   UNL     1     -11.318  14.242  65.549  1.00  0.00    -0.325 C  
HETATM   30  N   UNL     1     -10.393  15.040  66.305  1.00  0.00    -0.284 N  
HETATM   31  O   UNL     1     -12.458  14.582  65.277  1.00  0.00    -0.369 OA 
HETATM   32  C   UNL     1     -10.535  16.477  66.856  1.00  0.00    -0.282 C  
HETATM   33  H   UNL     1      -9.503  14.586  66.510  1.00  0.00     0.000 HD 
HETATM   34  C   UNL     1      -9.239  17.024  67.669  1.00  0.00    -0.233 A  
HETATM   35  C   UNL     1     -11.711  16.545  67.846  1.00  0.00     0.389 C  
HETATM   36  C   UNL     1     -10.776  17.482  65.708  1.00  0.00    -0.106 C  
HETATM   37  N   UNL     1      -8.835  18.208  67.839  1.00  0.00    -0.263 NA 
HETATM   38  C   UNL     1      -7.671  18.060  68.701  1.00  0.00    -0.296 A  
HETATM   39  O   UNL     1      -8.501  16.087  68.322  1.00  0.00    -0.169 OA 
HETATM   40  N   UNL     1      -7.485  16.755  68.989  1.00  0.00    -0.237 NA 
BRANCH  38  41
HETATM   41  C   UNL     1      -6.773  19.128  69.229  1.00  0.00    -0.340 A  
HETATM   42  C   UNL     1      -6.383  20.227  68.451  1.00  0.00    -0.337 A  
HETATM   43  C   UNL     1      -5.579  21.257  68.994  1.00  0.00    -0.139 A  
HETATM   44  C   UNL     1      -5.136  21.197  70.315  1.00  0.00    -0.263 A  
HETATM   45  C   UNL     1      -5.544  20.141  71.113  1.00  0.00    -0.349 A  
HETATM   46  C   UNL     1      -6.352  19.121  70.579  1.00  0.00     0.134 A  
ENDBRANCH  38  41
ENDBRANCH  24  29
TORSDOF 4
ENDMDL
MODEL       25
REMARK 921   NORMALIZED FREE ENERGY PREDICTED BY IDOCK:   -6.27 KCAL/MOL
REMARK 922        TOTAL FREE ENERGY PREDICTED BY IDOCK:   -9.49 KCAL/MOL
REMARK 923 INTER-LIGAND FREE ENERGY PREDICTED BY IDOCK:   -7.79 KCAL/MOL
REMARK 924 INTRA-LIGAND FREE ENERGY PREDICTED BY IDOCK:   -1.70 KCAL/MOL
REMARK 927      BINDING AFFINITY PREDICTED BY RF-SCORE:    0.00 PKD
ROOT
HETATM    1  C   UNL     1      -8.044   5.619  71.059  1.00  0.00    -0.119 C  
HETATM    2  O   UNL     1      -8.683   6.037  72.345  1.00  0.00    -0.127 OA 
HETATM    3  C   UNL     1     -10.044   6.200  72.082  1.00  0.00    -0.183 A  
HETATM    4  C   UNL     1     -10.360   5.927  70.775  1.00  0.00    -0.292 A  
HETATM    5  C   UNL     1     -11.426   6.375  69.970  1.00  0.00    -0.496 A  
HETATM    6  C   UNL     1     -12.192   7.326  70.612  1.00  0.00    -0.186 A  
HETATM    7  C   UNL     1     -11.126   6.094  68.372  1.00  0.00    -0.343 C  
HETATM    8  C   UNL     1      -9.547   6.272  67.653  1.00  0.00    -0.114 C  
HETATM    9  C   UNL     1     -12.012   7.538  72.021  1.00  0.00    -0.330 A  
HETATM   10  C   UNL     1     -10.983   6.912  72.776  1.00  0.00    -0.280 A  
HETATM   11  N   UNL     1      -9.336   4.832  67.154  1.00  0.00    -0.128 NA 
HETATM   12  C   UNL     1      -9.520   3.721  68.082  1.00  0.00    -0.157 C  
HETATM   13  O   UNL     1     -10.873   7.117  74.115  1.00  0.00    -0.532 OA 
HETATM   14  H   UNL     1      -9.979   8.578  69.721  1.00  0.00     0.000 HD 
HETATM   15  C   UNL     1      -9.606   4.053  69.571  1.00  0.00    -0.265 C  
HETATM   16  H   UNL     1      -4.886   6.436  70.175  1.00  0.00     0.000 HD 
HETATM   17  H   UNL     1     -11.526   7.611  74.597  1.00  0.00     0.000 HD 
HETATM   18  C   UNL     1      -9.176   5.556  70.006  1.00  0.00    -0.172 C  
HETATM   19  O   UNL     1      -5.592   5.904  70.524  1.00  0.00    -0.012 OA 
HETATM   20  C   UNL     1      -9.220   6.973  69.041  1.00  0.00    -0.137 C  
HETATM   21  C   UNL     1      -6.811   6.545  70.451  1.00  0.00    -0.062 C  
HETATM   22  O   UNL     1     -10.174   8.159  68.891  1.00  0.00    -0.202 OA 
HETATM   23  C   UNL     1      -8.433   8.001  69.876  1.00  0.00    -0.126 C  
HETATM   24  C   UNL     1      -7.050   7.676  69.702  1.00  0.00    -0.064 C  
ENDROOT
BRANCH  11  25
HETATM   25  C   UNL     1      -8.397   4.457  66.068  1.00  0.00    -0.113 C  
BRANCH  25  26
HETATM   26  C   UNL     1      -7.122   5.320  66.122  1.00  0.00    -0.072 C  
HETATM   27  C   UNL     1      -5.769   4.753  65.708  1.00  0.00    -0.018 C  
HETATM   28  C   UNL     1      -6.005   5.118  67.138  1.00  0.00    -0.026 C  
ENDBRANCH  25  26
ENDBRANCH  11  25
BRANCH  24  29
HETATM   29  C   UNL     1      -6.455   8.777  68.694  1.00  0.00    -0.054 C  
HETATM   30  N   UNL     1      -7.192   9.994  68.498  1.00  0.00    -0.075 N  
HETATM   31  O   UNL     1      -5.400   8.514  68.141  1.00  0.00    -0.033 OA 
HETATM   32  C   UNL     1      -6.836  11.253  67.676  1.00  0.00    -0.077 C  
HETATM   33  H   UNL     1      -8.092  10.033  68.976  1.00  0.00     0.000 HD 
HETATM   34  C   UNL     1      -7.956  12.430  67.715  1.00  0.00    -0.156 A  
HETATM   35  C   UNL     1      -6.669  10.881  66.193  1.00  0.00    -0.103 C  
HETATM   36  C   UNL     1      -5.527  11.892  68.193  1.00  0.00    -0.045 C  
HETATM   37  N   UNL     1      -7.821  13.677  67.570  1.00  0.00    -0.170 NA 
HETATM   38  C   UNL     1      -9.182  14.187  67.643  1.00  0.00    -0.193 A  
HETATM   39  O   UNL     1      -9.246  12.025  67.863  1.00  0.00    -0.176 OA 
HETATM   40  N   UNL     1     -10.040  13.161  67.819  1.00  0.00    -0.221 NA 
BRANCH  38  41
HETATM   41  C   UNL     1      -9.643  15.603  67.548  1.00  0.00    -0.224 A  
HETATM   42  C   UNL     1      -9.824  16.407  68.682  1.00  0.00    -0.234 A  
HETATM   43  C   UNL     1     -10.203  17.765  68.560  1.00  0.00    -0.382 A  
HETATM   44  C   UNL     1     -10.426  18.336  67.308  1.00  0.00    -0.419 A  
HETATM   45  C   UNL     1     -10.212  17.570  66.173  1.00  0.00    -0.339 A  
HETATM   46  C   UNL     1      -9.824  16.224  66.290  1.00  0.00    -0.334 A  
ENDBRANCH  38  41
ENDBRANCH  24  29
TORSDOF 4
ENDMDL
MODEL       26
REMARK 921   NORMALIZED FREE ENERGY PREDICTED BY IDOCK:   -6.09 KCAL/MOL
REMARK 922        TOTAL FREE ENERGY PREDICTED BY IDOCK:   -9.26 KCAL/MOL
REMARK 923 INTER-LIGAND FREE ENERGY PREDICTED BY IDOCK:   -7.92 KCAL/MOL
REMARK 924 INTRA-LIGAND FREE ENERGY PREDICTED BY IDOCK:   -1.35 KCAL/MOL
REMARK 927      BINDING AFFINITY PREDICTED BY RF-SCORE:    0.00 PKD
ROOT
HETATM    1  C   UNL     1     -10.894  16.693  68.692  1.00  0.00    -0.344 C  
HETATM    2  O   UNL     1      -9.749  17.437  69.303  1.00  0.00    -0.146 OA 
HETATM    3  C   UNL     1      -8.607  17.073  68.589  1.00  0.00    -0.265 A  
HETATM    4  C   UNL     1      -8.883  16.184  67.579  1.00  0.00    -0.198 A  
HETATM    5  C   UNL     1      -8.067  15.230  66.942  1.00  0.00    -0.224 A  
HETATM    6  C   UNL     1      -6.825  15.133  67.535  1.00  0.00    -0.203 A  
HETATM    7  C   UNL     1      -8.973  14.140  66.096  1.00  0.00     0.147 C  
HETATM    8  C   UNL     1     -10.502  13.525  66.667  1.00  0.00    -0.274 C  
HETATM    9  C   UNL     1      -6.421  16.135  68.483  1.00  0.00    -0.117 A  
HETATM   10  C   UNL     1      -7.291  17.156  68.953  1.00  0.00    -0.241 A  
HETATM   11  N   UNL     1     -11.408  14.007  65.520  1.00  0.00    -0.308 NA 
HETATM   12  C   UNL     1     -11.366  15.409  65.118  1.00  0.00    -0.281 C  
HETATM   13  O   UNL     1      -6.854  18.103  69.825  1.00  0.00    -0.028 OA 
HETATM   14  H   UNL     1      -8.542  13.760  69.092  1.00  0.00     0.000 HD 
HETATM   15  C   UNL     1     -10.661  16.390  66.054  1.00  0.00    -0.275 C  
HETATM   16  H   UNL     1     -13.587  15.626  70.433  1.00  0.00     0.000 HD 
HETATM   17  H   UNL     1      -5.940  18.161  70.078  1.00  0.00     0.000 HD 
HETATM   18  C   UNL     1     -10.302  15.846  67.541  1.00  0.00    -0.283 C  
HETATM   19  O   UNL     1     -13.068  16.195  69.876  1.00  0.00     0.268 OA 
HETATM   20  C   UNL     1     -10.043  14.220  68.020  1.00  0.00    -0.227 C  
HETATM   21  C   UNL     1     -11.799  15.700  69.663  1.00  0.00    -0.362 C  
HETATM   22  O   UNL     1      -8.817  13.345  68.283  1.00  0.00    -0.178 OA 
HETATM   23  C   UNL     1     -10.039  14.296  69.559  1.00  0.00     0.214 C  
HETATM   24  C   UNL     1     -11.411  14.411  69.953  1.00  0.00    -0.273 C  
ENDROOT
BRANCH  11  25
HETATM   25  C   UNL     1     -12.726  13.408  65.193  1.00  0.00    -0.399 C  
BRANCH  25  26
HETATM   26  C   UNL     1     -12.563  12.218  64.228  1.00  0.00    -0.470 C  
HETATM   27  C   UNL     1     -11.264  11.423  64.170  1.00  0.00    -0.327 C  
HETATM   28  C   UNL     1     -11.674  12.245  62.992  1.00  0.00    -0.098 C  
ENDBRANCH  25  26
ENDBRANCH  11  25
BRANCH  24  29
HETATM   29  C   UNL     1     -11.836  12.968  70.517  1.00  0.00    -0.084 C  
HETATM   30  N   UNL     1     -11.446  11.801  69.776  1.00  0.00    -0.440 N  
HETATM   31  O   UNL     1     -12.478  12.942  71.555  1.00  0.00    -0.223 OA 
HETATM   32  C   UNL     1     -11.627  10.303  70.108  1.00  0.00    -0.299 C  
HETATM   33  H   UNL     1     -10.976  11.992  68.891  1.00  0.00     0.000 HD 
HETATM   34  C   UNL     1     -11.035   9.282  68.991  1.00  0.00    -0.033 A  
HETATM   35  C   UNL     1     -13.124   9.970  70.228  1.00  0.00     0.123 C  
HETATM   36  C   UNL     1     -10.917   9.946  71.433  1.00  0.00    -0.117 C  
HETATM   37  N   UNL     1     -10.610   8.101  69.123  1.00  0.00    -0.202 NA 
HETATM   38  C   UNL     1     -10.279   7.695  67.765  1.00  0.00    -0.201 A  
HETATM   39  O   UNL     1     -11.048   9.727  67.706  1.00  0.00    -0.245 OA 
HETATM   40  N   UNL     1     -10.557   8.701  66.911  1.00  0.00    -0.260 NA 
BRANCH  38  41
HETATM   41  C   UNL     1      -9.718   6.391  67.303  1.00  0.00    -0.155 A  
HETATM   42  C   UNL     1      -8.466   5.925  67.728  1.00  0.00    -0.107 A  
HETATM   43  C   UNL     1      -7.984   4.658  67.323  1.00  0.00    -0.101 A  
HETATM   44  C   UNL     1      -8.733   3.846  66.473  1.00  0.00    -0.115 A  
HETATM   45  C   UNL     1      -9.990   4.269  66.076  1.00  0.00    -0.234 A  
HETATM   46  C   UNL     1     -10.478   5.522  66.485  1.00  0.00    -0.331 A  
ENDBRANCH  38  41
ENDBRANCH  24  29
TORSDOF 4
ENDMDL
MODEL       27
REMARK 921   NORMALIZED FREE ENERGY PREDICTED BY IDOCK:   -5.93 KCAL/MOL
REMARK 922        TOTAL FREE ENERGY PREDICTED BY IDOCK:   -9.07 KCAL/MOL
REMARK 923 INTER-LIGAND FREE ENERGY PREDICTED BY IDOCK:   -7.20 KCAL/MOL
REMARK 924 INTRA-LIGAND FREE ENERGY PREDICTED BY IDOCK:   -1.87 KCAL/MOL
REMARK 927      BINDING AFFINITY PREDICTED BY RF-SCORE:    0.00 PKD
ROOT
HETATM    1  C   UNL     1      -8.548   2.605  68.628  1.00  0.00    -0.075 C  
HETATM    2  O   UNL     1      -9.290   2.169  67.405  1.00  0.00    -0.140 OA 
HETATM    3  C   UNL     1      -8.926   3.045  66.381  1.00  0.00    -0.152 A  
HETATM    4  C   UNL     1      -8.027   3.994  66.800  1.00  0.00    -0.097 A  
HETATM    5  C   UNL     1      -7.751   5.284  66.308  1.00  0.00    -0.088 A  
HETATM    6  C   UNL     1      -8.625   5.653  65.307  1.00  0.00    -0.141 A  
HETATM    7  C   UNL     1      -6.891   6.170  67.404  1.00  0.00    -0.063 C  
HETATM    8  C   UNL     1      -7.175   6.092  69.124  1.00  0.00    -0.083 C  
HETATM    9  C   UNL     1      -9.478   4.657  64.719  1.00  0.00    -0.083 A  
HETATM   10  C   UNL     1      -9.571   3.327  65.208  1.00  0.00    -0.088 A  
HETATM   11  N   UNL     1      -5.789   5.607  69.584  1.00  0.00    -0.019 NA 
HETATM   12  C   UNL     1      -5.200   4.430  68.956  1.00  0.00    -0.007 C  
HETATM   13  O   UNL     1     -10.367   2.409  64.598  1.00  0.00    -0.334 OA 
HETATM   14  H   UNL     1      -9.927   5.984  67.642  1.00  0.00     0.000 HD 
HETATM   15  C   UNL     1      -6.115   3.556  68.098  1.00  0.00    -0.031 C  
HETATM   16  H   UNL     1      -9.752   2.288  71.771  1.00  0.00     0.000 HD 
HETATM   17  H   UNL     1     -10.815   2.605  63.783  1.00  0.00     0.000 HD 
HETATM   18  C   UNL     1      -7.709   3.838  68.217  1.00  0.00    -0.065 C  
HETATM   19  O   UNL     1      -9.253   2.066  70.993  1.00  0.00    -0.090 OA 
HETATM   20  C   UNL     1      -8.477   5.304  68.666  1.00  0.00    -0.088 C  
HETATM   21  C   UNL     1      -9.420   2.992  69.985  1.00  0.00    -0.125 C  
HETATM   22  O   UNL     1      -9.149   6.456  67.916  1.00  0.00    -0.115 OA 
HETATM   23  C   UNL     1      -9.944   4.889  68.885  1.00  0.00    -0.220 C  
HETATM   24  C   UNL     1      -9.984   4.236  70.159  1.00  0.00    -0.206 C  
ENDROOT
BRANCH  11  25
HETATM   25  C   UNL     1      -5.258   5.789  70.957  1.00  0.00    -0.009 C  
BRANCH  25  26
HETATM   26  C   UNL     1      -6.405   5.863  71.984  1.00  0.00    -0.049 C  
HETATM   27  C   UNL     1      -6.200   5.419  73.428  1.00  0.00    -0.056 C  
HETATM   28  C   UNL     1      -7.121   4.642  72.544  1.00  0.00    -0.079 C  
ENDBRANCH  25  26
ENDBRANCH  11  25
BRANCH  24  29
HETATM   29  C   UNL     1     -10.646   5.287  71.179  1.00  0.00    -0.173 C  
HETATM   30  N   UNL     1     -10.697   6.671  70.798  1.00  0.00    -0.229 N  
HETATM   31  O   UNL     1     -11.070   4.847  72.235  1.00  0.00    -0.115 OA 
HETATM   32  C   UNL     1     -11.342   7.878  71.515  1.00  0.00    -0.256 C  
HETATM   33  H   UNL     1     -10.236   6.890  69.915  1.00  0.00     0.000 HD 
HETATM   34  C   UNL     1     -11.178   9.297  70.739  1.00  0.00    -0.288 A  
HETATM   35  C   UNL     1     -10.691   8.077  72.894  1.00  0.00    -0.403 C  
HETATM   36  C   UNL     1     -12.861   7.662  71.693  1.00  0.00    -0.378 C  
HETATM   37  N   UNL     1     -11.910  10.324  70.773  1.00  0.00    -0.336 NA 
HETATM   38  C   UNL     1     -11.213  11.280  69.926  1.00  0.00    -0.187 A  
HETATM   39  O   UNL     1     -10.056   9.440  69.983  1.00  0.00    -0.196 OA 
HETATM   40  N   UNL     1     -10.078  10.722  69.455  1.00  0.00    -0.185 NA 
BRANCH  38  41
HETATM   41  C   UNL     1     -11.617  12.674  69.581  1.00  0.00    -0.321 A  
HETATM   42  C   UNL     1     -12.091  13.574  70.546  1.00  0.00    -0.409 A  
HETATM   43  C   UNL     1     -12.410  14.909  70.204  1.00  0.00    -0.376 A  
HETATM   44  C   UNL     1     -12.282  15.361  68.891  1.00  0.00    -0.118 A  
HETATM   45  C   UNL     1     -11.776  14.501  67.931  1.00  0.00    -0.381 A  
HETATM   46  C   UNL     1     -11.447  13.177  68.270  1.00  0.00    -0.349 A  
ENDBRANCH  38  41
ENDBRANCH  24  29
TORSDOF 4
ENDMDL
MODEL       28
REMARK 921   NORMALIZED FREE ENERGY PREDICTED BY IDOCK:   -5.80 KCAL/MOL
REMARK 922        TOTAL FREE ENERGY PREDICTED BY IDOCK:   -8.92 KCAL/MOL
REMARK 923 INTER-LIGAND FREE ENERGY PREDICTED BY IDOCK:   -7.40 KCAL/MOL
REMARK 924 INTRA-LIGAND FREE ENERGY PREDICTED BY IDOCK:   -1.51 KCAL/MOL
REMARK 927      BINDING AFFINITY PREDICTED BY RF-SCORE:    0.00 PKD
ROOT
HETATM    1  C   UNL     1      -9.524  15.915  65.748  1.00  0.00    -0.281 C  
HETATM    2  O   UNL     1     -10.206  17.155  65.264  1.00  0.00    -0.591 OA 
HETATM    3  C   UNL     1      -9.800  18.191  66.106  1.00  0.00    -0.251 A  
HETATM    4  C   UNL     1      -8.926  17.766  67.075  1.00  0.00    -0.258 A  
HETATM    5  C   UNL     1      -8.633  18.290  68.349  1.00  0.00    -0.315 A  
HETATM    6  C   UNL     1      -9.463  19.343  68.676  1.00  0.00    -0.466 A  
HETATM    7  C   UNL     1      -7.829  17.188  69.277  1.00  0.00     0.054 C  
HETATM    8  C   UNL     1      -8.191  15.481  69.259  1.00  0.00    -0.255 C  
HETATM    9  C   UNL     1     -10.283  19.933  67.655  1.00  0.00    -0.564 A  
HETATM   10  C   UNL     1     -10.392  19.402  66.342  1.00  0.00    -0.483 A  
HETATM   11  N   UNL     1      -6.826  14.942  68.799  1.00  0.00    -0.097 NA 
HETATM   12  C   UNL     1      -6.203  15.500  67.604  1.00  0.00    -0.149 C  
HETATM   13  O   UNL     1     -11.155  20.015  65.399  1.00  0.00    -0.267 OA 
HETATM   14  H   UNL     1     -10.872  17.083  69.082  1.00  0.00     0.000 HD 
HETATM   15  C   UNL     1      -7.073  16.367  66.695  1.00  0.00    -0.175 C  
HETATM   16  H   UNL     1     -10.869  12.822  65.535  1.00  0.00     0.000 HD 
HETATM   17  H   UNL     1     -11.566  20.856  65.562  1.00  0.00     0.000 HD 
HETATM   18  C   UNL     1      -8.673  16.332  66.971  1.00  0.00    -0.220 C  
HETATM   19  O   UNL     1     -10.334  13.567  65.289  1.00  0.00    -0.310 OA 
HETATM   20  C   UNL     1      -9.467  15.970  68.447  1.00  0.00    -0.207 C  
HETATM   21  C   UNL     1     -10.458  14.615  66.177  1.00  0.00    -0.302 C  
HETATM   22  O   UNL     1     -10.109  16.790  69.567  1.00  0.00    -0.210 OA 
HETATM   23  C   UNL     1     -10.941  15.804  68.030  1.00  0.00    -0.330 C  
HETATM   24  C   UNL     1     -11.036  14.511  67.423  1.00  0.00    -0.320 C  
ENDROOT
BRANCH  11  25
HETATM   25  C   UNL     1      -6.359  13.553  69.033  1.00  0.00    -0.099 C  
BRANCH  25  26
HETATM   26  C   UNL     1      -7.184  12.550  68.204  1.00  0.00    -0.106 C  
HETATM   27  C   UNL     1      -7.508  11.161  68.742  1.00  0.00    -0.118 C  
HETATM   28  C   UNL     1      -6.601  11.298  67.563  1.00  0.00    -0.073 C  
ENDBRANCH  25  26
ENDBRANCH  11  25
BRANCH  24  29
HETATM   29  C   UNL     1     -11.748  13.560  68.505  1.00  0.00    -0.357 C  
HETATM   30  N   UNL     1     -11.295  12.202  68.627  1.00  0.00    -0.255 N  
HETATM   31  O   UNL     1     -12.648  14.048  69.169  1.00  0.00    -0.108 OA 
HETATM   32  C   UNL     1     -11.715  11.097  69.620  1.00  0.00    -0.339 C  
HETATM   33  H   UNL     1     -10.583  11.925  67.950  1.00  0.00     0.000 HD 
HETATM   34  C   UNL     1     -10.950   9.677  69.422  1.00  0.00    -0.190 A  
HETATM   35  C   UNL     1     -13.215  10.791  69.461  1.00  0.00     1.199 C  
HETATM   36  C   UNL     1     -11.436  11.534  71.076  1.00  0.00     0.950 C  
HETATM   37  N   UNL     1     -10.704   8.769  70.264  1.00  0.00    -0.222 NA 
HETATM   38  C   UNL     1     -10.058   7.729  69.478  1.00  0.00    -0.194 A  
HETATM   39  O   UNL     1     -10.564   9.377  68.153  1.00  0.00    -0.221 OA 
HETATM   40  N   UNL     1      -9.985   8.116  68.188  1.00  0.00    -0.179 NA 
BRANCH  38  41
HETATM   41  C   UNL     1      -9.532   6.413  69.944  1.00  0.00    -0.163 A  
HETATM   42  C   UNL     1     -10.253   5.221  69.785  1.00  0.00    -0.364 A  
HETATM   43  C   UNL     1      -9.704   3.978  70.181  1.00  0.00    -0.265 A  
HETATM   44  C   UNL     1      -8.439   3.907  70.761  1.00  0.00    -0.099 A  
HETATM   45  C   UNL     1      -7.693   5.067  70.889  1.00  0.00    -0.083 A  
HETATM   46  C   UNL     1      -8.229   6.302  70.486  1.00  0.00    -0.118 A  
ENDBRANCH  38  41
ENDBRANCH  24  29
TORSDOF 4
ENDMDL
MODEL       29
REMARK 921   NORMALIZED FREE ENERGY PREDICTED BY IDOCK:   -5.78 KCAL/MOL
REMARK 922        TOTAL FREE ENERGY PREDICTED BY IDOCK:   -8.88 KCAL/MOL
REMARK 923 INTER-LIGAND FREE ENERGY PREDICTED BY IDOCK:   -7.02 KCAL/MOL
REMARK 924 INTRA-LIGAND FREE ENERGY PREDICTED BY IDOCK:   -1.86 KCAL/MOL
REMARK 927      BINDING AFFINITY PREDICTED BY RF-SCORE:    0.00 PKD
ROOT
HETATM    1  C   UNL     1      -9.198   3.768  70.953  1.00  0.00    -0.125 C  
HETATM    2  O   UNL     1      -9.639   2.838  69.868  1.00  0.00    -0.123 OA 
HETATM    3  C   UNL     1      -8.901   3.170  68.731  1.00  0.00    -0.116 A  
HETATM    4  C   UNL     1      -8.026   4.203  68.958  1.00  0.00    -0.067 A  
HETATM    5  C   UNL     1      -7.457   5.141  68.076  1.00  0.00    -0.076 A  
HETATM    6  C   UNL     1      -7.976   5.033  66.802  1.00  0.00    -0.104 A  
HETATM    7  C   UNL     1      -6.809   6.417  68.898  1.00  0.00    -0.066 C  
HETATM    8  C   UNL     1      -7.548   7.109  70.319  1.00  0.00    -0.090 C  
HETATM    9  C   UNL     1      -8.768   3.883  66.463  1.00  0.00    -0.115 A  
HETATM   10  C   UNL     1      -9.167   2.906  67.415  1.00  0.00    -0.182 A  
HETATM   11  N   UNL     1      -6.414   6.872  71.331  1.00  0.00    -0.041 NA 
HETATM   12  C   UNL     1      -5.843   5.537  71.464  1.00  0.00    -0.024 C  
HETATM   13  O   UNL     1      -9.888   1.816  67.041  1.00  0.00    -0.233 OA 
HETATM   14  H   UNL     1      -9.795   6.367  68.274  1.00  0.00     0.000 HD 
HETATM   15  C   UNL     1      -6.606   4.377  70.825  1.00  0.00    -0.034 C  
HETATM   16  H   UNL     1     -11.226   4.878  73.419  1.00  0.00     0.000 HD 
HETATM   17  H   UNL     1     -10.072   1.633  66.127  1.00  0.00     0.000 HD 
HETATM   18  C   UNL     1      -8.121   4.688  70.332  1.00  0.00    -0.071 C  
HETATM   19  O   UNL     1     -10.572   4.333  72.995  1.00  0.00    -0.174 OA 
HETATM   20  C   UNL     1      -8.775   6.204  69.870  1.00  0.00    -0.136 C  
HETATM   21  C   UNL     1     -10.338   4.718  71.692  1.00  0.00    -0.145 C  
HETATM   22  O   UNL     1      -9.061   6.909  68.543  1.00  0.00    -0.129 OA 
HETATM   23  C   UNL     1     -10.290   5.934  69.795  1.00  0.00    -0.309 C  
HETATM   24  C   UNL     1     -10.755   5.913  71.149  1.00  0.00    -0.328 C  
ENDROOT
BRANCH  11  25
HETATM   25  C   UNL     1      -6.247   7.641  72.589  1.00  0.00    -0.055 C  
BRANCH  25  26
HETATM   26  C   UNL     1      -7.601   8.187  73.082  1.00  0.00    -0.197 C  
HETATM   27  C   UNL     1      -7.860   8.432  74.564  1.00  0.00    -0.259 C  
HETATM   28  C   UNL     1      -8.619   7.358  73.853  1.00  0.00    -0.245 C  
ENDBRANCH  25  26
ENDBRANCH  11  25
BRANCH  24  29
HETATM   29  C   UNL     1     -11.516   7.308  71.383  1.00  0.00    -0.266 C  
HETATM   30  N   UNL     1     -11.340   8.355  70.414  1.00  0.00    -0.389 N  
HETATM   31  O   UNL     1     -12.207   7.406  72.384  1.00  0.00    -0.215 OA 
HETATM   32  C   UNL     1     -12.000   9.748  70.321  1.00  0.00    -0.090 C  
HETATM   33  H   UNL     1     -10.674   8.144  69.671  1.00  0.00     0.000 HD 
HETATM   34  C   UNL     1     -11.524  10.644  69.052  1.00  0.00    -0.274 A  
HETATM   35  C   UNL     1     -11.656  10.576  71.572  1.00  0.00     0.217 C  
HETATM   36  C   UNL     1     -13.535   9.620  70.201  1.00  0.00     0.883 C  
HETATM   37  N   UNL     1     -12.137  11.558  68.434  1.00  0.00    -0.560 NA 
HETATM   38  C   UNL     1     -11.174  12.018  67.445  1.00  0.00    -0.307 A  
HETATM   39  O   UNL     1     -10.253  10.433  68.614  1.00  0.00    -0.166 OA 
HETATM   40  N   UNL     1     -10.026  11.321  67.572  1.00  0.00    -0.180 NA 
BRANCH  38  41
HETATM   41  C   UNL     1     -11.347  13.086  66.417  1.00  0.00    -0.355 A  
HETATM   42  C   UNL     1     -12.175  12.918  65.298  1.00  0.00    -0.524 A  
HETATM   43  C   UNL     1     -12.369  13.968  64.370  1.00  0.00    -0.401 A  
HETATM   44  C   UNL     1     -11.726  15.194  64.532  1.00  0.00    -0.331 A  
HETATM   45  C   UNL     1     -10.937  15.395  65.652  1.00  0.00    -0.330 A  
HETATM   46  C   UNL     1     -10.751  14.358  66.583  1.00  0.00    -0.292 A  
ENDBRANCH  38  41
ENDBRANCH  24  29
TORSDOF 4
ENDMDL
MODEL       30
REMARK 921   NORMALIZED FREE ENERGY PREDICTED BY IDOCK:   -5.64 KCAL/MOL
REMARK 922        TOTAL FREE ENERGY PREDICTED BY IDOCK:   -8.71 KCAL/MOL
REMARK 923 INTER-LIGAND FREE ENERGY PREDICTED BY IDOCK:   -7.29 KCAL/MOL
REMARK 924 INTRA-LIGAND FREE ENERGY PREDICTED BY IDOCK:   -1.42 KCAL/MOL
REMARK 927      BINDING AFFINITY PREDICTED BY RF-SCORE:    0.00 PKD
ROOT
HETATM    1  C   UNL     1     -10.649  17.168  68.637  1.00  0.00    -0.352 C  
HETATM    2  O   UNL     1      -9.515  17.871  69.312  1.00  0.00    -0.056 OA 
HETATM    3  C   UNL     1      -8.378  17.631  68.540  1.00  0.00    -0.291 A  
HETATM    4  C   UNL     1      -8.648  16.860  67.436  1.00  0.00    -0.214 A  
HETATM    5  C   UNL     1      -7.818  16.015  66.676  1.00  0.00    -0.266 A  
HETATM    6  C   UNL     1      -6.561  15.889  67.231  1.00  0.00    -0.200 A  
HETATM    7  C   UNL     1      -8.708  15.005  65.721  1.00  0.00     0.803 C  
HETATM    8  C   UNL     1     -10.206  14.277  66.241  1.00  0.00    -0.301 C  
HETATM    9  C   UNL     1      -6.168  16.784  68.285  1.00  0.00    -0.132 A  
HETATM   10  C   UNL     1      -7.058  17.713  68.888  1.00  0.00    -0.254 A  
HETATM   11  N   UNL     1     -11.151  14.863  65.177  1.00  0.00    -0.371 NA 
HETATM   12  C   UNL     1     -11.159  16.303  64.944  1.00  0.00    -0.290 C  
HETATM   13  O   UNL     1      -6.631  18.563  69.859  1.00  0.00    -0.103 OA 
HETATM   14  H   UNL     1      -8.202  14.286  68.643  1.00  0.00     0.000 HD 
HETATM   15  C   UNL     1     -10.464  17.188  65.978  1.00  0.00    -0.271 C  
HETATM   16  H   UNL     1     -13.272  15.815  70.285  1.00  0.00     0.000 HD 
HETATM   17  H   UNL     1      -5.714  18.620  70.101  1.00  0.00     0.000 HD 
HETATM   18  C   UNL     1     -10.057  16.483  67.383  1.00  0.00    -0.279 C  
HETATM   19  O   UNL     1     -12.782  16.463  69.792  1.00  0.00     0.390 OA 
HETATM   20  C   UNL     1      -9.739  14.821  67.660  1.00  0.00    -0.213 C  
HETATM   21  C   UNL     1     -11.504  16.037  69.498  1.00  0.00    -0.326 C  
HETATM   22  O   UNL     1      -8.482  13.961  67.795  1.00  0.00    -0.158 OA 
HETATM   23  C   UNL     1      -9.705  14.713  69.196  1.00  0.00    -0.108 C  
HETATM   24  C   UNL     1     -11.071  14.736  69.625  1.00  0.00    -0.299 C  
ENDROOT
BRANCH  11  25
HETATM   25  C   UNL     1     -12.456  14.264  64.804  1.00  0.00    -0.374 C  
BRANCH  25  26
HETATM   26  C   UNL     1     -12.298  13.302  63.611  1.00  0.00    -0.456 C  
HETATM   27  C   UNL     1     -12.725  11.843  63.713  1.00  0.00    -0.466 C  
HETATM   28  C   UNL     1     -11.276  12.175  63.560  1.00  0.00    -0.536 C  
ENDBRANCH  25  26
ENDBRANCH  11  25
BRANCH  24  29
HETATM   29  C   UNL     1     -11.440  13.224  70.021  1.00  0.00    -0.035 C  
HETATM   30  N   UNL     1     -11.002  12.164  69.156  1.00  0.00    -0.371 N  
HETATM   31  O   UNL     1     -12.084  13.056  71.044  1.00  0.00    -0.246 OA 
HETATM   32  C   UNL     1     -11.124  10.632  69.316  1.00  0.00    -0.252 C  
HETATM   33  H   UNL     1     -10.537  12.471  68.302  1.00  0.00     0.000 HD 
HETATM   34  C   UNL     1     -10.488   9.767  68.097  1.00  0.00    -0.216 A  
HETATM   35  C   UNL     1     -12.607  10.229  69.387  1.00  0.00     0.563 C  
HETATM   36  C   UNL     1     -10.405  10.156  70.599  1.00  0.00    -0.006 C  
HETATM   37  N   UNL     1     -10.017   8.596  68.098  1.00  0.00    -0.171 NA 
HETATM   38  C   UNL     1      -9.666   8.358  66.706  1.00  0.00    -0.242 A  
HETATM   39  O   UNL     1     -10.514  10.353  66.870  1.00  0.00    -0.233 OA 
HETATM   40  N   UNL     1      -9.980   9.443  65.969  1.00  0.00    -0.300 NA 
BRANCH  38  41
HETATM   41  C   UNL     1      -9.052   7.138  66.106  1.00  0.00    -0.155 A  
HETATM   42  C   UNL     1      -9.705   5.898  66.103  1.00  0.00    -0.084 A  
HETATM   43  C   UNL     1      -9.127   4.770  65.473  1.00  0.00    -0.152 A  
HETATM   44  C   UNL     1      -7.881   4.857  64.854  1.00  0.00    -0.089 A  
HETATM   45  C   UNL     1      -7.238   6.083  64.809  1.00  0.00    -0.063 A  
HETATM   46  C   UNL     1      -7.814   7.208  65.423  1.00  0.00    -0.119 A  
ENDBRANCH  38  41
ENDBRANCH  24  29
TORSDOF 4
ENDMDL
MODEL       31
REMARK 921   NORMALIZED FREE ENERGY PREDICTED BY IDOCK:   -5.62 KCAL/MOL
REMARK 922        TOTAL FREE ENERGY PREDICTED BY IDOCK:   -8.69 KCAL/MOL
REMARK 923 INTER-LIGAND FREE ENERGY PREDICTED BY IDOCK:   -7.23 KCAL/MOL
REMARK 924 INTRA-LIGAND FREE ENERGY PREDICTED BY IDOCK:   -1.47 KCAL/MOL
REMARK 927      BINDING AFFINITY PREDICTED BY RF-SCORE:    0.00 PKD
ROOT
HETATM    1  C   UNL     1      -9.423  15.840  65.456  1.00  0.00    -0.099 C  
HETATM    2  O   UNL     1     -10.191  17.075  65.110  1.00  0.00    -0.544 OA 
HETATM    3  C   UNL     1      -9.927  18.006  66.115  1.00  0.00    -0.285 A  
HETATM    4  C   UNL     1      -9.067  17.519  67.067  1.00  0.00    -0.255 A  
HETATM    5  C   UNL     1      -8.890  17.873  68.419  1.00  0.00    -0.293 A  
HETATM    6  C   UNL     1      -9.830  18.792  68.839  1.00  0.00    -0.415 A  
HETATM    7  C   UNL     1      -8.036  16.718  69.231  1.00  0.00    -0.024 C  
HETATM    8  C   UNL     1      -8.236  15.008  68.947  1.00  0.00    -0.178 C  
HETATM    9  C   UNL     1     -10.648  19.455  67.862  1.00  0.00    -0.501 A  
HETATM   10  C   UNL     1     -10.640  19.115  66.482  1.00  0.00    -0.435 A  
HETATM   11  N   UNL     1      -6.805  14.659  68.504  1.00  0.00    -0.092 NA 
HETATM   12  C   UNL     1      -6.177  15.438  67.443  1.00  0.00    -0.001 C  
HETATM   13  O   UNL     1     -11.408  19.793  65.589  1.00  0.00    -0.069 OA 
HETATM   14  H   UNL     1     -11.042  16.386  68.828  1.00  0.00     0.000 HD 
HETATM   15  C   UNL     1      -7.076  16.353  66.612  1.00  0.00    -0.175 C  
HETATM   16  H   UNL     1     -10.461  12.709  64.720  1.00  0.00     0.000 HD 
HETATM   17  H   UNL     1     -11.903  20.563  65.843  1.00  0.00     0.000 HD 
HETATM   18  C   UNL     1      -8.677  16.142  66.777  1.00  0.00    -0.273 C  
HETATM   19  O   UNL     1      -9.986  13.525  64.617  1.00  0.00    -0.271 OA 
HETATM   20  C   UNL     1      -9.509  15.502  68.133  1.00  0.00    -0.198 C  
HETATM   21  C   UNL     1     -10.252  14.416  65.635  1.00  0.00    -0.350 C  
HETATM   22  O   UNL     1     -10.281  16.090  69.315  1.00  0.00    -0.218 OA 
HETATM   23  C   UNL     1     -10.937  15.274  67.604  1.00  0.00    -0.311 C  
HETATM   24  C   UNL     1     -10.881  14.081  66.814  1.00  0.00    -0.294 C  
ENDROOT
BRANCH  11  25
HETATM   25  C   UNL     1      -6.223  13.296  68.568  1.00  0.00    -0.081 C  
BRANCH  25  26
HETATM   26  C   UNL     1      -5.249  13.170  69.755  1.00  0.00    -0.085 C  
HETATM   27  C   UNL     1      -5.480  12.143  70.858  1.00  0.00    -0.127 C  
HETATM   28  C   UNL     1      -5.585  13.599  71.176  1.00  0.00    -0.214 C  
ENDBRANCH  25  26
ENDBRANCH  11  25
BRANCH  24  29
HETATM   29  C   UNL     1     -11.556  12.925  67.702  1.00  0.00    -0.355 C  
HETATM   30  N   UNL     1     -10.698  12.035  68.433  1.00  0.00    -0.220 N  
HETATM   31  O   UNL     1     -12.775  12.863  67.704  1.00  0.00     0.352 OA 
HETATM   32  C   UNL     1     -11.049  10.904  69.427  1.00  0.00    -0.260 C  
HETATM   33  H   UNL     1      -9.700  12.171  68.272  1.00  0.00     0.000 HD 
HETATM   34  C   UNL     1      -9.767  10.123  70.049  1.00  0.00    -0.093 A  
HETATM   35  C   UNL     1     -11.893   9.830  68.720  1.00  0.00     0.646 C  
HETATM   36  C   UNL     1     -11.837  11.461  70.633  1.00  0.00    -0.327 C  
HETATM   37  N   UNL     1      -9.648   9.517  71.150  1.00  0.00    -0.182 NA 
HETATM   38  C   UNL     1      -8.299   8.974  71.106  1.00  0.00    -0.159 A  
HETATM   39  O   UNL     1      -8.667  10.048  69.252  1.00  0.00    -0.151 OA 
HETATM   40  N   UNL     1      -7.715   9.306  69.936  1.00  0.00    -0.088 NA 
BRANCH  38  41
HETATM   41  C   UNL     1      -7.596   8.168  72.146  1.00  0.00    -0.142 A  
HETATM   42  C   UNL     1      -7.758   8.412  73.517  1.00  0.00    -0.140 A  
HETATM   43  C   UNL     1      -7.127   7.595  74.484  1.00  0.00    -0.140 A  
HETATM   44  C   UNL     1      -6.309   6.533  74.099  1.00  0.00    -0.066 A  
HETATM   45  C   UNL     1      -6.169   6.248  72.751  1.00  0.00    -0.054 A  
HETATM   46  C   UNL     1      -6.804   7.052  71.788  1.00  0.00    -0.060 A  
ENDBRANCH  38  41
ENDBRANCH  24  29
TORSDOF 4
ENDMDL
MODEL       32
REMARK 921   NORMALIZED FREE ENERGY PREDICTED BY IDOCK:   -5.59 KCAL/MOL
REMARK 922        TOTAL FREE ENERGY PREDICTED BY IDOCK:   -8.65 KCAL/MOL
REMARK 923 INTER-LIGAND FREE ENERGY PREDICTED BY IDOCK:   -7.22 KCAL/MOL
REMARK 924 INTRA-LIGAND FREE ENERGY PREDICTED BY IDOCK:   -1.43 KCAL/MOL
REMARK 927      BINDING AFFINITY PREDICTED BY RF-SCORE:    0.00 PKD
ROOT
HETATM    1  C   UNL     1      -9.993  11.398  65.637  1.00  0.00    -0.240 C  
HETATM    2  O   UNL     1     -10.871  12.148  64.687  1.00  0.00    -0.282 OA 
HETATM    3  C   UNL     1     -10.690  13.504  64.960  1.00  0.00    -0.357 A  
HETATM    4  C   UNL     1      -9.787  13.719  65.972  1.00  0.00    -0.298 A  
HETATM    5  C   UNL     1      -9.640  14.799  66.864  1.00  0.00    -0.251 A  
HETATM    6  C   UNL     1     -10.658  15.720  66.730  1.00  0.00    -0.309 A  
HETATM    7  C   UNL     1      -8.683  14.389  68.145  1.00  0.00    -0.175 C  
HETATM    8  C   UNL     1      -8.729  12.819  68.904  1.00  0.00     0.335 C  
HETATM    9  C   UNL     1     -11.535  15.638  65.595  1.00  0.00     0.116 A  
HETATM   10  C   UNL     1     -11.499  14.567  64.662  1.00  0.00    -0.387 A  
HETATM   11  N   UNL     1      -7.273  12.383  68.665  1.00  0.00    -0.103 NA 
HETATM   12  C   UNL     1      -6.720  12.451  67.317  1.00  0.00    -0.133 C  
HETATM   13  O   UNL     1     -12.327  14.549  63.584  1.00  0.00    -1.064 OA 
HETATM   14  H   UNL     1     -11.648  13.668  68.167  1.00  0.00     0.000 HD 
HETATM   15  C   UNL     1      -7.700  12.652  66.162  1.00  0.00     1.385 C  
HETATM   16  H   UNL     1     -10.747   8.349  66.888  1.00  0.00     0.000 HD 
HETATM   17  H   UNL     1     -12.888  15.286  63.377  1.00  0.00     0.000 HD 
HETATM   18  C   UNL     1      -9.275  12.459  66.504  1.00  0.00    -0.215 C  
HETATM   19  O   UNL     1     -10.347   8.989  66.310  1.00  0.00    -0.247 OA 
HETATM   20  C   UNL     1     -10.043  12.659  68.024  1.00  0.00    -0.229 C  
HETATM   21  C   UNL     1     -10.691  10.281  66.645  1.00  0.00    -0.113 C  
HETATM   22  O   UNL     1     -10.862  13.763  68.694  1.00  0.00    -0.249 OA 
HETATM   23  C   UNL     1     -11.446  12.065  67.799  1.00  0.00    -0.394 C  
HETATM   24  C   UNL     1     -11.284  10.643  67.835  1.00  0.00    -0.376 C  
ENDROOT
BRANCH  11  25
HETATM   25  C   UNL     1      -6.571  11.352  69.468  1.00  0.00    -0.129 C  
BRANCH  25  26
HETATM   26  C   UNL     1      -7.307  10.000  69.390  1.00  0.00    -0.100 C  
HETATM   27  C   UNL     1      -7.690   9.238  70.652  1.00  0.00    -0.170 C  
HETATM   28  C   UNL     1      -6.663   8.664  69.732  1.00  0.00    -0.042 C  
ENDBRANCH  25  26
ENDBRANCH  11  25
BRANCH  24  29
HETATM   29  C   UNL     1     -11.851  10.164  69.260  1.00  0.00     0.078 C  
HETATM   30  N   UNL     1     -11.437   8.885  69.766  1.00  0.00    -0.434 N  
HETATM   31  O   UNL     1     -12.612  10.921  69.840  1.00  0.00    -0.289 OA 
HETATM   32  C   UNL     1     -11.736   8.206  71.121  1.00  0.00    -0.283 C  
HETATM   33  H   UNL     1     -10.855   8.340  69.130  1.00  0.00     0.000 HD 
HETATM   34  C   UNL     1     -11.069   6.735  71.307  1.00  0.00    -0.262 A  
HETATM   35  C   UNL     1     -13.252   8.002  71.282  1.00  0.00    -0.183 C  
HETATM   36  C   UNL     1     -11.209   9.065  72.292  1.00  0.00    -0.160 C  
HETATM   37  N   UNL     1     -10.726   6.132  72.362  1.00  0.00    -0.221 NA 
HETATM   38  C   UNL     1     -10.257   4.839  71.888  1.00  0.00    -0.193 A  
HETATM   39  O   UNL     1     -10.904   6.005  70.171  1.00  0.00    -0.280 OA 
HETATM   40  N   UNL     1     -10.376   4.778  70.546  1.00  0.00    -0.182 NA 
BRANCH  38  41
HETATM   41  C   UNL     1      -9.715   3.705  72.692  1.00  0.00    -0.199 A  
HETATM   42  C   UNL     1      -8.363   3.628  73.059  1.00  0.00    -0.086 A  
HETATM   43  C   UNL     1      -7.887   2.573  73.872  1.00  0.00    -0.055 A  
HETATM   44  C   UNL     1      -8.745   1.568  74.315  1.00  0.00    -0.054 A  
HETATM   45  C   UNL     1     -10.092   1.647  74.000  1.00  0.00    -0.135 A  
HETATM   46  C   UNL     1     -10.571   2.700  73.201  1.00  0.00    -0.260 A  
ENDBRANCH  38  41
ENDBRANCH  24  29
TORSDOF 4
ENDMDL
MODEL       33
REMARK 921   NORMALIZED FREE ENERGY PREDICTED BY IDOCK:   -5.56 KCAL/MOL
REMARK 922        TOTAL FREE ENERGY PREDICTED BY IDOCK:   -8.62 KCAL/MOL
REMARK 923 INTER-LIGAND FREE ENERGY PREDICTED BY IDOCK:   -7.12 KCAL/MOL
REMARK 924 INTRA-LIGAND FREE ENERGY PREDICTED BY IDOCK:   -1.50 KCAL/MOL
REMARK 927      BINDING AFFINITY PREDICTED BY RF-SCORE:    0.00 PKD
ROOT
HETATM    1  C   UNL     1      -7.781   4.771  70.460  1.00  0.00    -0.058 C  
HETATM    2  O   UNL     1      -8.279   4.672  71.867  1.00  0.00    -0.101 OA 
HETATM    3  C   UNL     1      -9.651   4.919  71.825  1.00  0.00    -0.156 A  
HETATM    4  C   UNL     1     -10.101   5.159  70.550  1.00  0.00    -0.326 A  
HETATM    5  C   UNL     1     -11.221   5.874  70.086  1.00  0.00    -0.338 A  
HETATM    6  C   UNL     1     -11.888   6.512  71.112  1.00  0.00    -0.383 A  
HETATM    7  C   UNL     1     -11.086   6.217  68.477  1.00  0.00    -0.397 C  
HETATM    8  C   UNL     1      -9.577   6.657  67.720  1.00  0.00    -0.123 C  
HETATM    9  C   UNL     1     -11.567   6.177  72.472  1.00  0.00    -0.294 A  
HETATM   10  C   UNL     1     -10.494   5.315  72.827  1.00  0.00    -0.217 A  
HETATM   11  N   UNL     1      -9.467   5.512  66.699  1.00  0.00    -0.139 NA 
HETATM   12  C   UNL     1      -9.602   4.133  67.156  1.00  0.00    -0.197 C  
HETATM   13  O   UNL     1     -10.249   5.000  74.127  1.00  0.00    -0.197 OA 
HETATM   14  H   UNL     1      -9.726   8.012  70.535  1.00  0.00     0.000 HD 
HETATM   15  C   UNL     1      -9.533   3.878  68.661  1.00  0.00    -0.217 C  
HETATM   16  H   UNL     1      -4.694   5.868  69.629  1.00  0.00     0.000 HD 
HETATM   17  H   UNL     1     -10.834   5.275  74.823  1.00  0.00     0.000 HD 
HETATM   18  C   UNL     1      -9.009   5.108  69.582  1.00  0.00    -0.137 C  
HETATM   19  O   UNL     1      -5.382   5.243  69.823  1.00  0.00    -0.003 OA 
HETATM   20  C   UNL     1      -9.094   6.783  69.229  1.00  0.00    -0.139 C  
HETATM   21  C   UNL     1      -6.578   5.861  70.121  1.00  0.00    -0.047 C  
HETATM   22  O   UNL     1     -10.014   7.936  69.633  1.00  0.00    -0.184 OA 
HETATM   23  C   UNL     1      -8.194   7.423  70.304  1.00  0.00    -0.132 C  
HETATM   24  C   UNL     1      -6.846   7.191  69.880  1.00  0.00    -0.056 C  
ENDROOT
BRANCH  11  25
HETATM   25  C   UNL     1      -8.651   5.576  65.462  1.00  0.00    -0.150 C  
BRANCH  25  26
HETATM   26  C   UNL     1      -8.227   7.026  65.159  1.00  0.00    -0.113 C  
HETATM   27  C   UNL     1      -8.038   7.509  63.726  1.00  0.00    -0.024 C  
HETATM   28  C   UNL     1      -6.853   7.415  64.631  1.00  0.00    -0.047 C  
ENDBRANCH  25  26
ENDBRANCH  11  25
BRANCH  24  29
HETATM   29  C   UNL     1      -6.311   8.592  69.304  1.00  0.00    -0.042 C  
HETATM   30  N   UNL     1      -7.215   9.408  68.542  1.00  0.00    -0.071 N  
HETATM   31  O   UNL     1      -5.152   8.887  69.544  1.00  0.00    -0.034 OA 
HETATM   32  C   UNL     1      -7.021  10.821  67.947  1.00  0.00    -0.073 C  
HETATM   33  H   UNL     1      -8.128   8.989  68.367  1.00  0.00     0.000 HD 
HETATM   34  C   UNL     1      -8.308  11.403  67.142  1.00  0.00    -0.155 A  
HETATM   35  C   UNL     1      -5.864  10.808  66.933  1.00  0.00    -0.068 C  
HETATM   36  C   UNL     1      -6.713  11.847  69.060  1.00  0.00    -0.099 C  
HETATM   37  N   UNL     1      -8.663  12.598  66.945  1.00  0.00    -0.199 NA 
HETATM   38  C   UNL     1      -9.849  12.477  66.110  1.00  0.00    -0.258 A  
HETATM   39  O   UNL     1      -9.099  10.481  66.531  1.00  0.00    -0.153 OA 
HETATM   40  N   UNL     1     -10.098  11.175  65.864  1.00  0.00    -0.238 NA 
BRANCH  38  41
HETATM   41  C   UNL     1     -10.709  13.569  65.569  1.00  0.00    -0.293 A  
HETATM   42  C   UNL     1     -10.198  14.834  65.247  1.00  0.00    -0.415 A  
HETATM   43  C   UNL     1     -11.023  15.832  64.678  1.00  0.00    -0.333 A  
HETATM   44  C   UNL     1     -12.376  15.592  64.440  1.00  0.00    -0.011 A  
HETATM   45  C   UNL     1     -12.892  14.335  64.711  1.00  0.00    -0.044 A  
HETATM   46  C   UNL     1     -12.072  13.337  65.266  1.00  0.00    -0.456 A  
ENDBRANCH  38  41
ENDBRANCH  24  29
TORSDOF 4
ENDMDL
MODEL       34
REMARK 921   NORMALIZED FREE ENERGY PREDICTED BY IDOCK:   -5.48 KCAL/MOL
REMARK 922        TOTAL FREE ENERGY PREDICTED BY IDOCK:   -8.51 KCAL/MOL
REMARK 923 INTER-LIGAND FREE ENERGY PREDICTED BY IDOCK:   -7.69 KCAL/MOL
REMARK 924 INTRA-LIGAND FREE ENERGY PREDICTED BY IDOCK:   -0.82 KCAL/MOL
REMARK 927      BINDING AFFINITY PREDICTED BY RF-SCORE:    0.00 PKD
ROOT
HETATM    1  C   UNL     1      -9.950  16.603  67.426  1.00  0.00    -0.265 C  
HETATM    2  O   UNL     1     -10.175  16.743  65.954  1.00  0.00    -0.378 OA 
HETATM    3  C   UNL     1     -11.229  15.890  65.627  1.00  0.00     0.003 A  
HETATM    4  C   UNL     1     -11.720  15.221  66.720  1.00  0.00     0.030 A  
HETATM    5  C   UNL     1     -12.403  13.994  66.820  1.00  0.00    -0.368 A  
HETATM    6  C   UNL     1     -12.476  13.342  65.607  1.00  0.00    -0.519 A  
HETATM    7  C   UNL     1     -12.403  13.436  68.374  1.00  0.00     0.077 C  
HETATM    8  C   UNL     1     -11.034  13.596  69.444  1.00  0.00    -0.069 C  
HETATM    9  C   UNL     1     -12.127  14.053  64.407  1.00  0.00    -0.486 A  
HETATM   10  C   UNL     1     -11.575  15.362  64.413  1.00  0.00    -0.264 A  
HETATM   11  N   UNL     1     -11.685  14.433  70.559  1.00  0.00    -0.283 NA 
HETATM   12  C   UNL     1     -12.400  15.655  70.209  1.00  0.00    -0.370 C  
HETATM   13  O   UNL     1     -11.293  16.009  63.251  1.00  0.00    -0.124 OA 
HETATM   14  H   UNL     1      -9.996  12.921  66.572  1.00  0.00     0.000 HD 
HETATM   15  C   UNL     1     -12.201  16.210  68.799  1.00  0.00     0.402 C  
HETATM   16  H   UNL     1      -6.925  16.903  68.905  1.00  0.00     0.000 HD 
HETATM   17  H   UNL     1     -11.533  15.642  62.408  1.00  0.00     0.000 HD 
HETATM   18  C   UNL     1     -10.986  15.571  67.932  1.00  0.00    -0.316 C  
HETATM   19  O   UNL     1      -7.786  17.167  68.601  1.00  0.00    -0.240 OA 
HETATM   20  C   UNL     1     -10.294  14.012  68.100  1.00  0.00    -0.241 C  
HETATM   21  C   UNL     1      -8.448  16.143  67.957  1.00  0.00    -0.168 C  
HETATM   22  O   UNL     1     -10.439  12.672  67.375  1.00  0.00    -0.222 OA 
HETATM   23  C   UNL     1      -9.023  14.087  67.234  1.00  0.00    -0.223 C  
HETATM   24  C   UNL     1      -8.063  14.821  68.002  1.00  0.00    -0.140 C  
ENDROOT
BRANCH  11  25
HETATM   25  C   UNL     1     -11.176  14.503  71.951  1.00  0.00     0.865 C  
BRANCH  25  26
HETATM   26  C   UNL     1     -11.875  15.631  72.734  1.00  0.00    -0.580 C  
HETATM   27  C   UNL     1     -12.385  15.405  74.153  1.00  0.00    -0.800 C  
HETATM   28  C   UNL     1     -13.364  15.647  73.050  1.00  0.00    -0.668 C  
ENDBRANCH  25  26
ENDBRANCH  11  25
BRANCH  24  29
HETATM   29  C   UNL     1      -7.019  13.739  68.566  1.00  0.00    -0.103 C  
HETATM   30  N   UNL     1      -7.502  12.424  68.886  1.00  0.00    -0.279 N  
HETATM   31  O   UNL     1      -5.860  14.097  68.696  1.00  0.00    -0.079 OA 
HETATM   32  C   UNL     1      -6.734  11.167  69.352  1.00  0.00    -0.120 C  
HETATM   33  H   UNL     1      -8.510  12.302  68.791  1.00  0.00     0.000 HD 
HETATM   34  C   UNL     1      -7.664   9.859  69.610  1.00  0.00    -0.149 A  
HETATM   35  C   UNL     1      -6.028  11.450  70.690  1.00  0.00    -0.040 C  
HETATM   36  C   UNL     1      -5.685  10.745  68.300  1.00  0.00    -0.043 C  
HETATM   37  N   UNL     1      -7.368   8.634  69.544  1.00  0.00    -0.066 NA 
HETATM   38  C   UNL     1      -8.593   7.956  69.943  1.00  0.00    -0.139 A  
HETATM   39  O   UNL     1      -8.938  10.102  70.020  1.00  0.00    -0.151 OA 
HETATM   40  N   UNL     1      -9.541   8.871  70.233  1.00  0.00    -0.176 NA 
BRANCH  38  41
HETATM   41  C   UNL     1      -8.845   6.489  70.041  1.00  0.00    -0.144 A  
HETATM   42  C   UNL     1      -9.598   5.795  69.084  1.00  0.00    -0.171 A  
HETATM   43  C   UNL     1      -9.771   4.393  69.168  1.00  0.00    -0.240 A  
HETATM   44  C   UNL     1      -9.213   3.665  70.218  1.00  0.00    -0.222 A  
HETATM   45  C   UNL     1      -8.431   4.326  71.151  1.00  0.00    -0.105 A  
HETATM   46  C   UNL     1      -8.247   5.717  71.064  1.00  0.00    -0.121 A  
ENDBRANCH  38  41
ENDBRANCH  24  29
TORSDOF 4
ENDMDL
MODEL       35
REMARK 921   NORMALIZED FREE ENERGY PREDICTED BY IDOCK:   -5.47 KCAL/MOL
REMARK 922        TOTAL FREE ENERGY PREDICTED BY IDOCK:   -8.51 KCAL/MOL
REMARK 923 INTER-LIGAND FREE ENERGY PREDICTED BY IDOCK:   -7.07 KCAL/MOL
REMARK 924 INTRA-LIGAND FREE ENERGY PREDICTED BY IDOCK:   -1.44 KCAL/MOL
REMARK 927      BINDING AFFINITY PREDICTED BY RF-SCORE:    0.00 PKD
ROOT
HETATM    1  C   UNL     1      -9.754  12.084  66.569  1.00  0.00    -0.216 C  
HETATM    2  O   UNL     1      -9.031  13.355  66.882  1.00  0.00    -0.229 OA 
HETATM    3  C   UNL     1      -7.749  12.995  67.300  1.00  0.00    -0.105 A  
HETATM    4  C   UNL     1      -7.557  11.636  67.284  1.00  0.00    -0.147 A  
HETATM    5  C   UNL     1      -6.671  10.821  68.015  1.00  0.00    -0.064 A  
HETATM    6  C   UNL     1      -5.976  11.539  68.967  1.00  0.00    -0.052 A  
HETATM    7  C   UNL     1      -7.118   9.234  67.938  1.00  0.00    -0.078 C  
HETATM    8  C   UNL     1      -8.782   8.710  67.969  1.00  0.00    -0.141 C  
HETATM    9  C   UNL     1      -6.013  12.975  68.928  1.00  0.00    -0.079 A  
HETATM   10  C   UNL     1      -6.844  13.706  68.038  1.00  0.00    -0.138 A  
HETATM   11  N   UNL     1      -8.844   7.997  66.608  1.00  0.00    -0.138 NA 
HETATM   12  C   UNL     1      -8.393   8.700  65.412  1.00  0.00    -0.157 C  
HETATM   13  O   UNL     1      -6.820  15.066  68.015  1.00  0.00    -0.113 OA 
HETATM   14  H   UNL     1      -8.436  11.090  69.970  1.00  0.00     0.000 HD 
HETATM   15  C   UNL     1      -8.176  10.209  65.520  1.00  0.00    -0.156 C  
HETATM   16  H   UNL     1     -13.080  11.658  66.996  1.00  0.00     0.000 HD 
HETATM   17  H   UNL     1      -6.191  15.560  68.527  1.00  0.00     0.000 HD 
HETATM   18  C   UNL     1      -8.761  10.933  66.851  1.00  0.00    -0.144 C  
HETATM   19  O   UNL     1     -12.268  11.842  66.537  1.00  0.00    -0.483 OA 
HETATM   20  C   UNL     1      -9.035  10.223  68.387  1.00  0.00    -0.132 C  
HETATM   21  C   UNL     1     -11.171  11.763  67.368  1.00  0.00    -0.297 C  
HETATM   22  O   UNL     1      -8.285  10.185  69.720  1.00  0.00    -0.172 OA 
HETATM   23  C   UNL     1      -9.854  11.291  69.136  1.00  0.00    -0.027 C  
HETATM   24  C   UNL     1     -11.188  11.198  68.624  1.00  0.00    -0.314 C  
ENDROOT
BRANCH  11  25
HETATM   25  C   UNL     1      -9.844   6.957  66.258  1.00  0.00     0.061 C  
BRANCH  25  26
HETATM   26  C   UNL     1      -9.205   5.556  66.271  1.00  0.00    -0.161 C  
HETATM   27  C   UNL     1      -9.727   4.460  67.193  1.00  0.00    -0.230 C  
HETATM   28  C   UNL     1      -8.360   5.020  67.418  1.00  0.00    -0.106 C  
ENDBRANCH  25  26
ENDBRANCH  11  25
BRANCH  24  29
HETATM   29  C   UNL     1     -12.050  10.453  69.757  1.00  0.00    -0.138 C  
HETATM   30  N   UNL     1     -11.626   9.153  70.195  1.00  0.00    -0.458 N  
HETATM   31  O   UNL     1     -13.031  11.038  70.185  1.00  0.00    -0.133 OA 
HETATM   32  C   UNL     1     -12.187   8.245  71.313  1.00  0.00    -0.270 C  
HETATM   33  H   UNL     1     -10.828   8.768  69.689  1.00  0.00     0.000 HD 
HETATM   34  C   UNL     1     -11.410   6.830  71.495  1.00  0.00    -0.275 A  
HETATM   35  C   UNL     1     -13.651   7.883  71.007  1.00  0.00     0.012 C  
HETATM   36  C   UNL     1     -12.112   8.954  72.683  1.00  0.00    -0.125 C  
HETATM   37  N   UNL     1     -11.289   6.102  72.519  1.00  0.00    -0.283 NA 
HETATM   38  C   UNL     1     -10.545   4.946  72.041  1.00  0.00    -0.140 A  
HETATM   39  O   UNL     1     -10.851   6.304  70.372  1.00  0.00    -0.252 OA 
HETATM   40  N   UNL     1     -10.289   5.086  70.724  1.00  0.00    -0.224 NA 
BRANCH  38  41
HETATM   41  C   UNL     1     -10.097   3.754  72.817  1.00  0.00    -0.227 A  
HETATM   42  C   UNL     1      -8.752   3.358  72.869  1.00  0.00    -0.091 A  
HETATM   43  C   UNL     1      -8.345   2.259  73.661  1.00  0.00    -0.062 A  
HETATM   44  C   UNL     1      -9.274   1.525  74.398  1.00  0.00    -0.073 A  
HETATM   45  C   UNL     1     -10.600   1.925  74.394  1.00  0.00    -0.187 A  
HETATM   46  C   UNL     1     -11.007   3.023  73.617  1.00  0.00    -0.323 A  
ENDBRANCH  38  41
ENDBRANCH  24  29
TORSDOF 4
ENDMDL
MODEL       36
REMARK 921   NORMALIZED FREE ENERGY PREDICTED BY IDOCK:   -5.40 KCAL/MOL
REMARK 922        TOTAL FREE ENERGY PREDICTED BY IDOCK:   -8.41 KCAL/MOL
REMARK 923 INTER-LIGAND FREE ENERGY PREDICTED BY IDOCK:   -7.22 KCAL/MOL
REMARK 924 INTRA-LIGAND FREE ENERGY PREDICTED BY IDOCK:   -1.20 KCAL/MOL
REMARK 927      BINDING AFFINITY PREDICTED BY RF-SCORE:    0.00 PKD
ROOT
HETATM    1  C   UNL     1      -9.435   4.199  67.515  1.00  0.00    -0.184 C  
HETATM    2  O   UNL     1      -8.585   3.257  66.722  1.00  0.00    -0.105 OA 
HETATM    3  C   UNL     1      -7.555   2.839  67.565  1.00  0.00    -0.061 A  
HETATM    4  C   UNL     1      -7.645   3.395  68.817  1.00  0.00    -0.052 A  
HETATM    5  C   UNL     1      -6.658   3.642  69.790  1.00  0.00    -0.033 A  
HETATM    6  C   UNL     1      -5.391   3.360  69.323  1.00  0.00    -0.012 A  
HETATM    7  C   UNL     1      -7.202   4.697  70.937  1.00  0.00    -0.048 C  
HETATM    8  C   UNL     1      -8.218   6.066  70.569  1.00  0.00    -0.113 C  
HETATM    9  C   UNL     1      -5.243   2.633  68.092  1.00  0.00    -0.012 A  
HETATM   10  C   UNL     1      -6.337   2.303  67.249  1.00  0.00    -0.028 A  
HETATM   11  N   UNL     1      -9.445   5.703  71.423  1.00  0.00    -0.147 NA 
HETATM   12  C   UNL     1     -10.042   4.379  71.289  1.00  0.00    -0.132 C  
HETATM   13  O   UNL     1      -6.152   1.583  66.110  1.00  0.00    -0.018 OA 
HETATM   14  H   UNL     1      -6.082   5.757  68.305  1.00  0.00     0.000 HD 
HETATM   15  C   UNL     1      -9.618   3.532  70.089  1.00  0.00    -0.225 C  
HETATM   16  H   UNL     1     -11.088   6.825  66.175  1.00  0.00     0.000 HD 
HETATM   17  H   UNL     1      -5.306   1.210  65.891  1.00  0.00     0.000 HD 
HETATM   18  C   UNL     1      -8.791   4.294  68.919  1.00  0.00    -0.139 C  
HETATM   19  O   UNL     1     -10.957   5.944  66.506  1.00  0.00    -0.250 OA 
HETATM   20  C   UNL     1      -7.819   5.698  69.074  1.00  0.00    -0.096 C  
HETATM   21  C   UNL     1      -9.664   5.736  66.936  1.00  0.00    -0.148 C  
HETATM   22  O   UNL     1      -6.321   5.977  69.198  1.00  0.00    -0.037 OA 
HETATM   23  C   UNL     1      -7.547   6.110  67.616  1.00  0.00    -0.097 C  
HETATM   24  C   UNL     1      -8.746   6.740  67.152  1.00  0.00    -0.119 C  
ENDROOT
BRANCH  11  25
HETATM   25  C   UNL     1     -10.452   6.687  71.892  1.00  0.00    -0.201 C  
BRANCH  25  26
HETATM   26  C   UNL     1     -10.043   7.284  73.253  1.00  0.00    -0.341 C  
HETATM   27  C   UNL     1      -8.608   7.184  73.757  1.00  0.00    -0.185 C  
HETATM   28  C   UNL     1      -9.692   6.446  74.474  1.00  0.00    -0.329 C  
ENDBRANCH  25  26
ENDBRANCH  11  25
BRANCH  24  29
HETATM   29  C   UNL     1      -8.445   8.318  67.135  1.00  0.00    -0.123 C  
HETATM   30  N   UNL     1      -9.363   9.198  67.803  1.00  0.00    -0.136 N  
HETATM   31  O   UNL     1      -7.442   8.688  66.545  1.00  0.00    -0.086 OA 
HETATM   32  C   UNL     1      -9.294  10.724  68.032  1.00  0.00    -0.150 C  
HETATM   33  H   UNL     1     -10.191   8.742  68.187  1.00  0.00     0.000 HD 
HETATM   34  C   UNL     1     -10.553  11.348  68.849  1.00  0.00    -0.202 A  
HETATM   35  C   UNL     1      -9.268  11.456  66.679  1.00  0.00    -0.191 C  
HETATM   36  C   UNL     1      -8.031  11.100  68.840  1.00  0.00    -0.126 C  
HETATM   37  N   UNL     1     -10.612  12.380  69.573  1.00  0.00     0.249 NA 
HETATM   38  C   UNL     1     -12.011  12.447  69.971  1.00  0.00    -0.299 A  
HETATM   39  O   UNL     1     -11.744  10.710  68.692  1.00  0.00    -0.314 OA 
HETATM   40  N   UNL     1     -12.688  11.420  69.419  1.00  0.00    -0.025 NA 
BRANCH  38  41
HETATM   41  C   UNL     1     -12.672  13.458  70.846  1.00  0.00    -0.349 A  
HETATM   42  C   UNL     1     -13.414  13.094  71.979  1.00  0.00    -0.598 A  
HETATM   43  C   UNL     1     -13.980  14.075  72.827  1.00  0.00    -0.223 A  
HETATM   44  C   UNL     1     -13.833  15.433  72.547  1.00  0.00    -0.651 A  
HETATM   45  C   UNL     1     -13.069  15.815  71.457  1.00  0.00    -0.471 A  
HETATM   46  C   UNL     1     -12.495  14.843  70.619  1.00  0.00    -0.411 A  
ENDBRANCH  38  41
ENDBRANCH  24  29
TORSDOF 4
ENDMDL
MODEL       37
REMARK 921   NORMALIZED FREE ENERGY PREDICTED BY IDOCK:   -5.17 KCAL/MOL
REMARK 922        TOTAL FREE ENERGY PREDICTED BY IDOCK:   -8.13 KCAL/MOL
REMARK 923 INTER-LIGAND FREE ENERGY PREDICTED BY IDOCK:   -6.82 KCAL/MOL
REMARK 924 INTRA-LIGAND FREE ENERGY PREDICTED BY IDOCK:   -1.31 KCAL/MOL
REMARK 927      BINDING AFFINITY PREDICTED BY RF-SCORE:    0.00 PKD
ROOT
HETATM    1  C   UNL     1      -9.724  15.604  66.296  1.00  0.00    -0.301 C  
HETATM    2  O   UNL     1      -9.996  15.168  64.892  1.00  0.00    -0.251 OA 
HETATM    3  C   UNL     1     -11.055  14.261  64.952  1.00  0.00    -0.390 A  
HETATM    4  C   UNL     1     -11.505  14.067  66.234  1.00  0.00    -0.358 A  
HETATM    5  C   UNL     1     -12.177  12.977  66.820  1.00  0.00    -0.261 A  
HETATM    6  C   UNL     1     -12.283  11.909  65.954  1.00  0.00     0.462 A  
HETATM    7  C   UNL     1     -12.123  13.060  68.468  1.00  0.00    -0.185 C  
HETATM    8  C   UNL     1     -10.722  13.611  69.349  1.00  0.00     0.060 C  
HETATM    9  C   UNL     1     -11.978  12.101  64.563  1.00  0.00    -0.415 A  
HETATM   10  C   UNL     1     -11.435  13.309  64.047  1.00  0.00    -0.388 A  
HETATM   11  N   UNL     1     -11.343  14.816  70.077  1.00  0.00    -0.265 NA 
HETATM   12  C   UNL     1     -12.077  15.814  69.307  1.00  0.00    -0.207 C  
HETATM   13  O   UNL     1     -11.194  13.456  62.717  1.00  0.00     0.234 OA 
HETATM   14  H   UNL     1      -9.771  11.877  66.926  1.00  0.00     0.000 HD 
HETATM   15  C   UNL     1     -11.927  15.782  67.786  1.00  0.00     0.341 C  
HETATM   16  H   UNL     1      -6.656  16.434  67.448  1.00  0.00     0.000 HD 
HETATM   17  H   UNL     1     -11.458  12.795  62.088  1.00  0.00     0.000 HD 
HETATM   18  C   UNL     1     -10.736  14.853  67.193  1.00  0.00    -0.296 C  
HETATM   19  O   UNL     1      -7.528  16.565  67.093  1.00  0.00    -0.146 OA 
HETATM   20  C   UNL     1     -10.028  13.474  67.926  1.00  0.00    -0.245 C  
HETATM   21  C   UNL     1      -8.203  15.376  66.915  1.00  0.00    -0.246 C  
HETATM   22  O   UNL     1     -10.186  11.960  67.778  1.00  0.00    -0.193 OA 
HETATM   23  C   UNL     1      -8.785  13.203  67.057  1.00  0.00    -0.193 C  
HETATM   24  C   UNL     1      -7.807  14.171  67.453  1.00  0.00    -0.195 C  
ENDROOT
BRANCH  11  25
HETATM   25  C   UNL     1     -10.791  15.414  71.317  1.00  0.00    -0.044 C  
BRANCH  25  26
HETATM   26  C   UNL     1     -11.750  15.198  72.504  1.00  0.00    -0.475 C  
HETATM   27  C   UNL     1     -12.924  14.231  72.403  1.00  0.00    -0.478 C  
HETATM   28  C   UNL     1     -13.188  15.696  72.533  1.00  0.00    -0.583 C  
ENDBRANCH  25  26
ENDBRANCH  11  25
BRANCH  24  29
HETATM   29  C   UNL     1      -6.738  13.383  68.356  1.00  0.00    -0.096 C  
HETATM   30  N   UNL     1      -7.135  12.142  68.961  1.00  0.00    -0.208 N  
HETATM   31  O   UNL     1      -5.635  13.889  68.483  1.00  0.00    -0.082 OA 
HETATM   32  C   UNL     1      -6.314  11.131  69.793  1.00  0.00    -0.130 C  
HETATM   33  H   UNL     1      -8.113  11.889  68.819  1.00  0.00     0.000 HD 
HETATM   34  C   UNL     1      -7.148   9.832  70.300  1.00  0.00    -0.143 A  
HETATM   35  C   UNL     1      -5.781  11.811  71.065  1.00  0.00     0.064 C  
HETATM   36  C   UNL     1      -5.126  10.583  68.970  1.00  0.00    -0.042 C  
HETATM   37  N   UNL     1      -6.741   8.668  70.573  1.00  0.00    -0.037 NA 
HETATM   38  C   UNL     1      -7.937   7.978  71.031  1.00  0.00    -0.092 A  
HETATM   39  O   UNL     1      -8.474  10.024  70.530  1.00  0.00    -0.092 OA 
HETATM   40  N   UNL     1      -8.987   8.824  71.002  1.00  0.00    -0.196 NA 
BRANCH  38  41
HETATM   41  C   UNL     1      -8.069   6.561  71.479  1.00  0.00    -0.112 A  
HETATM   42  C   UNL     1      -7.192   5.988  72.412  1.00  0.00    -0.086 A  
HETATM   43  C   UNL     1      -7.376   4.661  72.866  1.00  0.00    -0.084 A  
HETATM   44  C   UNL     1      -8.423   3.878  72.383  1.00  0.00    -0.101 A  
HETATM   45  C   UNL     1      -9.325   4.438  71.493  1.00  0.00    -0.203 A  
HETATM   46  C   UNL     1      -9.153   5.760  71.048  1.00  0.00    -0.157 A  
ENDBRANCH  38  41
ENDBRANCH  24  29
TORSDOF 4
ENDMDL
MODEL       38
REMARK 921   NORMALIZED FREE ENERGY PREDICTED BY IDOCK:   -5.15 KCAL/MOL
REMARK 922        TOTAL FREE ENERGY PREDICTED BY IDOCK:   -8.10 KCAL/MOL
REMARK 923 INTER-LIGAND FREE ENERGY PREDICTED BY IDOCK:   -6.70 KCAL/MOL
REMARK 924 INTRA-LIGAND FREE ENERGY PREDICTED BY IDOCK:   -1.40 KCAL/MOL
REMARK 927      BINDING AFFINITY PREDICTED BY RF-SCORE:    0.00 PKD
ROOT
HETATM    1  C   UNL     1     -11.485  14.601  68.619  1.00  0.00    -0.300 C  
HETATM    2  O   UNL     1     -11.313  15.821  69.467  1.00  0.00    -0.280 OA 
HETATM    3  C   UNL     1     -10.900  16.846  68.616  1.00  0.00    -0.314 A  
HETATM    4  C   UNL     1     -10.792  16.431  67.311  1.00  0.00    -0.194 A  
HETATM    5  C   UNL     1     -10.013  16.925  66.248  1.00  0.00    -0.324 A  
HETATM    6  C   UNL     1      -9.152  17.923  66.658  1.00  0.00    -0.279 A  
HETATM    7  C   UNL     1      -9.928  15.834  65.013  1.00  0.00     0.108 C  
HETATM    8  C   UNL     1      -9.801  14.113  65.270  1.00  0.00    -0.164 C  
HETATM    9  C   UNL     1      -9.325  18.507  67.960  1.00  0.00    -0.321 A  
HETATM   10  C   UNL     1     -10.257  18.016  68.913  1.00  0.00    -0.311 A  
HETATM   11  N   UNL     1     -11.087  13.659  64.558  1.00  0.00    -0.379 NA 
HETATM   12  C   UNL     1     -12.356  14.289  64.906  1.00  0.00    -0.425 C  
HETATM   13  O   UNL     1     -10.409  18.623  70.121  1.00  0.00     0.180 OA 
HETATM   14  H   UNL     1      -8.044  15.582  67.399  1.00  0.00     0.000 HD 
HETATM   15  C   UNL     1     -12.396  15.142  66.173  1.00  0.00     0.537 C  
HETATM   16  H   UNL     1     -10.928  11.452  69.716  1.00  0.00     0.000 HD 
HETATM   17  H   UNL     1      -9.963  19.435  70.327  1.00  0.00     0.000 HD 
HETATM   18  C   UNL     1     -11.124  15.016  67.173  1.00  0.00    -0.332 C  
HETATM   19  O   UNL     1     -11.424  12.232  69.495  1.00  0.00    -0.272 OA 
HETATM   20  C   UNL     1      -9.520  14.565  66.768  1.00  0.00    -0.269 C  
HETATM   21  C   UNL     1     -10.620  13.240  69.006  1.00  0.00    -0.065 C  
HETATM   22  O   UNL     1      -8.212  15.312  66.504  1.00  0.00    -0.192 OA 
HETATM   23  C   UNL     1      -8.853  14.338  68.137  1.00  0.00    -0.183 C  
HETATM   24  C   UNL     1      -9.316  13.064  68.598  1.00  0.00     0.009 C  
ENDROOT
BRANCH  11  25
HETATM   25  C   UNL     1     -11.309  12.288  64.035  1.00  0.00    -0.399 C  
BRANCH  25  26
HETATM   26  C   UNL     1     -10.007  11.705  63.453  1.00  0.00    -0.447 C  
HETATM   27  C   UNL     1      -9.976  10.315  62.828  1.00  0.00     0.152 C  
HETATM   28  C   UNL     1      -9.226  10.567  64.096  1.00  0.00    -0.283 C  
ENDBRANCH  25  26
ENDBRANCH  11  25
BRANCH  24  29
HETATM   29  C   UNL     1      -8.095  12.042  68.387  1.00  0.00    -0.154 C  
HETATM   30  N   UNL     1      -8.377  10.741  67.846  1.00  0.00    -0.116 N  
HETATM   31  O   UNL     1      -6.982  12.429  68.704  1.00  0.00    -0.081 OA 
HETATM   32  C   UNL     1      -7.417   9.596  67.453  1.00  0.00    -0.091 C  
HETATM   33  H   UNL     1      -9.366  10.542  67.700  1.00  0.00     0.000 HD 
HETATM   34  C   UNL     1      -8.147   8.267  66.868  1.00  0.00    -0.103 A  
HETATM   35  C   UNL     1      -6.623   9.131  68.686  1.00  0.00    -0.054 C  
HETATM   36  C   UNL     1      -6.431  10.060  66.357  1.00  0.00    -0.075 C  
HETATM   37  N   UNL     1      -7.709   7.391  66.072  1.00  0.00    -0.091 NA 
HETATM   38  C   UNL     1      -8.795   6.426  65.982  1.00  0.00    -0.150 A  
HETATM   39  O   UNL     1      -9.395   8.011  67.344  1.00  0.00    -0.140 OA 
HETATM   40  N   UNL     1      -9.816   6.820  66.770  1.00  0.00    -0.180 NA 
BRANCH  38  41
HETATM   41  C   UNL     1      -8.851   5.175  65.171  1.00  0.00    -0.146 A  
HETATM   42  C   UNL     1      -7.705   4.599  64.606  1.00  0.00    -0.078 A  
HETATM   43  C   UNL     1      -7.778   3.379  63.893  1.00  0.00    -0.079 A  
HETATM   44  C   UNL     1      -8.996   2.725  63.715  1.00  0.00    -0.097 A  
HETATM   45  C   UNL     1     -10.134   3.255  64.302  1.00  0.00    -0.152 A  
HETATM   46  C   UNL     1     -10.064   4.461  65.020  1.00  0.00    -0.165 A  
ENDBRANCH  38  41
ENDBRANCH  24  29
TORSDOF 4
ENDMDL
MODEL       39
REMARK 921   NORMALIZED FREE ENERGY PREDICTED BY IDOCK:   -5.10 KCAL/MOL
REMARK 922        TOTAL FREE ENERGY PREDICTED BY IDOCK:   -8.04 KCAL/MOL
REMARK 923 INTER-LIGAND FREE ENERGY PREDICTED BY IDOCK:   -6.70 KCAL/MOL
REMARK 924 INTRA-LIGAND FREE ENERGY PREDICTED BY IDOCK:   -1.34 KCAL/MOL
REMARK 927      BINDING AFFINITY PREDICTED BY RF-SCORE:    0.00 PKD
ROOT
HETATM    1  C   UNL     1      -9.347   3.794  70.457  1.00  0.00    -0.158 C  
HETATM    2  O   UNL     1      -8.390   2.754  70.947  1.00  0.00    -0.052 OA 
HETATM    3  C   UNL     1      -7.890   3.211  72.166  1.00  0.00    -0.058 A  
HETATM    4  C   UNL     1      -8.421   4.424  72.528  1.00  0.00    -0.109 A  
HETATM    5  C   UNL     1      -7.916   5.440  73.362  1.00  0.00    -0.111 A  
HETATM    6  C   UNL     1      -6.628   5.175  73.777  1.00  0.00    -0.073 A  
HETATM    7  C   UNL     1      -8.735   6.856  73.140  1.00  0.00    -0.140 C  
HETATM    8  C   UNL     1      -9.284   7.404  71.578  1.00  0.00    -0.140 C  
HETATM    9  C   UNL     1      -6.079   3.863  73.568  1.00  0.00    -0.012 A  
HETATM   10  C   UNL     1      -6.747   2.852  72.826  1.00  0.00    -0.026 A  
HETATM   11  N   UNL     1     -10.797   7.467  71.853  1.00  0.00    -0.226 NA 
HETATM   12  C   UNL     1     -11.468   6.303  72.421  1.00  0.00    -0.293 C  
HETATM   13  O   UNL     1      -6.203   1.614  72.683  1.00  0.00    -0.008 OA 
HETATM   14  H   UNL     1      -6.460   6.101  71.253  1.00  0.00     0.000 HD 
HETATM   15  C   UNL     1     -10.704   4.979  72.422  1.00  0.00    -0.262 C  
HETATM   16  H   UNL     1      -9.867   4.485  67.190  1.00  0.00     0.000 HD 
HETATM   17  H   UNL     1      -5.410   1.364  73.142  1.00  0.00     0.000 HD 
HETATM   18  C   UNL     1      -9.355   4.918  71.521  1.00  0.00    -0.196 C  
HETATM   19  O   UNL     1     -10.021   4.092  68.041  1.00  0.00    -0.056 OA 
HETATM   20  C   UNL     1      -8.347   6.227  71.064  1.00  0.00    -0.124 C  
HETATM   21  C   UNL     1      -9.079   4.479  68.971  1.00  0.00    -0.122 C  
HETATM   22  O   UNL     1      -7.020   6.804  71.560  1.00  0.00    -0.065 OA 
HETATM   23  C   UNL     1      -7.423   5.614  69.996  1.00  0.00    -0.070 C  
HETATM   24  C   UNL     1      -8.204   5.528  68.799  1.00  0.00    -0.102 C  
ENDROOT
BRANCH  11  25
HETATM   25  C   UNL     1     -11.751   8.292  71.072  1.00  0.00    -0.270 C  
BRANCH  25  26
HETATM   26  C   UNL     1     -13.137   8.311  71.743  1.00  0.00    -0.366 C  
HETATM   27  C   UNL     1     -14.253   9.208  71.220  1.00  0.00    -0.059 C  
HETATM   28  C   UNL     1     -13.664   9.478  72.566  1.00  0.00    -0.351 C  
ENDBRANCH  25  26
ENDBRANCH  11  25
BRANCH  24  29
HETATM   29  C   UNL     1      -7.695   6.718  67.847  1.00  0.00    -0.112 C  
HETATM   30  N   UNL     1      -8.374   7.983  67.910  1.00  0.00    -0.128 N  
HETATM   31  O   UNL     1      -6.751   6.479  67.111  1.00  0.00    -0.056 OA 
HETATM   32  C   UNL     1      -8.062   9.317  67.196  1.00  0.00    -0.109 C  
HETATM   33  H   UNL     1      -9.189   8.002  68.522  1.00  0.00     0.000 HD 
HETATM   34  C   UNL     1      -9.087  10.530  67.544  1.00  0.00    -0.138 A  
HETATM   35  C   UNL     1      -8.140   9.127  65.672  1.00  0.00    -0.113 C  
HETATM   36  C   UNL     1      -6.653   9.826  67.576  1.00  0.00    -0.069 C  
HETATM   37  N   UNL     1      -8.895  11.777  67.527  1.00  0.00    -0.156 NA 
HETATM   38  C   UNL     1     -10.196  12.335  67.867  1.00  0.00    -0.200 A  
HETATM   39  O   UNL     1     -10.364  10.168  67.841  1.00  0.00    -0.170 OA 
HETATM   40  N   UNL     1     -11.082  11.336  68.052  1.00  0.00    -0.243 NA 
BRANCH  38  41
HETATM   41  C   UNL     1     -10.574  13.772  68.010  1.00  0.00    -0.258 A  
HETATM   42  C   UNL     1     -11.186  14.271  69.168  1.00  0.00    -0.302 A  
HETATM   43  C   UNL     1     -11.479  15.649  69.302  1.00  0.00    -0.368 A  
HETATM   44  C   UNL     1     -11.185  16.546  68.276  1.00  0.00    -0.265 A  
HETATM   45  C   UNL     1     -10.542  16.080  67.141  1.00  0.00    -0.305 A  
HETATM   46  C   UNL     1     -10.238  14.714  67.009  1.00  0.00    -0.261 A  
ENDBRANCH  38  41
ENDBRANCH  24  29
TORSDOF 4
ENDMDL
MODEL       40
REMARK 921   NORMALIZED FREE ENERGY PREDICTED BY IDOCK:   -5.03 KCAL/MOL
REMARK 922        TOTAL FREE ENERGY PREDICTED BY IDOCK:   -7.96 KCAL/MOL
REMARK 923 INTER-LIGAND FREE ENERGY PREDICTED BY IDOCK:   -6.57 KCAL/MOL
REMARK 924 INTRA-LIGAND FREE ENERGY PREDICTED BY IDOCK:   -1.39 KCAL/MOL
REMARK 927      BINDING AFFINITY PREDICTED BY RF-SCORE:    0.00 PKD
ROOT
HETATM    1  C   UNL     1     -10.154   5.083  66.650  1.00  0.00    -0.245 C  
HETATM    2  O   UNL     1     -10.173   4.490  65.277  1.00  0.00    -0.206 OA 
HETATM    3  C   UNL     1      -9.248   3.446  65.278  1.00  0.00    -0.150 A  
HETATM    4  C   UNL     1      -8.638   3.288  66.498  1.00  0.00    -0.117 A  
HETATM    5  C   UNL     1      -7.390   2.733  66.841  1.00  0.00    -0.065 A  
HETATM    6  C   UNL     1      -6.648   2.404  65.726  1.00  0.00    -0.031 A  
HETATM    7  C   UNL     1      -6.950   3.157  68.375  1.00  0.00    -0.049 C  
HETATM    8  C   UNL     1      -7.255   4.735  69.052  1.00  0.00    -0.053 C  
HETATM    9  C   UNL     1      -7.283   2.395  64.438  1.00  0.00    -0.054 A  
HETATM   10  C   UNL     1      -8.615   2.844  64.226  1.00  0.00    -0.094 A  
HETATM   11  N   UNL     1      -8.140   4.329  70.243  1.00  0.00    -0.058 NA 
HETATM   12  C   UNL     1      -9.297   3.471  70.014  1.00  0.00    -0.175 C  
HETATM   13  O   UNL     1      -9.186   2.786  62.993  1.00  0.00    -0.094 OA 
HETATM   14  H   UNL     1      -6.420   5.068  66.057  1.00  0.00     0.000 HD 
HETATM   15  C   UNL     1      -9.754   3.276  68.568  1.00  0.00     0.012 C  
HETATM   16  H   UNL     1     -10.710   8.354  67.296  1.00  0.00     0.000 HD 
HETATM   17  H   UNL     1      -8.747   2.368  62.262  1.00  0.00     0.000 HD 
HETATM   18  C   UNL     1      -9.113   4.276  67.462  1.00  0.00    -0.153 C  
HETATM   19  O   UNL     1     -10.908   7.429  67.204  1.00  0.00    -0.331 OA 
HETATM   20  C   UNL     1      -7.606   5.089  67.542  1.00  0.00    -0.087 C  
HETATM   21  C   UNL     1      -9.808   6.697  66.810  1.00  0.00    -0.173 C  
HETATM   22  O   UNL     1      -6.211   4.857  66.959  1.00  0.00    -0.030 OA 
HETATM   23  C   UNL     1      -7.678   6.097  66.380  1.00  0.00    -0.102 C  
HETATM   24  C   UNL     1      -8.513   7.167  66.836  1.00  0.00    -0.123 C  
ENDROOT
BRANCH  11  25
HETATM   25  C   UNL     1      -8.338   5.162  71.455  1.00  0.00    -0.119 C  
BRANCH  25  26
HETATM   26  C   UNL     1      -8.331   6.661  71.097  1.00  0.00    -0.125 C  
HETATM   27  C   UNL     1      -9.163   7.663  71.888  1.00  0.00    -0.167 C  
HETATM   28  C   UNL     1      -9.510   7.385  70.461  1.00  0.00    -0.161 C  
ENDBRANCH  25  26
ENDBRANCH  11  25
BRANCH  24  29
HETATM   29  C   UNL     1      -7.528   8.387  67.181  1.00  0.00    -0.089 C  
HETATM   30  N   UNL     1      -8.028   9.728  67.054  1.00  0.00    -0.105 N  
HETATM   31  O   UNL     1      -6.394   8.106  67.533  1.00  0.00    -0.053 OA 
HETATM   32  C   UNL     1      -7.359  11.078  67.396  1.00  0.00    -0.105 C  
HETATM   33  H   UNL     1      -8.975   9.799  66.679  1.00  0.00     0.000 HD 
HETATM   34  C   UNL     1      -8.278  12.386  67.103  1.00  0.00    -0.176 A  
HETATM   35  C   UNL     1      -6.087  11.261  66.551  1.00  0.00    -0.139 C  
HETATM   36  C   UNL     1      -6.990  11.142  68.895  1.00  0.00    -0.095 C  
HETATM   37  N   UNL     1      -8.257  13.524  67.648  1.00  0.00    -0.164 NA 
HETATM   38  C   UNL     1      -9.264  14.280  66.917  1.00  0.00    -0.254 A  
HETATM   39  O   UNL     1      -9.166  12.277  66.078  1.00  0.00    -0.192 OA 
HETATM   40  N   UNL     1      -9.806  13.502  65.958  1.00  0.00    -0.286 NA 
BRANCH  38  41
HETATM   41  C   UNL     1      -9.689  15.694  67.129  1.00  0.00    -0.226 A  
HETATM   42  C   UNL     1      -9.914  16.575  66.061  1.00  0.00    -0.359 A  
HETATM   43  C   UNL     1     -10.376  17.893  66.287  1.00  0.00    -0.364 A  
HETATM   44  C   UNL     1     -10.600  18.360  67.582  1.00  0.00    -0.437 A  
HETATM   45  C   UNL     1     -10.424  17.494  68.648  1.00  0.00    -0.338 A  
HETATM   46  C   UNL     1      -9.976  16.180  68.426  1.00  0.00    -0.230 A  
ENDBRANCH  38  41
ENDBRANCH  24  29
TORSDOF 4
ENDMDL
MODEL       41
REMARK 921   NORMALIZED FREE ENERGY PREDICTED BY IDOCK:   -4.68 KCAL/MOL
REMARK 922        TOTAL FREE ENERGY PREDICTED BY IDOCK:   -7.53 KCAL/MOL
REMARK 923 INTER-LIGAND FREE ENERGY PREDICTED BY IDOCK:   -6.32 KCAL/MOL
REMARK 924 INTRA-LIGAND FREE ENERGY PREDICTED BY IDOCK:   -1.20 KCAL/MOL
REMARK 927      BINDING AFFINITY PREDICTED BY RF-SCORE:    0.00 PKD
ROOT
HETATM    1  C   UNL     1      -9.217   4.559  69.875  1.00  0.00    -0.127 C  
HETATM    2  O   UNL     1      -8.050   3.679  70.193  1.00  0.00    -0.047 OA 
HETATM    3  C   UNL     1      -7.306   4.338  71.172  1.00  0.00    -0.044 A  
HETATM    4  C   UNL     1      -7.863   5.540  71.532  1.00  0.00    -0.111 A  
HETATM    5  C   UNL     1      -7.281   6.699  72.082  1.00  0.00    -0.081 A  
HETATM    6  C   UNL     1      -5.907   6.602  72.155  1.00  0.00    -0.038 A  
HETATM    7  C   UNL     1      -8.290   7.997  71.941  1.00  0.00    -0.167 C  
HETATM    8  C   UNL     1      -9.289   8.280  70.539  1.00  0.00    -0.159 C  
HETATM    9  C   UNL     1      -5.282   5.325  71.945  1.00  0.00    -0.005 A  
HETATM   10  C   UNL     1      -5.996   4.169  71.529  1.00  0.00    -0.013 A  
HETATM   11  N   UNL     1     -10.673   8.252  71.209  1.00  0.00    -0.221 NA 
HETATM   12  C   UNL     1     -11.031   7.123  72.061  1.00  0.00    -0.235 C  
HETATM   13  O   UNL     1      -5.367   2.974  71.376  1.00  0.00    -0.004 OA 
HETATM   14  H   UNL     1      -6.514   7.188  69.596  1.00  0.00     0.000 HD 
HETATM   15  C   UNL     1     -10.143   5.881  71.997  1.00  0.00    -0.223 C  
HETATM   16  H   UNL     1     -10.650   4.754  66.820  1.00  0.00     0.000 HD 
HETATM   17  H   UNL     1      -4.458   2.856  71.624  1.00  0.00     0.000 HD 
HETATM   18  C   UNL     1      -9.079   5.812  70.772  1.00  0.00    -0.161 C  
HETATM   19  O   UNL     1     -10.529   4.469  67.718  1.00  0.00     0.093 OA 
HETATM   20  C   UNL     1      -8.386   7.128  69.919  1.00  0.00    -0.135 C  
HETATM   21  C   UNL     1      -9.429   5.057  68.308  1.00  0.00    -0.133 C  
HETATM   22  O   UNL     1      -7.054   7.877  69.967  1.00  0.00    -0.049 OA 
HETATM   23  C   UNL     1      -7.708   6.455  68.711  1.00  0.00    -0.101 C  
HETATM   24  C   UNL     1      -8.759   6.143  67.790  1.00  0.00    -0.112 C  
ENDROOT
BRANCH  11  25
HETATM   25  C   UNL     1     -11.888   8.881  70.635  1.00  0.00    -0.128 C  
BRANCH  25  26
HETATM   26  C   UNL     1     -11.697  10.401  70.477  1.00  0.00    -0.434 C  
HETATM   27  C   UNL     1     -12.599  11.389  71.206  1.00  0.00    -0.480 C  
HETATM   28  C   UNL     1     -12.659  11.302  69.716  1.00  0.00    -0.090 C  
ENDBRANCH  25  26
ENDBRANCH  11  25
BRANCH  24  29
HETATM   29  C   UNL     1      -8.660   7.231  66.612  1.00  0.00    -0.128 C  
HETATM   30  N   UNL     1      -8.776   8.622  66.954  1.00  0.00    -0.122 N  
HETATM   31  O   UNL     1      -8.493   6.812  65.478  1.00  0.00    -0.144 OA 
HETATM   32  C   UNL     1      -8.634   9.881  66.070  1.00  0.00    -0.136 C  
HETATM   33  H   UNL     1      -8.986   8.806  67.935  1.00  0.00     0.000 HD 
HETATM   34  C   UNL     1      -8.841  11.289  66.853  1.00  0.00    -0.165 A  
HETATM   35  C   UNL     1      -9.695   9.861  64.956  1.00  0.00    -0.359 C  
HETATM   36  C   UNL     1      -7.227   9.947  65.434  1.00  0.00    -0.125 C  
HETATM   37  N   UNL     1      -8.374  12.433  66.592  1.00  0.00    -0.057 NA 
HETATM   38  C   UNL     1      -8.964  13.291  67.609  1.00  0.00    -0.199 A  
HETATM   39  O   UNL     1      -9.689  11.265  67.916  1.00  0.00    -0.170 OA 
HETATM   40  N   UNL     1      -9.768  12.560  68.408  1.00  0.00    -0.215 NA 
BRANCH  38  41
HETATM   41  C   UNL     1      -8.764  14.756  67.807  1.00  0.00    -0.173 A  
HETATM   42  C   UNL     1      -7.941  15.519  66.966  1.00  0.00    -0.268 A  
HETATM   43  C   UNL     1      -7.817  16.917  67.139  1.00  0.00    -0.207 A  
HETATM   44  C   UNL     1      -8.495  17.574  68.166  1.00  0.00    -0.254 A  
HETATM   45  C   UNL     1      -9.346  16.847  68.981  1.00  0.00    -0.188 A  
HETATM   46  C   UNL     1      -9.481  15.458  68.805  1.00  0.00    -0.211 A  
ENDBRANCH  38  41
ENDBRANCH  24  29
TORSDOF 4
ENDMDL
MODEL       42
REMARK 921   NORMALIZED FREE ENERGY PREDICTED BY IDOCK:   -4.65 KCAL/MOL
REMARK 922        TOTAL FREE ENERGY PREDICTED BY IDOCK:   -7.49 KCAL/MOL
REMARK 923 INTER-LIGAND FREE ENERGY PREDICTED BY IDOCK:   -5.72 KCAL/MOL
REMARK 924 INTRA-LIGAND FREE ENERGY PREDICTED BY IDOCK:   -1.76 KCAL/MOL
REMARK 927      BINDING AFFINITY PREDICTED BY RF-SCORE:    0.00 PKD
ROOT
HETATM    1  C   UNL     1      -9.302   6.231  66.914  1.00  0.00    -0.136 C  
HETATM    2  O   UNL     1      -8.654   6.071  65.576  1.00  0.00    -0.152 OA 
HETATM    3  C   UNL     1      -7.294   6.330  65.755  1.00  0.00    -0.080 A  
HETATM    4  C   UNL     1      -6.987   6.630  67.059  1.00  0.00    -0.071 A  
HETATM    5  C   UNL     1      -5.925   7.374  67.609  1.00  0.00    -0.038 A  
HETATM    6  C   UNL     1      -5.152   7.969  66.634  1.00  0.00    -0.027 A  
HETATM    7  C   UNL     1      -6.236   7.789  69.176  1.00  0.00    -0.035 C  
HETATM    8  C   UNL     1      -7.820   8.252  69.743  1.00  0.00    -0.100 C  
HETATM    9  C   UNL     1      -5.322   7.570  65.264  1.00  0.00    -0.029 A  
HETATM   10  C   UNL     1      -6.348   6.685  64.834  1.00  0.00    -0.038 A  
HETATM   11  N   UNL     1      -8.038   7.154  70.798  1.00  0.00    -0.107 NA 
HETATM   12  C   UNL     1      -7.851   5.756  70.423  1.00  0.00    -0.104 C  
HETATM   13  O   UNL     1      -6.449   6.310  63.531  1.00  0.00    -0.028 OA 
HETATM   14  H   UNL     1      -7.367   9.478  66.902  1.00  0.00     0.000 HD 
HETATM   15  C   UNL     1      -7.755   5.433  68.932  1.00  0.00    -0.083 C  
HETATM   16  H   UNL     1     -12.464   7.343  67.352  1.00  0.00     0.000 HD 
HETATM   17  H   UNL     1      -5.792   6.556  62.891  1.00  0.00     0.000 HD 
HETATM   18  C   UNL     1      -8.178   6.616  67.904  1.00  0.00    -0.120 C  
HETATM   19  O   UNL     1     -11.757   6.715  67.263  1.00  0.00     0.250 OA 
HETATM   20  C   UNL     1      -8.135   8.306  68.186  1.00  0.00    -0.124 C  
HETATM   21  C   UNL     1     -10.536   7.327  67.069  1.00  0.00    -0.344 C  
HETATM   22  O   UNL     1      -7.179   9.446  67.833  1.00  0.00    -0.081 OA 
HETATM   23  C   UNL     1      -8.914   8.889  66.992  1.00  0.00    -0.145 C  
HETATM   24  C   UNL     1     -10.299   8.668  67.276  1.00  0.00    -0.366 C  
ENDROOT
BRANCH  11  25
HETATM   25  C   UNL     1      -8.985   7.269  71.935  1.00  0.00    -0.126 C  
BRANCH  25  26
HETATM   26  C   UNL     1     -10.388   6.774  71.533  1.00  0.00    -0.228 C  
HETATM   27  C   UNL     1     -11.356   7.678  70.779  1.00  0.00    -0.296 C  
HETATM   28  C   UNL     1     -11.676   7.265  72.178  1.00  0.00    -0.323 C  
ENDBRANCH  25  26
ENDBRANCH  11  25
BRANCH  24  29
HETATM   29  C   UNL     1     -10.897  10.089  67.726  1.00  0.00    -0.282 C  
HETATM   30  N   UNL     1     -10.042  11.242  67.662  1.00  0.00    -0.177 N  
HETATM   31  O   UNL     1     -12.057  10.112  68.105  1.00  0.00     0.259 OA 
HETATM   32  C   UNL     1     -10.354  12.730  67.937  1.00  0.00    -0.226 C  
HETATM   33  H   UNL     1      -9.078  11.047  67.393  1.00  0.00     0.000 HD 
HETATM   34  C   UNL     1      -9.091  13.736  67.748  1.00  0.00    -0.193 A  
HETATM   35  C   UNL     1     -10.818  12.908  69.392  1.00  0.00     0.049 C  
HETATM   36  C   UNL     1     -11.456  13.244  66.983  1.00  0.00    -0.378 C  
HETATM   37  N   UNL     1      -9.074  14.962  67.448  1.00  0.00    -0.183 NA 
HETATM   38  C   UNL     1      -7.663  15.314  67.495  1.00  0.00    -0.176 A  
HETATM   39  O   UNL     1      -7.864  13.211  68.009  1.00  0.00    -0.122 OA 
HETATM   40  N   UNL     1      -6.938  14.231  67.843  1.00  0.00    -0.146 NA 
BRANCH  38  41
HETATM   41  C   UNL     1      -7.034  16.638  67.217  1.00  0.00    -0.211 A  
HETATM   42  C   UNL     1      -6.178  17.266  68.133  1.00  0.00    -0.147 A  
HETATM   43  C   UNL     1      -5.546  18.492  67.820  1.00  0.00    -0.163 A  
HETATM   44  C   UNL     1      -5.773  19.121  66.596  1.00  0.00    -0.167 A  
HETATM   45  C   UNL     1      -6.581  18.497  65.660  1.00  0.00    -0.310 A  
HETATM   46  C   UNL     1      -7.201  17.273  65.964  1.00  0.00    -0.219 A  
ENDBRANCH  38  41
ENDBRANCH  24  29
TORSDOF 4
ENDMDL
MODEL       43
REMARK 921   NORMALIZED FREE ENERGY PREDICTED BY IDOCK:   -4.59 KCAL/MOL
REMARK 922        TOTAL FREE ENERGY PREDICTED BY IDOCK:   -7.42 KCAL/MOL
REMARK 923 INTER-LIGAND FREE ENERGY PREDICTED BY IDOCK:   -5.93 KCAL/MOL
REMARK 924 INTRA-LIGAND FREE ENERGY PREDICTED BY IDOCK:   -1.49 KCAL/MOL
REMARK 927      BINDING AFFINITY PREDICTED BY RF-SCORE:    0.00 PKD
ROOT
HETATM    1  C   UNL     1      -8.392  17.783  69.415  1.00  0.00     0.460 C  
HETATM    2  O   UNL     1      -7.521  18.769  70.126  1.00  0.00     0.711 OA 
HETATM    3  C   UNL     1      -7.047  19.657  69.160  1.00  0.00    -0.343 A  
HETATM    4  C   UNL     1      -7.520  19.365  67.905  1.00  0.00    -0.305 A  
HETATM    5  C   UNL     1      -6.992  19.650  66.631  1.00  0.00    -0.216 A  
HETATM    6  C   UNL     1      -5.741  20.226  66.707  1.00  0.00    -0.197 A  
HETATM    7  C   UNL     1      -7.714  18.730  65.466  1.00  0.00     0.336 C  
HETATM    8  C   UNL     1      -8.163  17.062  65.711  1.00  0.00     0.285 C  
HETATM    9  C   UNL     1      -5.263  20.699  67.977  1.00  0.00    -0.265 A  
HETATM   10  C   UNL     1      -5.957  20.482  69.198  1.00  0.00    -0.347 A  
HETATM   11  N   UNL     1      -9.679  17.174  65.476  1.00  0.00    -0.450 NA 
HETATM   12  C   UNL     1     -10.442  18.180  66.207  1.00  0.00    -0.361 C  
HETATM   13  O   UNL     1      -5.483  20.979  70.371  1.00  0.00    -0.561 OA 
HETATM   14  H   UNL     1      -5.409  17.581  67.101  1.00  0.00     0.000 HD 
HETATM   15  C   UNL     1      -9.759  18.858  67.394  1.00  0.00    -0.357 C  
HETATM   16  H   UNL     1      -8.730  14.552  70.347  1.00  0.00     0.000 HD 
HETATM   17  H   UNL     1      -4.726  21.552  70.398  1.00  0.00     0.000 HD 
HETATM   18  C   UNL     1      -8.379  18.185  67.921  1.00  0.00    -0.254 C  
HETATM   19  O   UNL     1      -8.943  15.476  70.282  1.00  0.00     0.279 OA 
HETATM   20  C   UNL     1      -7.276  17.231  67.020  1.00  0.00    -0.183 C  
HETATM   21  C   UNL     1      -8.021  16.172  69.529  1.00  0.00     0.021 C  
HETATM   22  O   UNL     1      -5.939  17.481  66.319  1.00  0.00    -0.191 OA 
HETATM   23  C   UNL     1      -6.345  16.644  68.097  1.00  0.00    -0.140 C  
HETATM   24  C   UNL     1      -7.077  15.581  68.717  1.00  0.00    -0.124 C  
ENDROOT
BRANCH  11  25
HETATM   25  C   UNL     1     -10.547  16.034  65.092  1.00  0.00    -0.370 C  
BRANCH  25  26
HETATM   26  C   UNL     1     -10.817  15.118  66.301  1.00  0.00    -0.333 C  
HETATM   27  C   UNL     1      -9.875  13.970  66.645  1.00  0.00    -0.288 C  
HETATM   28  C   UNL     1     -11.263  13.667  66.182  1.00  0.00    -0.309 C  
ENDBRANCH  25  26
ENDBRANCH  11  25
BRANCH  24  29
HETATM   29  C   UNL     1      -6.458  14.215  68.141  1.00  0.00    -0.126 C  
HETATM   30  N   UNL     1      -6.989  12.969  68.618  1.00  0.00    -0.097 N  
HETATM   31  O   UNL     1      -5.558  14.313  67.323  1.00  0.00    -0.290 OA 
HETATM   32  C   UNL     1      -6.666  11.519  68.190  1.00  0.00    -0.062 C  
HETATM   33  H   UNL     1      -7.689  13.054  69.355  1.00  0.00     0.000 HD 
HETATM   34  C   UNL     1      -7.500  10.374  68.986  1.00  0.00    -0.106 A  
HETATM   35  C   UNL     1      -5.181  11.215  68.451  1.00  0.00    -0.039 C  
HETATM   36  C   UNL     1      -6.975  11.309  66.691  1.00  0.00    -0.129 C  
HETATM   37  N   UNL     1      -7.826   9.211  68.618  1.00  0.00    -0.096 NA 
HETATM   38  C   UNL     1      -8.498   8.651  69.781  1.00  0.00    -0.129 A  
HETATM   39  O   UNL     1      -7.854  10.671  70.265  1.00  0.00     0.084 OA 
HETATM   40  N   UNL     1      -8.502   9.557  70.780  1.00  0.00    -0.265 NA 
BRANCH  38  41
HETATM   41  C   UNL     1      -9.112   7.300  69.929  1.00  0.00    -0.141 A  
HETATM   42  C   UNL     1      -8.635   6.360  70.854  1.00  0.00    -0.135 A  
HETATM   43  C   UNL     1      -9.273   5.108  71.017  1.00  0.00    -0.187 A  
HETATM   44  C   UNL     1     -10.383   4.765  70.247  1.00  0.00    -0.180 A  
HETATM   45  C   UNL     1     -10.896   5.695  69.357  1.00  0.00    -0.334 A  
HETATM   46  C   UNL     1     -10.272   6.945  69.201  1.00  0.00    -0.196 A  
ENDBRANCH  38  41
ENDBRANCH  24  29
TORSDOF 4
ENDMDL
MODEL       44
REMARK 921   NORMALIZED FREE ENERGY PREDICTED BY IDOCK:   -4.53 KCAL/MOL
REMARK 922        TOTAL FREE ENERGY PREDICTED BY IDOCK:   -7.34 KCAL/MOL
REMARK 923 INTER-LIGAND FREE ENERGY PREDICTED BY IDOCK:   -6.00 KCAL/MOL
REMARK 924 INTRA-LIGAND FREE ENERGY PREDICTED BY IDOCK:   -1.34 KCAL/MOL
REMARK 927      BINDING AFFINITY PREDICTED BY RF-SCORE:    0.00 PKD
ROOT
HETATM    1  C   UNL     1      -9.386  16.773  69.271  1.00  0.00    -0.074 C  
HETATM    2  O   UNL     1      -8.291  17.319  70.130  1.00  0.00     1.737 OA 
HETATM    3  C   UNL     1      -7.382  17.941  69.274  1.00  0.00    -0.024 A  
HETATM    4  C   UNL     1      -7.768  17.867  67.958  1.00  0.00    -0.245 A  
HETATM    5  C   UNL     1      -7.012  17.917  66.771  1.00  0.00    -0.225 A  
HETATM    6  C   UNL     1      -5.656  17.935  67.022  1.00  0.00    -0.162 A  
HETATM    7  C   UNL     1      -7.889  17.370  65.483  1.00  0.00     0.846 C  
HETATM    8  C   UNL     1      -8.997  16.026  65.586  1.00  0.00     0.158 C  
HETATM    9  C   UNL     1      -5.194  18.172  68.362  1.00  0.00    -0.162 A  
HETATM   10  C   UNL     1      -6.066  18.254  69.481  1.00  0.00    -0.253 A  
HETATM   11  N   UNL     1     -10.297  16.744  65.184  1.00  0.00    -0.637 NA 
HETATM   12  C   UNL     1     -10.678  17.971  65.874  1.00  0.00    -0.116 C  
HETATM   13  O   UNL     1      -5.586  18.513  70.726  1.00  0.00    -0.225 OA 
HETATM   14  H   UNL     1      -6.468  15.383  67.311  1.00  0.00     0.000 HD 
HETATM   15  C   UNL     1      -9.937  18.313  67.166  1.00  0.00    -0.345 C  
HETATM   16  H   UNL     1     -11.109  13.954  69.986  1.00  0.00     0.000 HD 
HETATM   17  H   UNL     1      -4.673  18.730  70.871  1.00  0.00     0.000 HD 
HETATM   18  C   UNL     1      -9.023  17.137  67.812  1.00  0.00    -0.226 C  
HETATM   19  O   UNL     1     -10.923  14.885  69.945  1.00  0.00    -0.253 OA 
HETATM   20  C   UNL     1      -8.291  15.819  66.996  1.00  0.00    -0.226 C  
HETATM   21  C   UNL     1      -9.711  15.148  69.342  1.00  0.00    -0.202 C  
HETATM   22  O   UNL     1      -6.890  15.507  66.468  1.00  0.00     0.135 OA 
HETATM   23  C   UNL     1      -7.820  14.903  68.141  1.00  0.00    -0.122 C  
HETATM   24  C   UNL     1      -8.990  14.228  68.615  1.00  0.00    -0.154 C  
ENDROOT
BRANCH  11  25
HETATM   25  C   UNL     1     -11.494  16.054  64.642  1.00  0.00    -0.250 C  
BRANCH  25  26
HETATM   26  C   UNL     1     -11.503  14.568  65.050  1.00  0.00    -0.382 C  
HETATM   27  C   UNL     1     -12.807  13.786  65.150  1.00  0.00    -0.386 C  
HETATM   28  C   UNL     1     -12.018  14.060  66.389  1.00  0.00    -0.462 C  
ENDBRANCH  25  26
ENDBRANCH  11  25
BRANCH  24  29
HETATM   29  C   UNL     1      -8.904  12.729  68.043  1.00  0.00    -0.195 C  
HETATM   30  N   UNL     1      -9.008  11.636  68.969  1.00  0.00    -0.377 N  
HETATM   31  O   UNL     1      -8.750  12.600  66.839  1.00  0.00    -0.204 OA 
HETATM   32  C   UNL     1      -9.051  10.113  68.712  1.00  0.00    -0.153 C  
HETATM   33  H   UNL     1      -9.061  11.909  69.950  1.00  0.00     0.000 HD 
HETATM   34  C   UNL     1      -9.178   9.201  70.051  1.00  0.00    -0.192 A  
HETATM   35  C   UNL     1      -7.755   9.662  68.017  1.00  0.00    -0.086 C  
HETATM   36  C   UNL     1     -10.261   9.741  67.826  1.00  0.00    -0.254 C  
HETATM   37  N   UNL     1      -9.674   8.049  70.198  1.00  0.00    -0.175 NA 
HETATM   38  C   UNL     1      -9.434   7.742  71.601  1.00  0.00    -0.144 A  
HETATM   39  O   UNL     1      -8.615   9.711  71.179  1.00  0.00    -0.191 OA 
HETATM   40  N   UNL     1      -8.782   8.769  72.183  1.00  0.00    -0.391 NA 
BRANCH  38  41
HETATM   41  C   UNL     1      -9.815   6.512  72.353  1.00  0.00    -0.169 A  
HETATM   42  C   UNL     1     -10.139   5.311  71.706  1.00  0.00    -0.257 A  
HETATM   43  C   UNL     1     -10.438   4.142  72.445  1.00  0.00    -0.172 A  
HETATM   44  C   UNL     1     -10.439   4.157  73.839  1.00  0.00    -0.274 A  
HETATM   45  C   UNL     1     -10.081   5.322  74.498  1.00  0.00    -0.286 A  
HETATM   46  C   UNL     1      -9.772   6.482  73.767  1.00  0.00    -0.227 A  
ENDBRANCH  38  41
ENDBRANCH  24  29
TORSDOF 4
ENDMDL
MODEL       45
REMARK 921   NORMALIZED FREE ENERGY PREDICTED BY IDOCK:   -4.52 KCAL/MOL
REMARK 922        TOTAL FREE ENERGY PREDICTED BY IDOCK:   -7.33 KCAL/MOL
REMARK 923 INTER-LIGAND FREE ENERGY PREDICTED BY IDOCK:   -6.50 KCAL/MOL
REMARK 924 INTRA-LIGAND FREE ENERGY PREDICTED BY IDOCK:   -0.83 KCAL/MOL
REMARK 927      BINDING AFFINITY PREDICTED BY RF-SCORE:    0.00 PKD
ROOT
HETATM    1  C   UNL     1     -11.286  14.958  66.787  1.00  0.00    -0.338 C  
HETATM    2  O   UNL     1     -12.395  14.582  67.716  1.00  0.00    -0.204 OA 
HETATM    3  C   UNL     1     -12.234  15.356  68.866  1.00  0.00    -0.086 A  
HETATM    4  C   UNL     1     -11.152  16.197  68.784  1.00  0.00    -0.354 A  
HETATM    5  C   UNL     1     -10.356  16.777  69.790  1.00  0.00    -0.064 A  
HETATM    6  C   UNL     1     -10.690  16.311  71.045  1.00  0.00     0.463 A  
HETATM    7  C   UNL     1      -8.943  17.362  69.170  1.00  0.00     0.055 C  
HETATM    8  C   UNL     1      -8.048  16.552  67.911  1.00  0.00    -0.163 C  
HETATM    9  C   UNL     1     -11.903  15.560  71.215  1.00  0.00    -0.453 A  
HETATM   10  C   UNL     1     -12.720  15.148  70.128  1.00  0.00    -0.235 A  
HETATM   11  N   UNL     1      -8.080  17.652  66.835  1.00  0.00    -0.214 NA 
HETATM   12  C   UNL     1      -9.358  18.248  66.461  1.00  0.00    -0.302 C  
HETATM   13  O   UNL     1     -13.878  14.468  70.340  1.00  0.00    -0.282 OA 
HETATM   14  H   UNL     1      -9.185  14.405  69.880  1.00  0.00     0.000 HD 
HETATM   15  C   UNL     1     -10.629  17.538  66.925  1.00  0.00    -0.219 C  
HETATM   16  H   UNL     1      -9.843  12.810  64.612  1.00  0.00     0.000 HD 
HETATM   17  H   UNL     1     -14.216  14.324  71.216  1.00  0.00     0.000 HD 
HETATM   18  C   UNL     1     -10.449  16.037  67.515  1.00  0.00    -0.297 C  
HETATM   19  O   UNL     1     -10.431  13.492  64.916  1.00  0.00    -0.360 OA 
HETATM   20  C   UNL     1      -9.051  15.365  68.245  1.00  0.00    -0.187 C  
HETATM   21  C   UNL     1     -10.261  13.768  66.256  1.00  0.00    -0.297 C  
HETATM   22  O   UNL     1      -8.585  15.115  69.680  1.00  0.00    -0.198 OA 
HETATM   23  C   UNL     1      -9.374  13.862  68.326  1.00  0.00    -0.209 C  
HETATM   24  C   UNL     1      -9.185  13.344  67.005  1.00  0.00    -0.242 C  
ENDROOT
BRANCH  11  25
HETATM   25  C   UNL     1      -7.109  17.751  65.718  1.00  0.00    -0.144 C  
BRANCH  25  26
HETATM   26  C   UNL     1      -6.170  18.957  65.911  1.00  0.00    -0.239 C  
HETATM   27  C   UNL     1      -6.572  20.351  65.443  1.00  0.00    -0.302 C  
HETATM   28  C   UNL     1      -5.435  19.651  64.773  1.00  0.00    -0.220 C  
ENDBRANCH  25  26
ENDBRANCH  11  25
BRANCH  24  29
HETATM   29  C   UNL     1      -7.793  12.543  67.033  1.00  0.00    -0.062 C  
HETATM   30  N   UNL     1      -7.827  11.110  66.936  1.00  0.00    -0.145 N  
HETATM   31  O   UNL     1      -6.772  13.202  67.140  1.00  0.00    -0.152 OA 
HETATM   32  C   UNL     1      -6.670  10.090  66.846  1.00  0.00    -0.079 C  
HETATM   33  H   UNL     1      -8.762  10.702  66.924  1.00  0.00     0.000 HD 
HETATM   34  C   UNL     1      -7.138   8.537  66.745  1.00  0.00    -0.074 A  
HETATM   35  C   UNL     1      -5.790  10.182  68.105  1.00  0.00    -0.041 C  
HETATM   36  C   UNL     1      -5.801  10.356  65.596  1.00  0.00    -0.114 C  
HETATM   37  N   UNL     1      -6.548   7.549  66.227  1.00  0.00    -0.048 NA 
HETATM   38  C   UNL     1      -7.431   6.427  66.509  1.00  0.00    -0.086 A  
HETATM   39  O   UNL     1      -8.309   8.224  67.361  1.00  0.00    -0.123 OA 
HETATM   40  N   UNL     1      -8.502   6.858  67.207  1.00  0.00    -0.121 NA 
BRANCH  38  41
HETATM   41  C   UNL     1      -7.255   4.996  66.125  1.00  0.00    -0.077 A  
HETATM   42  C   UNL     1      -7.430   3.949  67.041  1.00  0.00    -0.072 A  
HETATM   43  C   UNL     1      -7.318   2.599  66.637  1.00  0.00    -0.069 A  
HETATM   44  C   UNL     1      -7.008   2.270  65.317  1.00  0.00    -0.048 A  
HETATM   45  C   UNL     1      -6.873   3.287  64.387  1.00  0.00    -0.044 A  
HETATM   46  C   UNL     1      -6.996   4.631  64.783  1.00  0.00    -0.054 A  
ENDBRANCH  38  41
ENDBRANCH  24  29
TORSDOF 4
ENDMDL
MODEL       46
REMARK 921   NORMALIZED FREE ENERGY PREDICTED BY IDOCK:   -4.41 KCAL/MOL
REMARK 922        TOTAL FREE ENERGY PREDICTED BY IDOCK:   -7.20 KCAL/MOL
REMARK 923 INTER-LIGAND FREE ENERGY PREDICTED BY IDOCK:   -6.42 KCAL/MOL
REMARK 924 INTRA-LIGAND FREE ENERGY PREDICTED BY IDOCK:   -0.78 KCAL/MOL
REMARK 927      BINDING AFFINITY PREDICTED BY RF-SCORE:    0.00 PKD
ROOT
HETATM    1  C   UNL     1     -10.690  16.484  68.790  1.00  0.00    -0.339 C  
HETATM    2  O   UNL     1      -9.541  17.009  69.591  1.00  0.00     0.100 OA 
HETATM    3  C   UNL     1      -8.422  16.971  68.759  1.00  0.00    -0.237 A  
HETATM    4  C   UNL     1      -8.716  16.490  67.507  1.00  0.00    -0.191 A  
HETATM    5  C   UNL     1      -7.903  15.860  66.546  1.00  0.00    -0.169 A  
HETATM    6  C   UNL     1      -6.634  15.610  67.027  1.00  0.00     0.124 A  
HETATM    7  C   UNL     1      -8.814  15.107  65.395  1.00  0.00     1.428 C  
HETATM    8  C   UNL     1     -10.300  14.266  65.754  1.00  0.00    -0.327 C  
HETATM    9  C   UNL     1      -6.217  16.224  68.258  1.00  0.00    -0.123 A  
HETATM   10  C   UNL     1      -7.094  16.973  69.088  1.00  0.00    -0.221 A  
HETATM   11  N   UNL     1     -11.268  15.087  64.885  1.00  0.00    -0.408 NA 
HETATM   12  C   UNL     1     -11.282  16.540  65.010  1.00  0.00    -0.087 C  
HETATM   13  O   UNL     1      -6.646  17.564  70.227  1.00  0.00     0.317 OA 
HETATM   14  H   UNL     1      -8.243  13.702  68.042  1.00  0.00     0.000 HD 
HETATM   15  C   UNL     1     -10.565  17.152  66.212  1.00  0.00    -0.185 C  
HETATM   16  H   UNL     1     -13.275  14.756  70.116  1.00  0.00     0.000 HD 
HETATM   17  H   UNL     1      -5.724  17.566  70.456  1.00  0.00     0.000 HD 
HETATM   18  C   UNL     1     -10.126  16.129  67.394  1.00  0.00    -0.257 C  
HETATM   19  O   UNL     1     -12.797  15.508  69.784  1.00  0.00    -0.102 OA 
HETATM   20  C   UNL     1      -9.801  14.451  67.252  1.00  0.00    -0.247 C  
HETATM   21  C   UNL     1     -11.525  15.174  69.369  1.00  0.00    -0.306 C  
HETATM   22  O   UNL     1      -8.541  13.591  67.146  1.00  0.00    -0.205 OA 
HETATM   23  C   UNL     1      -9.732  13.974  68.715  1.00  0.00    -0.123 C  
HETATM   24  C   UNL     1     -11.088  13.884  69.166  1.00  0.00    -0.284 C  
ENDROOT
BRANCH  11  25
HETATM   25  C   UNL     1     -12.581  14.589  64.406  1.00  0.00    -0.153 C  
BRANCH  25  26
HETATM   26  C   UNL     1     -12.397  13.472  63.361  1.00  0.00    -0.264 C  
HETATM   27  C   UNL     1     -12.818  12.038  63.659  1.00  0.00    -0.472 C  
HETATM   28  C   UNL     1     -11.368  12.356  63.486  1.00  0.00    -0.553 C  
ENDBRANCH  25  26
ENDBRANCH  11  25
BRANCH  24  29
HETATM   29  C   UNL     1     -11.449  12.318  69.190  1.00  0.00    -0.296 C  
HETATM   30  N   UNL     1     -10.549  11.419  69.857  1.00  0.00    -0.345 N  
HETATM   31  O   UNL     1     -12.477  11.974  68.630  1.00  0.00    -0.097 OA 
HETATM   32  C   UNL     1     -10.670   9.901  70.120  1.00  0.00    -0.308 C  
HETATM   33  H   UNL     1      -9.696  11.850  70.213  1.00  0.00     0.000 HD 
HETATM   34  C   UNL     1      -9.418   9.248  70.924  1.00  0.00    -0.261 A  
HETATM   35  C   UNL     1     -10.753   9.143  68.784  1.00  0.00    -0.162 C  
HETATM   36  C   UNL     1     -11.927   9.590  70.963  1.00  0.00    -0.407 C  
HETATM   37  N   UNL     1      -9.380   8.229  71.668  1.00  0.00    -0.173 NA 
HETATM   38  C   UNL     1      -7.977   8.117  72.037  1.00  0.00    -0.124 A  
HETATM   39  O   UNL     1      -8.207   9.836  70.727  1.00  0.00    -0.251 OA 
HETATM   40  N   UNL     1      -7.274   9.107  71.449  1.00  0.00    -0.289 NA 
BRANCH  38  41
HETATM   41  C   UNL     1      -7.334   7.101  72.920  1.00  0.00    -0.074 A  
HETATM   42  C   UNL     1      -7.866   5.814  73.088  1.00  0.00    -0.103 A  
HETATM   43  C   UNL     1      -7.204   4.849  73.883  1.00  0.00    -0.082 A  
HETATM   44  C   UNL     1      -6.013   5.158  74.539  1.00  0.00    -0.052 A  
HETATM   45  C   UNL     1      -5.448   6.409  74.352  1.00  0.00    -0.050 A  
HETATM   46  C   UNL     1      -6.098   7.366  73.554  1.00  0.00    -0.060 A  
ENDBRANCH  38  41
ENDBRANCH  24  29
TORSDOF 4
ENDMDL
MODEL       47
REMARK 921   NORMALIZED FREE ENERGY PREDICTED BY IDOCK:   -4.14 KCAL/MOL
REMARK 922        TOTAL FREE ENERGY PREDICTED BY IDOCK:   -6.86 KCAL/MOL
REMARK 923 INTER-LIGAND FREE ENERGY PREDICTED BY IDOCK:   -5.45 KCAL/MOL
REMARK 924 INTRA-LIGAND FREE ENERGY PREDICTED BY IDOCK:   -1.40 KCAL/MOL
REMARK 927      BINDING AFFINITY PREDICTED BY RF-SCORE:    0.00 PKD
ROOT
HETATM    1  C   UNL     1      -7.043   8.327  66.562  1.00  0.00    -0.072 C  
HETATM    2  O   UNL     1      -6.892   6.980  67.195  1.00  0.00    -0.061 OA 
HETATM    3  C   UNL     1      -8.143   6.636  67.708  1.00  0.00    -0.116 A  
HETATM    4  C   UNL     1      -9.090   7.602  67.472  1.00  0.00    -0.131 A  
HETATM    5  C   UNL     1     -10.282   7.912  68.154  1.00  0.00    -0.248 A  
HETATM    6  C   UNL     1     -10.427   7.165  69.305  1.00  0.00    -0.220 A  
HETATM    7  C   UNL     1     -10.840   9.407  67.731  1.00  0.00    -0.223 C  
HETATM    8  C   UNL     1      -9.790  10.770  67.443  1.00  0.00    -0.177 C  
HETATM    9  C   UNL     1      -9.563   6.038  69.523  1.00  0.00    -0.171 A  
HETATM   10  C   UNL     1      -8.465   5.726  68.678  1.00  0.00    -0.107 A  
HETATM   11  N   UNL     1     -10.158  11.064  65.978  1.00  0.00    -0.238 NA 
HETATM   12  C   UNL     1     -10.121   9.981  65.002  1.00  0.00    -0.157 C  
HETATM   13  O   UNL     1      -7.695   4.629  68.905  1.00  0.00    -0.070 OA 
HETATM   14  H   UNL     1      -8.682   9.138  69.871  1.00  0.00     0.000 HD 
HETATM   15  C   UNL     1      -9.420   8.686  65.411  1.00  0.00     0.077 C  
HETATM   16  H   UNL     1      -4.582  10.642  66.455  1.00  0.00     0.000 HD 
HETATM   17  H   UNL     1      -7.918   3.997  69.578  1.00  0.00     0.000 HD 
HETATM   18  C   UNL     1      -8.520   8.743  66.760  1.00  0.00    -0.113 C  
HETATM   19  O   UNL     1      -5.138   9.933  66.150  1.00  0.00    -0.037 OA 
HETATM   20  C   UNL     1      -8.703   9.808  68.091  1.00  0.00    -0.119 C  
HETATM   21  C   UNL     1      -6.074   9.563  67.093  1.00  0.00    -0.063 C  
HETATM   22  O   UNL     1      -9.332   9.714  69.483  1.00  0.00    -0.173 OA 
HETATM   23  C   UNL     1      -7.414   9.592  68.905  1.00  0.00    -0.074 C  
HETATM   24  C   UNL     1      -6.384  10.304  68.211  1.00  0.00    -0.048 C  
ENDROOT
BRANCH  11  25
HETATM   25  C   UNL     1      -9.950  12.375  65.316  1.00  0.00    -0.215 C  
BRANCH  25  26
HETATM   26  C   UNL     1     -11.298  13.050  64.998  1.00  0.00    -0.325 C  
HETATM   27  C   UNL     1     -12.117  13.726  66.091  1.00  0.00    -0.477 C  
HETATM   28  C   UNL     1     -12.647  12.494  65.432  1.00  0.00    -0.157 C  
ENDBRANCH  25  26
ENDBRANCH  11  25
BRANCH  24  29
HETATM   29  C   UNL     1      -6.111  11.639  69.064  1.00  0.00    -0.057 C  
HETATM   30  N   UNL     1      -6.634  12.883  68.573  1.00  0.00    -0.080 N  
HETATM   31  O   UNL     1      -5.464  11.521  70.092  1.00  0.00    -0.083 OA 
HETATM   32  C   UNL     1      -6.613  14.292  69.207  1.00  0.00    -0.120 C  
HETATM   33  H   UNL     1      -7.091  12.828  67.663  1.00  0.00     0.000 HD 
HETATM   34  C   UNL     1      -7.326  15.450  68.317  1.00  0.00    -0.112 A  
HETATM   35  C   UNL     1      -5.160  14.754  69.409  1.00  0.00    -0.087 C  
HETATM   36  C   UNL     1      -7.343  14.290  70.569  1.00  0.00     0.997 C  
HETATM   37  N   UNL     1      -7.875  16.526  68.683  1.00  0.00    -0.213 NA 
HETATM   38  C   UNL     1      -8.265  17.163  67.434  1.00  0.00    -0.182 A  
HETATM   39  O   UNL     1      -7.280  15.281  66.968  1.00  0.00    -0.171 OA 
HETATM   40  N   UNL     1      -7.889  16.388  66.395  1.00  0.00    -0.295 NA 
BRANCH  38  41
HETATM   41  C   UNL     1      -8.969  18.464  67.243  1.00  0.00    -0.265 A  
HETATM   42  C   UNL     1      -8.727  19.572  68.066  1.00  0.00    -0.369 A  
HETATM   43  C   UNL     1      -9.364  20.813  67.826  1.00  0.00    -0.225 A  
HETATM   44  C   UNL     1     -10.267  20.961  66.774  1.00  0.00     0.398 A  
HETATM   45  C   UNL     1     -10.488  19.891  65.923  1.00  0.00    -0.567 A  
HETATM   46  C   UNL     1      -9.848  18.660  66.152  1.00  0.00    -0.308 A  
ENDBRANCH  38  41
ENDBRANCH  24  29
TORSDOF 4
ENDMDL
MODEL       48
REMARK 921   NORMALIZED FREE ENERGY PREDICTED BY IDOCK:   -4.07 KCAL/MOL
REMARK 922        TOTAL FREE ENERGY PREDICTED BY IDOCK:   -6.78 KCAL/MOL
REMARK 923 INTER-LIGAND FREE ENERGY PREDICTED BY IDOCK:   -5.07 KCAL/MOL
REMARK 924 INTRA-LIGAND FREE ENERGY PREDICTED BY IDOCK:   -1.71 KCAL/MOL
REMARK 927      BINDING AFFINITY PREDICTED BY RF-SCORE:    0.00 PKD
ROOT
HETATM    1  C   UNL     1      -8.671   4.672  67.388  1.00  0.00    -0.104 C  
HETATM    2  O   UNL     1      -9.076   4.377  65.979  1.00  0.00    -0.121 OA 
HETATM    3  C   UNL     1      -8.288   5.183  65.158  1.00  0.00    -0.141 A  
HETATM    4  C   UNL     1      -7.411   5.960  65.873  1.00  0.00    -0.076 A  
HETATM    5  C   UNL     1      -6.795   7.186  65.556  1.00  0.00    -0.052 A  
HETATM    6  C   UNL     1      -7.261   7.706  64.367  1.00  0.00    -0.077 A  
HETATM    7  C   UNL     1      -6.166   7.904  66.904  1.00  0.00    -0.054 C  
HETATM    8  C   UNL     1      -6.956   7.867  68.459  1.00  0.00    -0.071 C  
HETATM    9  C   UNL     1      -8.051   6.876  63.500  1.00  0.00     0.004 A  
HETATM   10  C   UNL     1      -8.501   5.579  63.866  1.00  0.00    -0.035 A  
HETATM   11  N   UNL     1      -5.868   7.147  69.274  1.00  0.00    -0.018 NA 
HETATM   12  C   UNL     1      -5.319   5.889  68.779  1.00  0.00    -0.007 C  
HETATM   13  O   UNL     1      -9.219   4.816  62.999  1.00  0.00    -0.275 OA 
HETATM   14  H   UNL     1      -9.124   8.244  66.236  1.00  0.00     0.000 HD 
HETATM   15  C   UNL     1      -6.068   5.191  67.644  1.00  0.00    -0.030 C  
HETATM   16  H   UNL     1     -10.787   4.550  70.021  1.00  0.00     0.000 HD 
HETATM   17  H   UNL     1      -9.367   5.090  62.102  1.00  0.00     0.000 HD 
HETATM   18  C   UNL     1      -7.558   5.744  67.309  1.00  0.00    -0.096 C  
HETATM   19  O   UNL     1     -10.123   4.250  69.412  1.00  0.00    -0.124 OA 
HETATM   20  C   UNL     1      -8.174   7.318  67.598  1.00  0.00    -0.114 C  
HETATM   21  C   UNL     1      -9.829   5.196  68.452  1.00  0.00    -0.152 C  
HETATM   22  O   UNL     1      -8.396   8.573  66.751  1.00  0.00    -0.106 OA 
HETATM   23  C   UNL     1      -9.687   7.161  67.357  1.00  0.00    -0.186 C  
HETATM   24  C   UNL     1     -10.209   6.518  68.525  1.00  0.00    -0.190 C  
ENDROOT
BRANCH  11  25
HETATM   25  C   UNL     1      -5.745   7.227  70.751  1.00  0.00    -0.027 C  
BRANCH  25  26
HETATM   26  C   UNL     1      -7.106   6.978  71.428  1.00  0.00    -0.070 C  
HETATM   27  C   UNL     1      -8.048   8.131  71.753  1.00  0.00    -0.159 C  
HETATM   28  C   UNL     1      -7.419   7.361  72.868  1.00  0.00    -0.088 C  
ENDBRANCH  25  26
ENDBRANCH  11  25
BRANCH  24  29
HETATM   29  C   UNL     1     -10.962   7.661  69.365  1.00  0.00    -0.057 C  
HETATM   30  N   UNL     1     -10.670   9.035  69.066  1.00  0.00    -0.367 N  
HETATM   31  O   UNL     1     -11.748   7.295  70.225  1.00  0.00    -0.229 OA 
HETATM   32  C   UNL     1     -11.292  10.332  69.631  1.00  0.00    -0.257 C  
HETATM   33  H   UNL     1      -9.938   9.177  68.371  1.00  0.00     0.000 HD 
HETATM   34  C   UNL     1     -10.674  11.705  69.020  1.00  0.00    -0.179 A  
HETATM   35  C   UNL     1     -11.057  10.406  71.150  1.00  0.00     0.201 C  
HETATM   36  C   UNL     1     -12.809  10.382  69.346  1.00  0.00     0.869 C  
HETATM   37  N   UNL     1     -11.204  12.844  68.898  1.00  0.00    -0.266 NA 
HETATM   38  C   UNL     1     -10.139  13.669  68.348  1.00  0.00    -0.241 A  
HETATM   39  O   UNL     1      -9.370  11.656  68.635  1.00  0.00    -0.183 OA 
HETATM   40  N   UNL     1      -9.023  12.926  68.197  1.00  0.00    -0.200 NA 
BRANCH  38  41
HETATM   41  C   UNL     1     -10.188  15.114  67.981  1.00  0.00    -0.230 A  
HETATM   42  C   UNL     1     -10.200  15.547  66.647  1.00  0.00    -0.280 A  
HETATM   43  C   UNL     1     -10.308  16.920  66.326  1.00  0.00    -0.312 A  
HETATM   44  C   UNL     1     -10.386  17.885  67.329  1.00  0.00    -0.374 A  
HETATM   45  C   UNL     1     -10.419  17.477  68.652  1.00  0.00    -0.338 A  
HETATM   46  C   UNL     1     -10.323  16.112  68.975  1.00  0.00    -0.258 A  
ENDBRANCH  38  41
ENDBRANCH  24  29
TORSDOF 4
ENDMDL
MODEL       49
REMARK 921   NORMALIZED FREE ENERGY PREDICTED BY IDOCK:   -4.05 KCAL/MOL
REMARK 922        TOTAL FREE ENERGY PREDICTED BY IDOCK:   -6.75 KCAL/MOL
REMARK 923 INTER-LIGAND FREE ENERGY PREDICTED BY IDOCK:   -5.83 KCAL/MOL
REMARK 924 INTRA-LIGAND FREE ENERGY PREDICTED BY IDOCK:   -0.92 KCAL/MOL
REMARK 927      BINDING AFFINITY PREDICTED BY RF-SCORE:    0.00 PKD
ROOT
HETATM    1  C   UNL     1      -6.054   5.636  69.174  1.00  0.00    -0.025 C  
HETATM    2  O   UNL     1      -5.972   5.652  70.667  1.00  0.00    -0.023 OA 
HETATM    3  C   UNL     1      -6.873   4.692  71.129  1.00  0.00    -0.032 A  
HETATM    4  C   UNL     1      -7.523   4.049  70.104  1.00  0.00    -0.045 A  
HETATM    5  C   UNL     1      -8.770   3.395  70.069  1.00  0.00    -0.127 A  
HETATM    6  C   UNL     1      -9.464   3.543  71.252  1.00  0.00    -0.229 A  
HETATM    7  C   UNL     1      -9.274   3.157  68.516  1.00  0.00    -0.230 C  
HETATM    8  C   UNL     1      -9.029   4.326  67.244  1.00  0.00    -0.124 C  
HETATM    9  C   UNL     1      -8.782   4.062  72.405  1.00  0.00    -0.116 A  
HETATM   10  C   UNL     1      -7.454   4.566  72.361  1.00  0.00    -0.082 A  
HETATM   11  N   UNL     1      -8.179   3.476  66.284  1.00  0.00    -0.099 NA 
HETATM   12  C   UNL     1      -6.996   2.792  66.793  1.00  0.00    -0.049 C  
HETATM   13  O   UNL     1      -6.837   5.016  73.486  1.00  0.00    -0.070 OA 
HETATM   14  H   UNL     1      -9.763   5.842  69.880  1.00  0.00     0.000 HD 
HETATM   15  C   UNL     1      -6.482   3.203  68.172  1.00  0.00    -0.036 C  
HETATM   16  H   UNL     1      -5.595   8.366  67.235  1.00  0.00     0.000 HD 
HETATM   17  H   UNL     1      -7.240   4.928  74.342  1.00  0.00     0.000 HD 
HETATM   18  C   UNL     1      -7.105   4.563  68.803  1.00  0.00    -0.052 C  
HETATM   19  O   UNL     1      -5.373   7.560  67.686  1.00  0.00    -0.027 OA 
HETATM   20  C   UNL     1      -8.632   5.265  68.465  1.00  0.00    -0.094 C  
HETATM   21  C   UNL     1      -6.441   7.044  68.388  1.00  0.00    -0.040 C  
HETATM   22  O   UNL     1     -10.000   5.281  69.150  1.00  0.00    -0.170 OA 
HETATM   23  C   UNL     1      -8.540   6.658  69.114  1.00  0.00    -0.130 C  
HETATM   24  C   UNL     1      -7.746   7.455  68.229  1.00  0.00    -0.120 C  
ENDROOT
BRANCH  11  25
HETATM   25  C   UNL     1      -8.044   3.747  64.831  1.00  0.00    -0.093 C  
BRANCH  25  26
HETATM   26  C   UNL     1      -8.628   2.589  64.000  1.00  0.00    -0.086 C  
HETATM   27  C   UNL     1     -10.116   2.525  63.675  1.00  0.00    -0.151 C  
HETATM   28  C   UNL     1      -9.516   1.496  64.577  1.00  0.00    -0.113 C  
ENDBRANCH  25  26
ENDBRANCH  11  25
BRANCH  24  29
HETATM   29  C   UNL     1      -8.771   8.425  67.461  1.00  0.00    -0.136 C  
HETATM   30  N   UNL     1      -8.621   9.845  67.622  1.00  0.00    -0.122 N  
HETATM   31  O   UNL     1      -9.632   7.897  66.776  1.00  0.00    -0.184 OA 
HETATM   32  C   UNL     1      -9.382  11.010  66.951  1.00  0.00    -0.173 C  
HETATM   33  H   UNL     1      -7.899  10.128  68.284  1.00  0.00     0.000 HD 
HETATM   34  C   UNL     1      -8.901  12.492  67.412  1.00  0.00    -0.187 A  
HETATM   35  C   UNL     1     -10.879  10.927  67.299  1.00  0.00    -0.342 C  
HETATM   36  C   UNL     1      -9.212  10.963  65.416  1.00  0.00    -0.231 C  
HETATM   37  N   UNL     1      -8.956  13.588  66.788  1.00  0.00    -0.213 NA 
HETATM   38  C   UNL     1      -8.437  14.559  67.740  1.00  0.00    -0.174 A  
HETATM   39  O   UNL     1      -8.422  12.599  68.680  1.00  0.00    -0.086 OA 
HETATM   40  N   UNL     1      -8.119  13.936  68.893  1.00  0.00    -0.035 NA 
BRANCH  38  41
HETATM   41  C   UNL     1      -8.253  16.027  67.551  1.00  0.00    -0.171 A  
HETATM   42  C   UNL     1      -7.458  16.555  66.524  1.00  0.00    -0.270 A  
HETATM   43  C   UNL     1      -7.349  17.952  66.330  1.00  0.00    -0.327 A  
HETATM   44  C   UNL     1      -8.014  18.845  67.169  1.00  0.00    -0.254 A  
HETATM   45  C   UNL     1      -8.839  18.344  68.163  1.00  0.00    -0.319 A  
HETATM   46  C   UNL     1      -8.959  16.956  68.352  1.00  0.00    -0.244 A  
ENDBRANCH  38  41
ENDBRANCH  24  29
TORSDOF 4
ENDMDL
MODEL       50
REMARK 921   NORMALIZED FREE ENERGY PREDICTED BY IDOCK:   -3.96 KCAL/MOL
REMARK 922        TOTAL FREE ENERGY PREDICTED BY IDOCK:   -6.65 KCAL/MOL
REMARK 923 INTER-LIGAND FREE ENERGY PREDICTED BY IDOCK:   -4.80 KCAL/MOL
REMARK 924 INTRA-LIGAND FREE ENERGY PREDICTED BY IDOCK:   -1.84 KCAL/MOL
REMARK 927      BINDING AFFINITY PREDICTED BY RF-SCORE:    0.00 PKD
ROOT
HETATM    1  C   UNL     1     -10.849  16.392  69.131  1.00  0.00    -0.329 C  
HETATM    2  O   UNL     1     -10.638  17.863  69.304  1.00  0.00    -0.119 OA 
HETATM    3  C   UNL     1     -10.509  18.403  68.024  1.00  0.00    -0.363 A  
HETATM    4  C   UNL     1     -10.622  17.451  67.041  1.00  0.00    -0.238 A  
HETATM    5  C   UNL     1     -10.125  17.422  65.724  1.00  0.00    -0.140 A  
HETATM    6  C   UNL     1      -9.306  18.500  65.456  1.00  0.00     0.998 A  
HETATM    7  C   UNL     1     -10.176  15.894  65.100  1.00  0.00    -0.198 C  
HETATM    8  C   UNL     1      -9.826  14.468  66.042  1.00  0.00    -0.318 C  
HETATM    9  C   UNL     1      -9.275  19.602  66.378  1.00  0.00    -0.448 A  
HETATM   10  C   UNL     1      -9.942  19.585  67.632  1.00  0.00    -0.383 A  
HETATM   11  N   UNL     1     -11.175  13.741  65.906  1.00  0.00    -0.300 NA 
HETATM   12  C   UNL     1     -12.406  14.457  66.220  1.00  0.00    -0.301 C  
HETATM   13  O   UNL     1      -9.912  20.665  68.457  1.00  0.00    -0.024 OA 
HETATM   14  H   UNL     1      -7.839  16.737  66.870  1.00  0.00     0.000 HD 
HETATM   15  C   UNL     1     -12.280  15.785  66.966  1.00  0.00     1.238 C  
HETATM   16  H   UNL     1      -9.765  14.064  71.329  1.00  0.00     0.000 HD 
HETATM   17  H   UNL     1      -9.519  21.486  68.185  1.00  0.00     0.000 HD 
HETATM   18  C   UNL     1     -10.828  16.122  67.608  1.00  0.00    -0.297 C  
HETATM   19  O   UNL     1     -10.373  14.662  70.909  1.00  0.00     0.544 OA 
HETATM   20  C   UNL     1      -9.300  15.541  67.091  1.00  0.00    -0.216 C  
HETATM   21  C   UNL     1      -9.790  15.349  69.865  1.00  0.00    -0.179 C  
HETATM   22  O   UNL     1      -8.153  16.096  66.244  1.00  0.00    -0.292 OA 
HETATM   23  C   UNL     1      -8.353  15.950  68.235  1.00  0.00    -0.165 C  
HETATM   24  C   UNL     1      -8.583  15.013  69.293  1.00  0.00    -0.167 C  
ENDROOT
BRANCH  11  25
HETATM   25  C   UNL     1     -11.355  12.280  66.094  1.00  0.00    -0.353 C  
BRANCH  25  26
HETATM   26  C   UNL     1     -10.623  11.796  67.360  1.00  0.00    -0.258 C  
HETATM   27  C   UNL     1     -11.203  10.686  68.229  1.00  0.00    -0.362 C  
HETATM   28  C   UNL     1     -11.107  12.072  68.777  1.00  0.00    -0.298 C  
ENDBRANCH  25  26
ENDBRANCH  11  25
BRANCH  24  29
HETATM   29  C   UNL     1      -7.330  14.007  69.279  1.00  0.00     0.016 C  
HETATM   30  N   UNL     1      -7.580  12.601  69.428  1.00  0.00    -0.189 N  
HETATM   31  O   UNL     1      -6.221  14.499  69.144  1.00  0.00    -0.089 OA 
HETATM   32  C   UNL     1      -6.606  11.403  69.364  1.00  0.00    -0.119 C  
HETATM   33  H   UNL     1      -8.554  12.354  69.604  1.00  0.00     0.000 HD 
HETATM   34  C   UNL     1      -7.299   9.950  69.586  1.00  0.00    -0.115 A  
HETATM   35  C   UNL     1      -5.542  11.534  70.468  1.00  0.00    -0.149 C  
HETATM   36  C   UNL     1      -5.907  11.338  67.987  1.00  0.00    -0.042 C  
HETATM   37  N   UNL     1      -6.940   8.814  69.169  1.00  0.00    -0.058 NA 
HETATM   38  C   UNL     1      -7.920   7.905  69.745  1.00  0.00    -0.114 A  
HETATM   39  O   UNL     1      -8.396   9.926  70.388  1.00  0.00    -0.153 OA 
HETATM   40  N   UNL     1      -8.801   8.603  70.491  1.00  0.00    -0.151 NA 
BRANCH  38  41
HETATM   41  C   UNL     1      -8.008   6.424  69.587  1.00  0.00    -0.116 A  
HETATM   42  C   UNL     1      -9.093   5.684  70.078  1.00  0.00    -0.157 A  
HETATM   43  C   UNL     1      -9.182   4.289  69.862  1.00  0.00    -0.208 A  
HETATM   44  C   UNL     1      -8.182   3.606  69.171  1.00  0.00    -0.074 A  
HETATM   45  C   UNL     1      -7.123   4.325  68.641  1.00  0.00    -0.052 A  
HETATM   46  C   UNL     1      -7.036   5.713  68.844  1.00  0.00    -0.069 A  
ENDBRANCH  38  41
ENDBRANCH  24  29
TORSDOF 4
ENDMDL
MODEL       51
REMARK 921   NORMALIZED FREE ENERGY PREDICTED BY IDOCK:   -3.87 KCAL/MOL
REMARK 922        TOTAL FREE ENERGY PREDICTED BY IDOCK:   -6.53 KCAL/MOL
REMARK 923 INTER-LIGAND FREE ENERGY PREDICTED BY IDOCK:   -5.69 KCAL/MOL
REMARK 924 INTRA-LIGAND FREE ENERGY PREDICTED BY IDOCK:   -0.84 KCAL/MOL
REMARK 927      BINDING AFFINITY PREDICTED BY RF-SCORE:    0.00 PKD
ROOT
HETATM    1  C   UNL     1     -11.270  14.925  66.861  1.00  0.00    -0.343 C  
HETATM    2  O   UNL     1     -12.396  14.570  67.779  1.00  0.00    -0.204 OA 
HETATM    3  C   UNL     1     -12.273  15.390  68.901  1.00  0.00    -0.086 A  
HETATM    4  C   UNL     1     -11.201  16.243  68.810  1.00  0.00    -0.343 A  
HETATM    5  C   UNL     1     -10.438  16.875  69.810  1.00  0.00    -0.078 A  
HETATM    6  C   UNL     1     -10.794  16.454  71.075  1.00  0.00     0.346 A  
HETATM    7  C   UNL     1      -9.019  17.456  69.200  1.00  0.00     0.055 C  
HETATM    8  C   UNL     1      -8.082  16.611  67.995  1.00  0.00    -0.180 C  
HETATM    9  C   UNL     1     -12.001  15.692  71.246  1.00  0.00    -0.467 A  
HETATM   10  C   UNL     1     -12.786  15.226  70.158  1.00  0.00    -0.242 A  
HETATM   11  N   UNL     1      -8.104  17.667  66.876  1.00  0.00    -0.214 NA 
HETATM   12  C   UNL     1      -9.381  18.228  66.450  1.00  0.00    -0.273 C  
HETATM   13  O   UNL     1     -13.939  14.537  70.370  1.00  0.00    -0.155 OA 
HETATM   14  H   UNL     1      -9.235  14.526  70.022  1.00  0.00     0.000 HD 
HETATM   15  C   UNL     1     -10.654  17.518  66.911  1.00  0.00    -0.219 C  
HETATM   16  H   UNL     1      -9.747  12.715  64.807  1.00  0.00     0.000 HD 
HETATM   17  H   UNL     1     -14.295  14.422  71.243  1.00  0.00     0.000 HD 
HETATM   18  C   UNL     1     -10.466  16.044  67.565  1.00  0.00    -0.297 C  
HETATM   19  O   UNL     1     -10.351  13.400  65.070  1.00  0.00    -0.331 OA 
HETATM   20  C   UNL     1      -9.076  15.423  68.353  1.00  0.00    -0.191 C  
HETATM   21  C   UNL     1     -10.216  13.731  66.401  1.00  0.00    -0.292 C  
HETATM   22  O   UNL     1      -8.641  15.236  69.807  1.00  0.00    -0.195 OA 
HETATM   23  C   UNL     1      -9.380  13.919  68.486  1.00  0.00    -0.164 C  
HETATM   24  C   UNL     1      -9.153  13.353  67.191  1.00  0.00    -0.235 C  
ENDROOT
BRANCH  11  25
HETATM   25  C   UNL     1      -7.109  17.736  65.778  1.00  0.00    -0.144 C  
BRANCH  25  26
HETATM   26  C   UNL     1      -6.284  19.034  65.867  1.00  0.00    -0.233 C  
HETATM   27  C   UNL     1      -6.920  20.392  65.589  1.00  0.00    -0.258 C  
HETATM   28  C   UNL     1      -5.878  19.864  64.657  1.00  0.00    -0.281 C  
ENDBRANCH  25  26
ENDBRANCH  11  25
BRANCH  24  29
HETATM   29  C   UNL     1      -7.751  12.574  67.284  1.00  0.00    -0.146 C  
HETATM   30  N   UNL     1      -7.673  11.402  68.110  1.00  0.00    -0.111 N  
HETATM   31  O   UNL     1      -6.818  13.028  66.642  1.00  0.00     0.394 OA 
HETATM   32  C   UNL     1      -6.508  10.408  68.323  1.00  0.00    -0.059 C  
HETATM   33  H   UNL     1      -8.519  11.192  68.639  1.00  0.00     0.000 HD 
HETATM   34  C   UNL     1      -6.830   9.194  69.355  1.00  0.00    -0.048 A  
HETATM   35  C   UNL     1      -5.292  11.146  68.909  1.00  0.00    -0.040 C  
HETATM   36  C   UNL     1      -6.107   9.741  66.989  1.00  0.00    -0.063 C  
HETATM   37  N   UNL     1      -6.339   8.033  69.411  1.00  0.00    -0.034 NA 
HETATM   38  C   UNL     1      -6.974   7.441  70.579  1.00  0.00    -0.053 A  
HETATM   39  O   UNL     1      -7.712   9.473  70.351  1.00  0.00    -0.136 OA 
HETATM   40  N   UNL     1      -7.808   8.338  71.144  1.00  0.00    -0.088 NA 
BRANCH  38  41
HETATM   41  C   UNL     1      -6.789   6.068  71.133  1.00  0.00    -0.066 A  
HETATM   42  C   UNL     1      -5.555   5.404  71.087  1.00  0.00    -0.009 A  
HETATM   43  C   UNL     1      -5.390   4.128  71.673  1.00  0.00     0.000 A  
HETATM   44  C   UNL     1      -6.458   3.484  72.297  1.00  0.00    -0.014 A  
HETATM   45  C   UNL     1      -7.675   4.140  72.391  1.00  0.00    -0.081 A  
HETATM   46  C   UNL     1      -7.838   5.414  71.819  1.00  0.00    -0.112 A  
ENDBRANCH  38  41
ENDBRANCH  24  29
TORSDOF 4
ENDMDL
MODEL       52
REMARK 921   NORMALIZED FREE ENERGY PREDICTED BY IDOCK:   -3.65 KCAL/MOL
REMARK 922        TOTAL FREE ENERGY PREDICTED BY IDOCK:   -6.25 KCAL/MOL
REMARK 923 INTER-LIGAND FREE ENERGY PREDICTED BY IDOCK:   -5.73 KCAL/MOL
REMARK 924 INTRA-LIGAND FREE ENERGY PREDICTED BY IDOCK:   -0.53 KCAL/MOL
REMARK 927      BINDING AFFINITY PREDICTED BY RF-SCORE:    0.00 PKD
ROOT
HETATM    1  C   UNL     1      -8.788   4.831  72.160  1.00  0.00    -0.124 C  
HETATM    2  O   UNL     1      -7.654   4.186  72.891  1.00  0.00    -0.075 OA 
HETATM    3  C   UNL     1      -7.053   5.183  73.660  1.00  0.00    -0.082 A  
HETATM    4  C   UNL     1      -7.675   6.399  73.518  1.00  0.00    -0.093 A  
HETATM    5  C   UNL     1      -7.191   7.709  73.696  1.00  0.00    -0.122 A  
HETATM    6  C   UNL     1      -5.835   7.728  73.952  1.00  0.00    -0.068 A  
HETATM    7  C   UNL     1      -8.199   8.817  73.003  1.00  0.00     0.224 C  
HETATM    8  C   UNL     1      -9.017   8.544  71.487  1.00  0.00    -0.213 C  
HETATM    9  C   UNL     1      -5.164   6.498  74.268  1.00  0.00    -0.042 A  
HETATM   10  C   UNL     1      -5.796   5.227  74.198  1.00  0.00    -0.047 A  
HETATM   11  N   UNL     1     -10.474   8.659  71.966  1.00  0.00    -0.335 NA 
HETATM   12  C   UNL     1     -10.915   7.867  73.109  1.00  0.00    -0.236 C  
HETATM   13  O   UNL     1      -5.130   4.093  74.539  1.00  0.00    -0.003 OA 
HETATM   14  H   UNL     1      -6.124   7.371  71.298  1.00  0.00     0.000 HD 
HETATM   15  C   UNL     1     -10.002   6.735  73.577  1.00  0.00    -0.269 C  
HETATM   16  H   UNL     1      -9.825   3.887  69.085  1.00  0.00     0.000 HD 
HETATM   17  H   UNL     1      -4.257   4.123  74.913  1.00  0.00     0.000 HD 
HETATM   18  C   UNL     1      -8.790   6.320  72.579  1.00  0.00    -0.123 C  
HETATM   19  O   UNL     1      -9.813   3.932  70.034  1.00  0.00    -0.199 OA 
HETATM   20  C   UNL     1      -8.020   7.308  71.408  1.00  0.00    -0.097 C  
HETATM   21  C   UNL     1      -8.809   4.752  70.504  1.00  0.00    -0.107 C  
HETATM   22  O   UNL     1      -6.720   8.110  71.345  1.00  0.00    -0.048 OA 
HETATM   23  C   UNL     1      -7.181   6.308  70.591  1.00  0.00    -0.074 C  
HETATM   24  C   UNL     1      -8.100   5.637  69.722  1.00  0.00    -0.102 C  
ENDROOT
BRANCH  11  25
HETATM   25  C   UNL     1     -11.619   8.978  71.077  1.00  0.00    -0.300 C  
BRANCH  25  26
HETATM   26  C   UNL     1     -12.379   7.698  70.680  1.00  0.00     0.038 C  
HETATM   27  C   UNL     1     -11.750   6.322  70.856  1.00  0.00    -0.289 C  
HETATM   28  C   UNL     1     -12.017   6.836  69.479  1.00  0.00     0.226 C  
ENDBRANCH  25  26
ENDBRANCH  11  25
BRANCH  24  29
HETATM   29  C   UNL     1      -7.874   6.264  68.261  1.00  0.00    -0.105 C  
HETATM   30  N   UNL     1      -8.600   7.452  67.906  1.00  0.00    -0.125 N  
HETATM   31  O   UNL     1      -7.091   5.689  67.522  1.00  0.00    -0.070 OA 
HETATM   32  C   UNL     1      -8.526   8.322  66.631  1.00  0.00    -0.123 C  
HETATM   33  H   UNL     1      -9.270   7.770  68.606  1.00  0.00     0.000 HD 
HETATM   34  C   UNL     1      -9.527   9.601  66.621  1.00  0.00    -0.170 A  
HETATM   35  C   UNL     1      -8.907   7.481  65.400  1.00  0.00     0.052 C  
HETATM   36  C   UNL     1      -7.102   8.891  66.439  1.00  0.00    -0.083 C  
HETATM   37  N   UNL     1      -9.420  10.705  66.018  1.00  0.00    -0.185 NA 
HETATM   38  C   UNL     1     -10.652  11.405  66.348  1.00  0.00    -0.263 A  
HETATM   39  O   UNL     1     -10.690   9.457  67.311  1.00  0.00    -0.267 OA 
HETATM   40  N   UNL     1     -11.418  10.625  67.137  1.00  0.00    -0.302 NA 
BRANCH  38  41
HETATM   41  C   UNL     1     -11.079  12.770  65.923  1.00  0.00    -0.318 A  
HETATM   42  C   UNL     1     -12.104  12.975  64.990  1.00  0.00    -0.470 A  
HETATM   43  C   UNL     1     -12.531  14.281  64.650  1.00  0.00    -0.371 A  
HETATM   44  C   UNL     1     -11.928  15.402  65.219  1.00  0.00     0.223 A  
HETATM   45  C   UNL     1     -10.942  15.220  66.175  1.00  0.00    -0.307 A  
HETATM   46  C   UNL     1     -10.523  13.925  66.524  1.00  0.00    -0.282 A  
ENDBRANCH  38  41
ENDBRANCH  24  29
TORSDOF 4
ENDMDL
MODEL       53
REMARK 921   NORMALIZED FREE ENERGY PREDICTED BY IDOCK:   -3.24 KCAL/MOL
REMARK 922        TOTAL FREE ENERGY PREDICTED BY IDOCK:   -5.75 KCAL/MOL
REMARK 923 INTER-LIGAND FREE ENERGY PREDICTED BY IDOCK:   -4.17 KCAL/MOL
REMARK 924 INTRA-LIGAND FREE ENERGY PREDICTED BY IDOCK:   -1.59 KCAL/MOL
REMARK 927      BINDING AFFINITY PREDICTED BY RF-SCORE:    0.00 PKD
ROOT
HETATM    1  C   UNL     1     -11.069  14.021  66.554  1.00  0.00    -0.314 C  
HETATM    2  O   UNL     1     -10.767  15.448  66.885  1.00  0.00    -0.306 OA 
HETATM    3  C   UNL     1      -9.378  15.557  66.959  1.00  0.00    -0.224 A  
HETATM    4  C   UNL     1      -8.745  14.366  66.705  1.00  0.00    -0.187 A  
HETATM    5  C   UNL     1      -7.480  13.890  67.101  1.00  0.00     0.094 A  
HETATM    6  C   UNL     1      -6.854  14.755  67.974  1.00  0.00    -0.150 A  
HETATM    7  C   UNL     1      -7.365  12.257  66.892  1.00  0.00     0.029 C  
HETATM    8  C   UNL     1      -8.685  11.160  67.205  1.00  0.00    -0.139 C  
HETATM    9  C   UNL     1      -7.385  16.077  68.154  1.00  0.00    -0.133 A  
HETATM   10  C   UNL     1      -8.612  16.506  67.580  1.00  0.00    -0.182 A  
HETATM   11  N   UNL     1      -8.845  10.554  65.800  1.00  0.00    -0.168 NA 
HETATM   12  C   UNL     1      -8.979  11.442  64.651  1.00  0.00     0.163 C  
HETATM   13  O   UNL     1      -9.059  17.779  67.750  1.00  0.00    -0.244 OA 
HETATM   14  H   UNL     1      -8.674  13.381  69.408  1.00  0.00     0.000 HD 
HETATM   15  C   UNL     1      -9.269  12.917  64.928  1.00  0.00     0.852 C  
HETATM   16  H   UNL     1     -13.827  12.386  67.622  1.00  0.00     0.000 HD 
HETATM   17  H   UNL     1      -8.527  18.438  68.181  1.00  0.00     0.000 HD 
HETATM   18  C   UNL     1      -9.706  13.298  66.444  1.00  0.00    -0.279 C  
HETATM   19  O   UNL     1     -13.271  12.880  67.031  1.00  0.00     1.585 OA 
HETATM   20  C   UNL     1      -9.323  12.449  67.884  1.00  0.00    -0.195 C  
HETATM   21  C   UNL     1     -12.040  13.159  67.585  1.00  0.00    -0.232 C  
HETATM   22  O   UNL     1      -8.293  12.610  69.002  1.00  0.00     0.192 OA 
HETATM   23  C   UNL     1     -10.238  13.099  68.939  1.00  0.00    -0.021 C  
HETATM   24  C   UNL     1     -11.544  12.554  68.719  1.00  0.00    -0.366 C  
ENDROOT
BRANCH  11  25
HETATM   25  C   UNL     1      -9.485   9.244  65.528  1.00  0.00    -0.240 C  
BRANCH  25  26
HETATM   26  C   UNL     1      -8.425   8.136  65.374  1.00  0.00    -0.164 C  
HETATM   27  C   UNL     1      -7.461   7.806  66.508  1.00  0.00    -0.088 C  
HETATM   28  C   UNL     1      -6.932   8.405  65.246  1.00  0.00    -0.074 C  
ENDBRANCH  25  26
ENDBRANCH  11  25
BRANCH  24  29
HETATM   29  C   UNL     1     -11.784  11.481  69.891  1.00  0.00    -0.343 C  
HETATM   30  N   UNL     1     -11.340  10.131  69.683  1.00  0.00    -0.319 N  
HETATM   31  O   UNL     1     -12.339  11.876  70.903  1.00  0.00    -0.373 OA 
HETATM   32  C   UNL     1     -11.350   8.920  70.643  1.00  0.00    -0.259 C  
HETATM   33  H   UNL     1     -10.960   9.942  68.755  1.00  0.00     0.000 HD 
HETATM   34  C   UNL     1     -10.748   7.548  70.013  1.00  0.00    -0.240 A  
HETATM   35  C   UNL     1     -12.794   8.593  71.059  1.00  0.00    -0.001 C  
HETATM   36  C   UNL     1     -10.509   9.216  71.905  1.00  0.00    -0.280 C  
HETATM   37  N   UNL     1     -10.202   6.567  70.590  1.00  0.00    -0.185 NA 
HETATM   38  C   UNL     1      -9.938   5.628  69.510  1.00  0.00    -0.198 A  
HETATM   39  O   UNL     1     -10.901   7.387  68.671  1.00  0.00    -0.150 OA 
HETATM   40  N   UNL     1     -10.376   6.146  68.344  1.00  0.00    -0.178 NA 
BRANCH  38  41
HETATM   41  C   UNL     1      -9.290   4.287  69.592  1.00  0.00    -0.235 A  
HETATM   42  C   UNL     1      -9.501   3.421  70.674  1.00  0.00    -0.243 A  
HETATM   43  C   UNL     1      -8.923   2.130  70.699  1.00  0.00    -0.145 A  
HETATM   44  C   UNL     1      -8.110   1.690  69.656  1.00  0.00    -0.059 A  
HETATM   45  C   UNL     1      -7.923   2.513  68.558  1.00  0.00    -0.061 A  
HETATM   46  C   UNL     1      -8.505   3.793  68.524  1.00  0.00    -0.105 A  
ENDBRANCH  38  41
ENDBRANCH  24  29
TORSDOF 4
ENDMDL
MODEL       54
REMARK 921   NORMALIZED FREE ENERGY PREDICTED BY IDOCK:   -3.24 KCAL/MOL
REMARK 922        TOTAL FREE ENERGY PREDICTED BY IDOCK:   -5.75 KCAL/MOL
REMARK 923 INTER-LIGAND FREE ENERGY PREDICTED BY IDOCK:   -5.37 KCAL/MOL
REMARK 924 INTRA-LIGAND FREE ENERGY PREDICTED BY IDOCK:   -0.38 KCAL/MOL
REMARK 927      BINDING AFFINITY PREDICTED BY RF-SCORE:    0.00 PKD
ROOT
HETATM    1  C   UNL     1     -11.767  14.849  68.293  1.00  0.00    -0.315 C  
HETATM    2  O   UNL     1     -11.673  15.955  69.295  1.00  0.00    -0.367 OA 
HETATM    3  C   UNL     1     -10.858  16.938  68.732  1.00  0.00    -0.289 A  
HETATM    4  C   UNL     1     -10.421  16.598  67.475  1.00  0.00    -0.317 A  
HETATM    5  C   UNL     1      -9.283  17.005  66.753  1.00  0.00    -0.270 A  
HETATM    6  C   UNL     1      -8.443  17.792  67.513  1.00  0.00    -0.227 A  
HETATM    7  C   UNL     1      -8.997  16.001  65.474  1.00  0.00     0.424 C  
HETATM    8  C   UNL     1      -9.233  14.274  65.548  1.00  0.00     0.554 C  
HETATM    9  C   UNL     1      -8.913  18.311  68.768  1.00  0.00    -0.239 A  
HETATM   10  C   UNL     1     -10.160  17.943  69.342  1.00  0.00     0.009 A  
HETATM   11  N   UNL     1     -10.292  14.119  64.443  1.00  0.00    -0.192 NA 
HETATM   12  C   UNL     1     -11.488  14.954  64.478  1.00  0.00    -0.325 C  
HETATM   13  O   UNL     1     -10.578  18.486  70.516  1.00  0.00     0.720 OA 
HETATM   14  H   UNL     1      -8.007  15.240  68.258  1.00  0.00     0.000 HD 
HETATM   15  C   UNL     1     -11.780  15.713  65.772  1.00  0.00     0.409 C  
HETATM   16  H   UNL     1     -12.087  11.586  69.118  1.00  0.00     0.000 HD 
HETATM   17  H   UNL     1     -10.093  19.185  70.940  1.00  0.00     0.000 HD 
HETATM   18  C   UNL     1     -10.916  15.283  67.077  1.00  0.00    -0.324 C  
HETATM   19  O   UNL     1     -12.359  12.459  68.857  1.00  0.00    -0.057 OA 
HETATM   20  C   UNL     1      -9.360  14.564  67.106  1.00  0.00    -0.218 C  
HETATM   21  C   UNL     1     -11.293  13.327  68.749  1.00  0.00    -0.290 C  
HETATM   22  O   UNL     1      -7.932  15.066  67.327  1.00  0.00    -0.179 OA 
HETATM   23  C   UNL     1      -9.193  14.126  68.573  1.00  0.00    -0.187 C  
HETATM   24  C   UNL     1      -9.973  12.935  68.721  1.00  0.00    -0.010 C  
ENDROOT
BRANCH  11  25
HETATM   25  C   UNL     1     -10.558  12.852  63.717  1.00  0.00    -0.251 C  
BRANCH  25  26
HETATM   26  C   UNL     1     -11.558  11.975  64.494  1.00  0.00    -0.387 C  
HETATM   27  C   UNL     1     -12.939  11.665  63.929  1.00  0.00     0.031 C  
HETATM   28  C   UNL     1     -12.821  12.510  65.155  1.00  0.00    -0.005 C  
ENDBRANCH  25  26
ENDBRANCH  11  25
BRANCH  24  29
HETATM   29  C   UNL     1      -8.927  11.716  68.754  1.00  0.00    -0.009 C  
HETATM   30  N   UNL     1      -9.184  10.617  69.643  1.00  0.00    -0.404 N  
HETATM   31  O   UNL     1      -7.958  11.793  68.016  1.00  0.00    -0.125 OA 
HETATM   32  C   UNL     1      -8.423   9.286  69.828  1.00  0.00    -0.149 C  
HETATM   33  H   UNL     1      -9.998  10.735  70.247  1.00  0.00     0.000 HD 
HETATM   34  C   UNL     1      -9.048   8.295  70.954  1.00  0.00    -0.152 A  
HETATM   35  C   UNL     1      -6.977   9.567  70.273  1.00  0.00    -0.099 C  
HETATM   36  C   UNL     1      -8.403   8.478  68.511  1.00  0.00    -0.123 C  
HETATM   37  N   UNL     1      -8.988   7.037  71.044  1.00  0.00    -0.150 NA 
HETATM   38  C   UNL     1      -9.678   6.743  72.291  1.00  0.00    -0.147 A  
HETATM   39  O   UNL     1      -9.682   8.896  71.995  1.00  0.00    -0.316 OA 
HETATM   40  N   UNL     1     -10.092   7.893  72.861  1.00  0.00    -0.288 NA 
BRANCH  38  41
HETATM   41  C   UNL     1      -9.930   5.410  72.913  1.00  0.00    -0.193 A  
HETATM   42  C   UNL     1     -11.221   4.879  73.043  1.00  0.00    -0.367 A  
HETATM   43  C   UNL     1     -11.427   3.587  73.581  1.00  0.00    -0.131 A  
HETATM   44  C   UNL     1     -10.353   2.813  74.016  1.00  0.00    -0.212 A  
HETATM   45  C   UNL     1      -9.066   3.302  73.858  1.00  0.00    -0.094 A  
HETATM   46  C   UNL     1      -8.856   4.580  73.313  1.00  0.00    -0.106 A  
ENDBRANCH  38  41
ENDBRANCH  24  29
TORSDOF 4
ENDMDL
MODEL       55
REMARK 921   NORMALIZED FREE ENERGY PREDICTED BY IDOCK:   -3.17 KCAL/MOL
REMARK 922        TOTAL FREE ENERGY PREDICTED BY IDOCK:   -5.67 KCAL/MOL
REMARK 923 INTER-LIGAND FREE ENERGY PREDICTED BY IDOCK:   -5.03 KCAL/MOL
REMARK 924 INTRA-LIGAND FREE ENERGY PREDICTED BY IDOCK:   -0.63 KCAL/MOL
REMARK 927      BINDING AFFINITY PREDICTED BY RF-SCORE:    0.00 PKD
ROOT
HETATM    1  C   UNL     1     -10.194  14.746  69.332  1.00  0.00    -0.130 C  
HETATM    2  O   UNL     1      -9.068  15.321  70.131  1.00  0.00     0.058 OA 
HETATM    3  C   UNL     1      -8.268  16.036  69.239  1.00  0.00    -0.212 A  
HETATM    4  C   UNL     1      -8.754  15.999  67.955  1.00  0.00    -0.165 A  
HETATM    5  C   UNL     1      -8.100  16.149  66.717  1.00  0.00    -0.305 A  
HETATM    6  C   UNL     1      -6.731  16.241  66.863  1.00  0.00    -0.165 A  
HETATM    7  C   UNL     1      -9.043  15.607  65.475  1.00  0.00     0.262 C  
HETATM    8  C   UNL     1     -10.058  14.194  65.595  1.00  0.00    -0.328 C  
HETATM    9  C   UNL     1      -6.178  16.445  68.173  1.00  0.00    -0.132 A  
HETATM   10  C   UNL     1      -6.961  16.421  69.359  1.00  0.00    -0.210 A  
HETATM   11  N   UNL     1     -11.426  14.846  65.331  1.00  0.00    -0.341 NA 
HETATM   12  C   UNL     1     -11.822  16.014  66.109  1.00  0.00     1.037 C  
HETATM   13  O   UNL     1      -6.398  16.653  70.575  1.00  0.00     0.261 OA 
HETATM   14  H   UNL     1      -7.366  13.632  67.085  1.00  0.00     0.000 HD 
HETATM   15  C   UNL     1     -11.002  16.343  67.356  1.00  0.00    -0.145 C  
HETATM   16  H   UNL     1     -11.686  11.796  70.035  1.00  0.00     0.000 HD 
HETATM   17  H   UNL     1      -5.491  16.921  70.659  1.00  0.00     0.000 HD 
HETATM   18  C   UNL     1      -9.971  15.198  67.870  1.00  0.00    -0.221 C  
HETATM   19  O   UNL     1     -11.559  12.738  70.028  1.00  0.00    -0.236 OA 
HETATM   20  C   UNL     1      -9.231  13.967  66.934  1.00  0.00    -0.259 C  
HETATM   21  C   UNL     1     -10.417  13.104  69.347  1.00  0.00     0.356 C  
HETATM   22  O   UNL     1      -7.861  13.768  66.285  1.00  0.00     1.065 OA 
HETATM   23  C   UNL     1      -8.617  13.032  67.992  1.00  0.00    -0.186 C  
HETATM   24  C   UNL     1      -9.703  12.264  68.520  1.00  0.00    -0.142 C  
ENDROOT
BRANCH  11  25
HETATM   25  C   UNL     1     -12.620  14.108  64.849  1.00  0.00    -0.342 C  
BRANCH  25  26
HETATM   26  C   UNL     1     -12.285  13.284  63.591  1.00  0.00    -0.522 C  
HETATM   27  C   UNL     1     -12.888  11.902  63.371  1.00  0.00    -0.393 C  
HETATM   28  C   UNL     1     -11.418  12.033  63.603  1.00  0.00    -0.556 C  
ENDBRANCH  25  26
ENDBRANCH  11  25
BRANCH  24  29
HETATM   29  C   UNL     1      -9.575  10.801  67.869  1.00  0.00    -0.160 C  
HETATM   30  N   UNL     1      -9.631   9.658  68.737  1.00  0.00    -0.149 N  
HETATM   31  O   UNL     1      -9.433  10.740  66.659  1.00  0.00    -0.170 OA 
HETATM   32  C   UNL     1      -9.628   8.150  68.401  1.00  0.00    -0.147 C  
HETATM   33  H   UNL     1      -9.680   9.877  69.732  1.00  0.00     0.000 HD 
HETATM   34  C   UNL     1      -9.706   7.165  69.691  1.00  0.00    -0.158 A  
HETATM   35  C   UNL     1      -8.326   7.779  67.669  1.00  0.00    -0.121 C  
HETATM   36  C   UNL     1     -10.836   7.785  67.510  1.00  0.00    -0.182 C  
HETATM   37  N   UNL     1     -10.162   5.991  69.783  1.00  0.00    -0.189 NA 
HETATM   38  C   UNL     1      -9.894   5.619  71.164  1.00  0.00    -0.177 A  
HETATM   39  O   UNL     1      -9.145   7.634  70.838  1.00  0.00    -0.147 OA 
HETATM   40  N   UNL     1      -9.268   6.636  71.793  1.00  0.00    -0.148 NA 
BRANCH  38  41
HETATM   41  C   UNL     1     -10.224   4.339  71.855  1.00  0.00    -0.200 A  
HETATM   42  C   UNL     1      -9.614   3.125  71.510  1.00  0.00    -0.227 A  
HETATM   43  C   UNL     1      -9.900   1.936  72.222  1.00  0.00    -0.197 A  
HETATM   44  C   UNL     1     -10.815   1.935  73.274  1.00  0.00    -0.252 A  
HETATM   45  C   UNL     1     -11.397   3.132  73.658  1.00  0.00    -0.228 A  
HETATM   46  C   UNL     1     -11.106   4.317  72.961  1.00  0.00    -0.232 A  
ENDBRANCH  38  41
ENDBRANCH  24  29
TORSDOF 4
ENDMDL
MODEL       56
REMARK 921   NORMALIZED FREE ENERGY PREDICTED BY IDOCK:   -2.69 KCAL/MOL
REMARK 922        TOTAL FREE ENERGY PREDICTED BY IDOCK:   -5.07 KCAL/MOL
REMARK 923 INTER-LIGAND FREE ENERGY PREDICTED BY IDOCK:   -5.59 KCAL/MOL
REMARK 924 INTRA-LIGAND FREE ENERGY PREDICTED BY IDOCK:    0.52 KCAL/MOL
REMARK 927      BINDING AFFINITY PREDICTED BY RF-SCORE:    0.00 PKD
ROOT
HETATM    1  C   UNL     1      -6.113   7.113  66.806  1.00  0.00    -0.038 C  
HETATM    2  O   UNL     1      -5.436   7.560  68.063  1.00  0.00    -0.024 OA 
HETATM    3  C   UNL     1      -6.137   6.983  69.123  1.00  0.00    -0.026 A  
HETATM    4  C   UNL     1      -7.185   6.206  68.695  1.00  0.00    -0.084 A  
HETATM    5  C   UNL     1      -8.381   5.835  69.339  1.00  0.00    -0.112 A  
HETATM    6  C   UNL     1      -8.530   6.467  70.557  1.00  0.00    -0.138 A  
HETATM    7  C   UNL     1      -9.483   5.248  68.259  1.00  0.00    -0.155 C  
HETATM    8  C   UNL     1      -9.692   5.908  66.658  1.00  0.00    -0.157 C  
HETATM    9  C   UNL     1      -7.408   7.160  71.128  1.00  0.00    -0.075 A  
HETATM   10  C   UNL     1      -6.180   7.351  70.439  1.00  0.00    -0.034 A  
HETATM   11  N   UNL     1      -9.359   4.657  65.827  1.00  0.00    -0.149 NA 
HETATM   12  C   UNL     1      -8.119   3.935  66.089  1.00  0.00    -0.101 C  
HETATM   13  O   UNL     1      -5.135   7.985  71.034  1.00  0.00    -0.026 OA 
HETATM   14  H   UNL     1      -9.201   8.259  68.661  1.00  0.00     0.000 HD 
HETATM   15  C   UNL     1      -7.068   4.629  66.954  1.00  0.00    -0.075 C  
HETATM   16  H   UNL     1      -6.292   8.986  63.998  1.00  0.00     0.000 HD 
HETATM   17  H   UNL     1      -5.164   8.241  71.948  1.00  0.00     0.000 HD 
HETATM   18  C   UNL     1      -7.293   6.211  67.240  1.00  0.00    -0.077 C  
HETATM   19  O   UNL     1      -5.961   8.324  64.595  1.00  0.00    -0.054 OA 
HETATM   20  C   UNL     1      -8.777   7.070  67.240  1.00  0.00    -0.120 C  
HETATM   21  C   UNL     1      -6.689   8.268  65.765  1.00  0.00    -0.053 C  
HETATM   22  O   UNL     1      -9.749   7.564  68.313  1.00  0.00    -0.150 OA 
HETATM   23  C   UNL     1      -8.339   8.546  67.275  1.00  0.00    -0.115 C  
HETATM   24  C   UNL     1      -7.917   8.865  65.945  1.00  0.00    -0.107 C  
ENDROOT
BRANCH  11  25
HETATM   25  C   UNL     1      -9.802   4.446  64.426  1.00  0.00    -0.027 C  
BRANCH  25  26
HETATM   26  C   UNL     1      -8.826   5.111  63.437  1.00  0.00     0.026 C  
HETATM   27  C   UNL     1      -7.329   5.160  63.719  1.00  0.00    -0.051 C  
HETATM   28  C   UNL     1      -8.115   6.430  63.705  1.00  0.00    -0.029 C  
ENDBRANCH  25  26
ENDBRANCH  11  25
BRANCH  24  29
HETATM   29  C   UNL     1      -9.097   9.744  65.300  1.00  0.00    -0.211 C  
HETATM   30  N   UNL     1      -9.177  11.137  65.641  1.00  0.00    -0.215 N  
HETATM   31  O   UNL     1      -9.871   9.173  64.550  1.00  0.00     0.518 OA 
HETATM   32  C   UNL     1     -10.128  12.238  65.119  1.00  0.00    -0.261 C  
HETATM   33  H   UNL     1      -8.500  11.448  66.337  1.00  0.00     0.000 HD 
HETATM   34  C   UNL     1      -9.886  13.709  65.766  1.00  0.00    -0.211 A  
HETATM   35  C   UNL     1     -11.585  11.869  65.446  1.00  0.00    -0.284 C  
HETATM   36  C   UNL     1      -9.976  12.412  63.591  1.00  0.00    -0.199 C  
HETATM   37  N   UNL     1     -10.127  14.850  65.285  1.00  0.00    -0.360 NA 
HETATM   38  C   UNL     1      -9.758  15.765  66.355  1.00  0.00    -0.282 A  
HETATM   39  O   UNL     1      -9.411  13.731  67.040  1.00  0.00    -0.236 OA 
HETATM   40  N   UNL     1      -9.326  15.062  67.422  1.00  0.00    -0.198 NA 
BRANCH  38  41
HETATM   41  C   UNL     1      -9.818  17.256  66.355  1.00  0.00    -0.310 A  
HETATM   42  C   UNL     1     -10.911  17.960  65.829  1.00  0.00     0.047 A  
HETATM   43  C   UNL     1     -10.970  19.372  65.896  1.00  0.00    -0.253 A  
HETATM   44  C   UNL     1      -9.932  20.105  66.470  1.00  0.00    -0.586 A  
HETATM   45  C   UNL     1      -8.864  19.427  67.034  1.00  0.00    -0.341 A  
HETATM   46  C   UNL     1      -8.807  18.024  66.979  1.00  0.00    -0.259 A  
ENDBRANCH  38  41
ENDBRANCH  24  29
TORSDOF 4
ENDMDL
MODEL       57
REMARK 921   NORMALIZED FREE ENERGY PREDICTED BY IDOCK:   -2.12 KCAL/MOL
REMARK 922        TOTAL FREE ENERGY PREDICTED BY IDOCK:   -4.37 KCAL/MOL
REMARK 923 INTER-LIGAND FREE ENERGY PREDICTED BY IDOCK:   -3.04 KCAL/MOL
REMARK 924 INTRA-LIGAND FREE ENERGY PREDICTED BY IDOCK:   -1.34 KCAL/MOL
REMARK 927      BINDING AFFINITY PREDICTED BY RF-SCORE:    0.00 PKD
ROOT
HETATM    1  C   UNL     1     -11.598  13.378  67.752  1.00  0.00    -0.340 C  
HETATM    2  O   UNL     1     -11.509  14.693  68.459  1.00  0.00    -0.273 OA 
HETATM    3  C   UNL     1     -10.259  15.231  68.151  1.00  0.00    -0.230 A  
HETATM    4  C   UNL     1      -9.531  14.418  67.318  1.00  0.00    -0.215 A  
HETATM    5  C   UNL     1      -8.141  14.301  67.126  1.00  0.00    -0.154 A  
HETATM    6  C   UNL     1      -7.430  15.075  68.020  1.00  0.00    -0.130 A  
HETATM    7  C   UNL     1      -7.763  12.905  66.332  1.00  0.00     1.045 C  
HETATM    8  C   UNL     1      -8.588  11.394  66.615  1.00  0.00    -0.170 C  
HETATM    9  C   UNL     1      -8.124  16.059  68.803  1.00  0.00    -0.212 A  
HETATM   10  C   UNL     1      -9.539  16.190  68.809  1.00  0.00    -0.235 A  
HETATM   11  N   UNL     1      -9.142  11.142  65.202  1.00  0.00    -0.182 NA 
HETATM   12  C   UNL     1      -9.898  12.195  64.534  1.00  0.00    -0.125 C  
HETATM   13  O   UNL     1     -10.150  17.159  69.540  1.00  0.00    -0.162 OA 
HETATM   14  H   UNL     1      -8.210  12.865  69.349  1.00  0.00     0.000 HD 
HETATM   15  C   UNL     1     -10.371  13.373  65.386  1.00  0.00    -0.321 C  
HETATM   16  H   UNL     1     -13.303  10.714  68.943  1.00  0.00     0.000 HD 
HETATM   17  H   UNL     1      -9.651  17.826  69.997  1.00  0.00     0.000 HD 
HETATM   18  C   UNL     1     -10.261  13.195  66.996  1.00  0.00    -0.250 C  
HETATM   19  O   UNL     1     -13.140  11.495  68.428  1.00  0.00     1.786 OA 
HETATM   20  C   UNL     1      -9.178  12.186  67.861  1.00  0.00    -0.188 C  
HETATM   21  C   UNL     1     -11.883  12.015  68.652  1.00  0.00    -0.311 C  
HETATM   22  O   UNL     1      -7.857  12.391  68.605  1.00  0.00    -0.117 OA 
HETATM   23  C   UNL     1      -9.732  12.212  69.297  1.00  0.00     0.588 C  
HETATM   24  C   UNL     1     -10.869  11.343  69.299  1.00  0.00    -0.242 C  
ENDROOT
BRANCH  11  25
HETATM   25  C   UNL     1      -9.536   9.807  64.689  1.00  0.00    -0.229 C  
BRANCH  25  26
HETATM   26  C   UNL     1      -9.020   9.597  63.252  1.00  0.00    -0.251 C  
HETATM   27  C   UNL     1      -7.906   8.600  62.953  1.00  0.00    -0.137 C  
HETATM   28  C   UNL     1      -7.654  10.061  62.767  1.00  0.00    -0.135 C  
ENDBRANCH  25  26
ENDBRANCH  11  25
BRANCH  24  29
HETATM   29  C   UNL     1     -10.399   9.993  70.032  1.00  0.00    -0.272 C  
HETATM   30  N   UNL     1      -9.837   8.940  69.232  1.00  0.00    -0.172 N  
HETATM   31  O   UNL     1     -10.550   9.933  71.241  1.00  0.00    -0.194 OA 
HETATM   32  C   UNL     1      -9.223   7.587  69.655  1.00  0.00    -0.146 C  
HETATM   33  H   UNL     1      -9.845   9.113  68.227  1.00  0.00     0.000 HD 
HETATM   34  C   UNL     1      -8.690   6.667  68.426  1.00  0.00    -0.122 A  
HETATM   35  C   UNL     1     -10.278   6.739  70.387  1.00  0.00    -0.212 C  
HETATM   36  C   UNL     1      -8.008   7.804  70.585  1.00  0.00    -0.098 C  
HETATM   37  N   UNL     1      -7.782   5.791  68.409  1.00  0.00    -0.095 NA 
HETATM   38  C   UNL     1      -7.816   5.278  67.048  1.00  0.00    -0.100 A  
HETATM   39  O   UNL     1      -9.350   6.805  67.245  1.00  0.00    -0.129 OA 
HETATM   40  N   UNL     1      -8.784   5.907  66.351  1.00  0.00    -0.126 NA 
BRANCH  38  41
HETATM   41  C   UNL     1      -6.954   4.224  66.437  1.00  0.00    -0.059 A  
HETATM   42  C   UNL     1      -7.109   2.864  66.741  1.00  0.00    -0.054 A  
HETATM   43  C   UNL     1      -6.319   1.879  66.102  1.00  0.00    -0.024 A  
HETATM   44  C   UNL     1      -5.348   2.236  65.167  1.00  0.00    -0.008 A  
HETATM   45  C   UNL     1      -5.207   3.570  64.822  1.00  0.00    -0.009 A  
HETATM   46  C   UNL     1      -5.999   4.551  65.446  1.00  0.00    -0.023 A  
ENDBRANCH  38  41
ENDBRANCH  24  29
TORSDOF 4
ENDMDL
MODEL       58
REMARK 921   NORMALIZED FREE ENERGY PREDICTED BY IDOCK:   -1.77 KCAL/MOL
REMARK 922        TOTAL FREE ENERGY PREDICTED BY IDOCK:   -3.93 KCAL/MOL
REMARK 923 INTER-LIGAND FREE ENERGY PREDICTED BY IDOCK:   -2.46 KCAL/MOL
REMARK 924 INTRA-LIGAND FREE ENERGY PREDICTED BY IDOCK:   -1.47 KCAL/MOL
REMARK 927      BINDING AFFINITY PREDICTED BY RF-SCORE:    0.00 PKD
ROOT
HETATM    1  C   UNL     1      -7.138   9.535  64.525  1.00  0.00    -0.107 C  
HETATM    2  O   UNL     1      -7.035   8.067  64.792  1.00  0.00    -0.067 OA 
HETATM    3  C   UNL     1      -8.286   7.655  65.253  1.00  0.00    -0.135 A  
HETATM    4  C   UNL     1      -9.190   8.687  65.306  1.00  0.00    -0.032 A  
HETATM    5  C   UNL     1     -10.344   8.862  66.093  1.00  0.00     0.073 A  
HETATM    6  C   UNL     1     -10.492   7.855  67.024  1.00  0.00    -0.419 A  
HETATM    7  C   UNL     1     -10.840  10.436  66.083  1.00  0.00     0.011 C  
HETATM    8  C   UNL     1      -9.733  11.784  66.104  1.00  0.00    -0.229 C  
HETATM    9  C   UNL     1      -9.679   6.675  66.916  1.00  0.00    -0.209 A  
HETATM   10  C   UNL     1      -8.623   6.543  65.975  1.00  0.00    -0.148 A  
HETATM   11  N   UNL     1     -10.130  12.454  64.777  1.00  0.00    -0.264 NA 
HETATM   12  C   UNL     1     -10.175  11.653  63.559  1.00  0.00    -0.436 C  
HETATM   13  O   UNL     1      -7.901   5.394  65.887  1.00  0.00    -0.100 OA 
HETATM   14  H   UNL     1      -8.636   9.548  67.996  1.00  0.00     0.000 HD 
HETATM   15  C   UNL     1      -9.527  10.270  63.600  1.00  0.00    -0.348 C  
HETATM   16  H   UNL     1      -4.570  11.701  64.902  1.00  0.00     0.000 HD 
HETATM   17  H   UNL     1      -8.135   4.622  66.388  1.00  0.00     0.000 HD 
HETATM   18  C   UNL     1      -8.586   9.946  64.882  1.00  0.00    -0.183 C  
HETATM   19  O   UNL     1      -5.168  11.115  64.453  1.00  0.00    -0.185 OA 
HETATM   20  C   UNL     1      -8.677  10.646  66.445  1.00  0.00    -0.149 C  
HETATM   21  C   UNL     1      -6.093  10.557  65.309  1.00  0.00    -0.110 C  
HETATM   22  O   UNL     1      -9.268  10.229  67.792  1.00  0.00    -0.140 OA 
HETATM   23  C   UNL     1      -7.376  10.180  67.124  1.00  0.00    -0.091 C  
HETATM   24  C   UNL     1      -6.333  11.003  66.590  1.00  0.00    -0.124 C  
ENDROOT
BRANCH  11  25
HETATM   25  C   UNL     1      -9.876  13.881  64.457  1.00  0.00     0.498 C  
BRANCH  25  26
HETATM   26  C   UNL     1     -10.957  14.783  65.082  1.00  0.00    -0.403 C  
HETATM   27  C   UNL     1     -11.213  14.782  66.585  1.00  0.00    -0.346 C  
HETATM   28  C   UNL     1     -12.266  14.263  65.660  1.00  0.00    -0.409 C  
ENDBRANCH  25  26
ENDBRANCH  11  25
BRANCH  24  29
HETATM   29  C   UNL     1      -5.970  12.065  67.739  1.00  0.00    -0.078 C  
HETATM   30  N   UNL     1      -6.642  13.335  67.734  1.00  0.00    -0.141 N  
HETATM   31  O   UNL     1      -5.130  11.734  68.560  1.00  0.00    -0.043 OA 
HETATM   32  C   UNL     1      -6.572  14.503  68.743  1.00  0.00    -0.088 C  
HETATM   33  H   UNL     1      -7.264  13.489  66.940  1.00  0.00     0.000 HD 
HETATM   34  C   UNL     1      -7.503  15.782  68.369  1.00  0.00    -0.121 A  
HETATM   35  C   UNL     1      -5.133  15.042  68.821  1.00  0.00    -0.092 C  
HETATM   36  C   UNL     1      -7.022  14.042  70.147  1.00  0.00     0.284 C  
HETATM   37  N   UNL     1      -8.026  16.647  69.125  1.00  0.00    -0.204 NA 
HETATM   38  C   UNL     1      -8.683  17.564  68.205  1.00  0.00    -0.262 A  
HETATM   39  O   UNL     1      -7.711  16.004  67.043  1.00  0.00    -0.183 OA 
HETATM   40  N   UNL     1      -8.476  17.156  66.936  1.00  0.00    -0.210 NA 
BRANCH  38  41
HETATM   41  C   UNL     1      -9.478  18.784  68.530  1.00  0.00    -0.400 A  
HETATM   42  C   UNL     1     -10.204  19.483  67.556  1.00  0.00    -0.546 A  
HETATM   43  C   UNL     1     -10.998  20.602  67.901  1.00  0.00     0.948 A  
HETATM   44  C   UNL     1     -11.065  21.052  69.219  1.00  0.00     1.472 A  
HETATM   45  C   UNL     1     -10.389  20.350  70.203  1.00  0.00     0.762 A  
HETATM   46  C   UNL     1      -9.608  19.231  69.866  1.00  0.00     0.494 A  
ENDBRANCH  38  41
ENDBRANCH  24  29
TORSDOF 4
ENDMDL
MODEL       59
REMARK 921   NORMALIZED FREE ENERGY PREDICTED BY IDOCK:   -1.49 KCAL/MOL
REMARK 922        TOTAL FREE ENERGY PREDICTED BY IDOCK:   -3.59 KCAL/MOL
REMARK 923 INTER-LIGAND FREE ENERGY PREDICTED BY IDOCK:   -3.30 KCAL/MOL
REMARK 924 INTRA-LIGAND FREE ENERGY PREDICTED BY IDOCK:   -0.30 KCAL/MOL
REMARK 927      BINDING AFFINITY PREDICTED BY RF-SCORE:    0.00 PKD
ROOT
HETATM    1  C   UNL     1      -9.454  18.085  69.549  1.00  0.00     0.470 C  
HETATM    2  O   UNL     1      -8.389  18.635  70.443  1.00  0.00     2.137 OA 
HETATM    3  C   UNL     1      -7.502  19.336  69.626  1.00  0.00     0.089 A  
HETATM    4  C   UNL     1      -7.876  19.311  68.305  1.00  0.00    -0.354 A  
HETATM    5  C   UNL     1      -7.115  19.451  67.128  1.00  0.00    -0.218 A  
HETATM    6  C   UNL     1      -5.763  19.515  67.392  1.00  0.00    -0.180 A  
HETATM    7  C   UNL     1      -7.958  18.931  65.808  1.00  0.00     0.083 C  
HETATM    8  C   UNL     1      -9.008  17.538  65.835  1.00  0.00     0.102 C  
HETATM    9  C   UNL     1      -5.320  19.705  68.746  1.00  0.00    -0.214 A  
HETATM   10  C   UNL     1      -6.203  19.694  69.860  1.00  0.00    -0.321 A  
HETATM   11  N   UNL     1     -10.335  18.218  65.457  1.00  0.00    -0.531 NA 
HETATM   12  C   UNL     1     -10.773  19.392  66.203  1.00  0.00    -0.411 C  
HETATM   13  O   UNL     1      -5.742  19.912  71.121  1.00  0.00    -0.278 OA 
HETATM   14  H   UNL     1      -6.465  16.919  67.548  1.00  0.00     0.000 HD 
HETATM   15  C   UNL     1     -10.057  19.701  67.517  1.00  0.00    -0.538 C  
HETATM   16  H   UNL     1     -11.058  15.163  70.109  1.00  0.00     0.000 HD 
HETATM   17  H   UNL     1      -4.840  20.161  71.284  1.00  0.00     0.000 HD 
HETATM   18  C   UNL     1      -9.097  18.535  68.112  1.00  0.00    -0.329 C  
HETATM   19  O   UNL     1     -10.912  16.102  70.116  1.00  0.00    -0.337 OA 
HETATM   20  C   UNL     1      -8.304  17.292  67.239  1.00  0.00    -0.201 C  
HETATM   21  C   UNL     1      -9.709  16.446  69.537  1.00  0.00    -0.080 C  
HETATM   22  O   UNL     1      -6.886  17.066  66.709  1.00  0.00    -0.185 OA 
HETATM   23  C   UNL     1      -7.801  16.342  68.342  1.00  0.00    -0.168 C  
HETATM   24  C   UNL     1      -8.944  15.594  68.772  1.00  0.00    -0.205 C  
ENDROOT
BRANCH  11  25
HETATM   25  C   UNL     1     -11.497  17.505  64.871  1.00  0.00     1.485 C  
BRANCH  25  26
HETATM   26  C   UNL     1     -11.096  16.092  64.406  1.00  0.00    -0.141 C  
HETATM   27  C   UNL     1     -12.132  14.981  64.278  1.00  0.00    -0.323 C  
HETATM   28  C   UNL     1     -11.067  14.875  65.320  1.00  0.00    -0.382 C  
ENDBRANCH  25  26
ENDBRANCH  11  25
BRANCH  24  29
HETATM   29  C   UNL     1      -8.789  14.131  68.128  1.00  0.00    -0.183 C  
HETATM   30  N   UNL     1      -8.227  13.084  68.935  1.00  0.00    -0.344 N  
HETATM   31  O   UNL     1      -9.159  13.987  66.974  1.00  0.00    -0.227 OA 
HETATM   32  C   UNL     1      -8.040  11.581  68.629  1.00  0.00    -0.132 C  
HETATM   33  H   UNL     1      -7.900  13.380  69.855  1.00  0.00     0.000 HD 
HETATM   34  C   UNL     1      -7.355  10.723  69.827  1.00  0.00    -0.064 A  
HETATM   35  C   UNL     1      -7.120  11.405  67.408  1.00  0.00    -0.114 C  
HETATM   36  C   UNL     1      -9.401  10.907  68.344  1.00  0.00    -0.172 C  
HETATM   37  N   UNL     1      -7.465   9.497  70.106  1.00  0.00    -0.116 NA 
HETATM   38  C   UNL     1      -6.569   9.313  71.237  1.00  0.00    -0.056 A  
HETATM   39  O   UNL     1      -6.480  11.396  70.622  1.00  0.00    -0.248 OA 
HETATM   40  N   UNL     1      -5.972  10.485  71.536  1.00  0.00    -0.299 NA 
BRANCH  38  41
HETATM   41  C   UNL     1      -6.294   8.062  72.002  1.00  0.00    -0.050 A  
HETATM   42  C   UNL     1      -6.952   7.761  73.204  1.00  0.00    -0.095 A  
HETATM   43  C   UNL     1      -6.717   6.540  73.878  1.00  0.00    -0.073 A  
HETATM   44  C   UNL     1      -5.809   5.609  73.376  1.00  0.00    -0.039 A  
HETATM   45  C   UNL     1      -5.180   5.867  72.169  1.00  0.00    -0.021 A  
HETATM   46  C   UNL     1      -5.419   7.075  71.491  1.00  0.00    -0.035 A  
ENDBRANCH  38  41
ENDBRANCH  24  29
TORSDOF 4
ENDMDL
MODEL       60
REMARK 921   NORMALIZED FREE ENERGY PREDICTED BY IDOCK:   -1.44 KCAL/MOL
REMARK 922        TOTAL FREE ENERGY PREDICTED BY IDOCK:   -3.53 KCAL/MOL
REMARK 923 INTER-LIGAND FREE ENERGY PREDICTED BY IDOCK:   -3.06 KCAL/MOL
REMARK 924 INTRA-LIGAND FREE ENERGY PREDICTED BY IDOCK:   -0.47 KCAL/MOL
REMARK 927      BINDING AFFINITY PREDICTED BY RF-SCORE:    0.00 PKD
ROOT
HETATM    1  C   UNL     1     -10.076  15.981  69.074  1.00  0.00    -0.239 C  
HETATM    2  O   UNL     1      -8.987  16.293  70.050  1.00  0.00     0.484 OA 
HETATM    3  C   UNL     1      -7.929  16.826  69.313  1.00  0.00    -0.024 A  
HETATM    4  C   UNL     1      -8.212  16.903  67.972  1.00  0.00    -0.203 A  
HETATM    5  C   UNL     1      -7.362  16.918  66.849  1.00  0.00    -0.251 A  
HETATM    6  C   UNL     1      -6.043  16.712  67.197  1.00  0.00    -0.202 A  
HETATM    7  C   UNL     1      -8.201  16.602  65.463  1.00  0.00     1.252 C  
HETATM    8  C   UNL     1      -9.498  15.439  65.378  1.00  0.00     0.002 C  
HETATM    9  C   UNL     1      -5.664  16.783  68.581  1.00  0.00    -0.124 A  
HETATM   10  C   UNL     1      -6.603  16.919  69.638  1.00  0.00    -0.138 A  
HETATM   11  N   UNL     1     -10.642  16.372  64.944  1.00  0.00    -0.683 NA 
HETATM   12  C   UNL     1     -10.894  17.593  65.701  1.00  0.00     0.035 C  
HETATM   13  O   UNL     1      -6.194  17.016  70.931  1.00  0.00     0.685 OA 
HETATM   14  H   UNL     1      -7.242  14.300  67.221  1.00  0.00     0.000 HD 
HETATM   15  C   UNL     1     -10.220  17.728  67.066  1.00  0.00    -0.346 C  
HETATM   16  H   UNL     1     -12.247  13.415  69.435  1.00  0.00     0.000 HD 
HETATM   17  H   UNL     1      -5.274  17.081  71.157  1.00  0.00     0.000 HD 
HETATM   18  C   UNL     1      -9.545  16.384  67.679  1.00  0.00    -0.227 C  
HETATM   19  O   UNL     1     -11.924  14.308  69.483  1.00  0.00    -0.299 OA 
HETATM   20  C   UNL     1      -8.950  15.030  66.813  1.00  0.00    -0.265 C  
HETATM   21  C   UNL     1     -10.641  14.424  68.991  1.00  0.00    -0.237 C  
HETATM   22  O   UNL     1      -7.571  14.545  66.363  1.00  0.00     0.736 OA 
HETATM   23  C   UNL     1      -8.714  13.976  67.911  1.00  0.00    -0.184 C  
HETATM   24  C   UNL     1     -10.005  13.456  68.245  1.00  0.00    -0.240 C  
ENDROOT
BRANCH  11  25
HETATM   25  C   UNL     1     -11.878  15.912  64.264  1.00  0.00    -0.071 C  
BRANCH  25  26
HETATM   26  C   UNL     1     -12.048  14.388  64.407  1.00  0.00    -0.491 C  
HETATM   27  C   UNL     1     -10.980  13.425  63.902  1.00  0.00    -0.128 C  
HETATM   28  C   UNL     1     -12.317  13.452  63.237  1.00  0.00    -0.244 C  
ENDBRANCH  25  26
ENDBRANCH  11  25
BRANCH  24  29
HETATM   29  C   UNL     1     -10.094  12.005  67.562  1.00  0.00    -0.195 C  
HETATM   30  N   UNL     1      -9.291  10.944  68.103  1.00  0.00    -0.160 N  
HETATM   31  O   UNL     1     -10.844  11.883  66.607  1.00  0.00    -0.251 OA 
HETATM   32  C   UNL     1      -9.231   9.447  67.725  1.00  0.00    -0.128 C  
HETATM   33  H   UNL     1      -8.662  11.223  68.856  1.00  0.00     0.000 HD 
HETATM   34  C   UNL     1      -8.176   8.567  68.593  1.00  0.00    -0.122 A  
HETATM   35  C   UNL     1      -8.797   9.295  66.257  1.00  0.00    -0.172 C  
HETATM   36  C   UNL     1     -10.610   8.777  67.921  1.00  0.00    -0.236 C  
HETATM   37  N   UNL     1      -8.189   7.336  68.870  1.00  0.00    -0.124 NA 
HETATM   38  C   UNL     1      -6.955   7.132  69.614  1.00  0.00    -0.051 A  
HETATM   39  O   UNL     1      -7.075   9.227  69.044  1.00  0.00    -0.065 OA 
HETATM   40  N   UNL     1      -6.285   8.299  69.707  1.00  0.00    -0.032 NA 
BRANCH  38  41
HETATM   41  C   UNL     1      -6.438   5.867  70.213  1.00  0.00    -0.039 A  
HETATM   42  C   UNL     1      -6.468   4.647  69.523  1.00  0.00    -0.032 A  
HETATM   43  C   UNL     1      -5.916   3.475  70.090  1.00  0.00    -0.019 A  
HETATM   44  C   UNL     1      -5.343   3.496  71.361  1.00  0.00    -0.004 A  
HETATM   45  C   UNL     1      -5.265   4.699  72.042  1.00  0.00    -0.004 A  
HETATM   46  C   UNL     1      -5.803   5.869  71.477  1.00  0.00    -0.022 A  
ENDBRANCH  38  41
ENDBRANCH  24  29
TORSDOF 4
ENDMDL
MODEL       61
REMARK 921   NORMALIZED FREE ENERGY PREDICTED BY IDOCK:   -1.33 KCAL/MOL
REMARK 922        TOTAL FREE ENERGY PREDICTED BY IDOCK:   -3.39 KCAL/MOL
REMARK 923 INTER-LIGAND FREE ENERGY PREDICTED BY IDOCK:   -5.61 KCAL/MOL
REMARK 924 INTRA-LIGAND FREE ENERGY PREDICTED BY IDOCK:    2.22 KCAL/MOL
REMARK 927      BINDING AFFINITY PREDICTED BY RF-SCORE:    0.00 PKD
ROOT
HETATM    1  C   UNL     1      -8.416  20.447  67.260  1.00  0.00    -0.331 C  
HETATM    2  O   UNL     1      -8.510  20.650  68.739  1.00  0.00     0.616 OA 
HETATM    3  C   UNL     1      -7.358  20.091  69.294  1.00  0.00    -0.070 A  
HETATM    4  C   UNL     1      -6.525  19.557  68.343  1.00  0.00    -0.283 A  
HETATM    5  C   UNL     1      -5.556  18.539  68.433  1.00  0.00    -0.180 A  
HETATM    6  C   UNL     1      -5.553  17.936  69.674  1.00  0.00    -0.217 A  
HETATM    7  C   UNL     1      -5.132  17.986  66.936  1.00  0.00    -0.148 C  
HETATM    8  C   UNL     1      -6.275  17.790  65.634  1.00  0.00    -0.106 C  
HETATM    9  C   UNL     1      -6.281  18.547  70.752  1.00  0.00     0.579 A  
HETATM   10  C   UNL     1      -7.125  19.677  70.577  1.00  0.00     0.521 A  
HETATM   11  N   UNL     1      -5.653  18.753  64.608  1.00  0.00    -0.236 NA 
HETATM   12  C   UNL     1      -5.337  20.118  65.012  1.00  0.00    -0.160 C  
HETATM   13  O   UNL     1      -7.767  20.241  71.634  1.00  0.00     0.535 OA 
HETATM   14  H   UNL     1      -7.631  16.900  68.308  1.00  0.00     0.000 HD 
HETATM   15  C   UNL     1      -5.923  20.617  66.332  1.00  0.00    -0.250 C  
HETATM   16  H   UNL     1     -11.094  19.969  65.254  1.00  0.00     0.000 HD 
HETATM   17  H   UNL     1      -7.605  19.954  72.524  1.00  0.00     0.000 HD 
HETATM   18  C   UNL     1      -7.085  19.702  67.003  1.00  0.00    -0.230 C  
HETATM   19  O   UNL     1     -10.396  20.442  65.691  1.00  0.00    -0.268 OA 
HETATM   20  C   UNL     1      -7.331  18.018  66.800  1.00  0.00    -0.204 C  
HETATM   21  C   UNL     1      -9.635  19.621  66.497  1.00  0.00    -0.389 C  
HETATM   22  O   UNL     1      -7.000  16.764  67.611  1.00  0.00    -0.125 OA 
HETATM   23  C   UNL     1      -8.720  17.780  67.422  1.00  0.00    -0.235 C  
HETATM   24  C   UNL     1      -9.670  18.245  66.456  1.00  0.00    -0.343 C  
ENDROOT
BRANCH  11  25
HETATM   25  C   UNL     1      -5.897  18.682  63.146  1.00  0.00     1.292 C  
BRANCH  25  26
HETATM   26  C   UNL     1      -5.642  20.048  62.481  1.00  0.00    -0.316 C  
HETATM   27  C   UNL     1      -5.183  21.249  63.298  1.00  0.00    -0.251 C  
HETATM   28  C   UNL     1      -6.539  21.263  62.671  1.00  0.00    -0.155 C  
ENDBRANCH  25  26
ENDBRANCH  11  25
BRANCH  24  29
HETATM   29  C   UNL     1     -10.295  16.931  65.776  1.00  0.00    -0.283 C  
HETATM   30  N   UNL     1     -10.103  15.665  66.427  1.00  0.00    -0.272 N  
HETATM   31  O   UNL     1     -10.904  17.081  64.729  1.00  0.00    -0.820 OA 
HETATM   32  C   UNL     1     -10.652  14.266  66.068  1.00  0.00    -0.300 C  
HETATM   33  H   UNL     1      -9.510  15.695  67.257  1.00  0.00     0.000 HD 
HETATM   34  C   UNL     1     -10.194  13.077  67.077  1.00  0.00    -0.245 A  
HETATM   35  C   UNL     1     -10.153  13.849  64.674  1.00  0.00    -0.144 C  
HETATM   36  C   UNL     1     -12.197  14.265  66.079  1.00  0.00    -0.422 C  
HETATM   37  N   UNL     1     -10.772  11.990  67.357  1.00  0.00    -0.222 NA 
HETATM   38  C   UNL     1      -9.847  11.325  68.263  1.00  0.00    -0.197 A  
HETATM   39  O   UNL     1      -8.979  13.228  67.669  1.00  0.00    -0.178 OA 
HETATM   40  N   UNL     1      -8.754  12.096  68.439  1.00  0.00    -0.168 NA 
BRANCH  38  41
HETATM   41  C   UNL     1     -10.004  10.002  68.933  1.00  0.00    -0.198 A  
HETATM   42  C   UNL     1     -10.367   9.887  70.283  1.00  0.00    -0.339 A  
HETATM   43  C   UNL     1     -10.569   8.619  70.878  1.00  0.00    -0.265 A  
HETATM   44  C   UNL     1     -10.392   7.448  70.144  1.00  0.00    -0.219 A  
HETATM   45  C   UNL     1     -10.075   7.540  68.799  1.00  0.00    -0.191 A  
HETATM   46  C   UNL     1      -9.885   8.798  68.200  1.00  0.00    -0.194 A  
ENDBRANCH  38  41
ENDBRANCH  24  29
TORSDOF 4
ENDMDL
MODEL       62
REMARK 921   NORMALIZED FREE ENERGY PREDICTED BY IDOCK:   -1.25 KCAL/MOL
REMARK 922        TOTAL FREE ENERGY PREDICTED BY IDOCK:   -3.29 KCAL/MOL
REMARK 923 INTER-LIGAND FREE ENERGY PREDICTED BY IDOCK:   -2.10 KCAL/MOL
REMARK 924 INTRA-LIGAND FREE ENERGY PREDICTED BY IDOCK:   -1.20 KCAL/MOL
REMARK 927      BINDING AFFINITY PREDICTED BY RF-SCORE:    0.00 PKD
ROOT
HETATM    1  C   UNL     1      -8.950   5.466  72.294  1.00  0.00    -0.129 C  
HETATM    2  O   UNL     1      -7.660   5.144  72.980  1.00  0.00    -0.093 OA 
HETATM    3  C   UNL     1      -7.309   6.270  73.724  1.00  0.00    -0.087 A  
HETATM    4  C   UNL     1      -8.229   7.282  73.607  1.00  0.00    -0.155 A  
HETATM    5  C   UNL     1      -8.094   8.675  73.765  1.00  0.00     0.084 A  
HETATM    6  C   UNL     1      -6.781   9.047  73.967  1.00  0.00     0.166 A  
HETATM    7  C   UNL     1      -9.381   9.477  73.112  1.00  0.00     3.980 C  
HETATM    8  C   UNL     1     -10.157   8.986  71.629  1.00  0.00    -0.335 C  
HETATM    9  C   UNL     1      -5.803   8.035  74.256  1.00  0.00    -0.088 A  
HETATM   10  C   UNL     1      -6.087   6.644  74.212  1.00  0.00    -0.064 A  
HETATM   11  N   UNL     1     -11.576   8.725  72.165  1.00  0.00    -0.372 NA 
HETATM   12  C   UNL     1     -11.753   7.858  73.325  1.00  0.00     0.546 C  
HETATM   13  O   UNL     1      -5.137   5.724  74.527  1.00  0.00    -0.026 OA 
HETATM   14  H   UNL     1      -7.069   8.599  71.326  1.00  0.00     0.000 HD 
HETATM   15  C   UNL     1     -10.560   7.006  73.757  1.00  0.00    -0.325 C  
HETATM   16  H   UNL     1      -9.824   4.253  69.263  1.00  0.00     0.000 HD 
HETATM   17  H   UNL     1      -4.288   5.983  74.866  1.00  0.00     0.000 HD 
HETATM   18  C   UNL     1      -9.321   6.908  72.713  1.00  0.00    -0.154 C  
HETATM   19  O   UNL     1      -9.788   4.309  70.211  1.00  0.00    -0.200 OA 
HETATM   20  C   UNL     1      -8.879   8.048  71.511  1.00  0.00    -0.143 C  
HETATM   21  C   UNL     1      -9.013   5.366  70.640  1.00  0.00    -0.143 C  
HETATM   22  O   UNL     1      -7.833   9.159  71.396  1.00  0.00    -0.310 OA 
HETATM   23  C   UNL     1      -7.841   7.291  70.662  1.00  0.00    -0.094 C  
HETATM   24  C   UNL     1      -8.587   6.396  69.831  1.00  0.00    -0.138 C  
ENDROOT
BRANCH  11  25
HETATM   25  C   UNL     1     -12.797   8.728  71.322  1.00  0.00    -0.215 C  
BRANCH  25  26
HETATM   26  C   UNL     1     -13.116  10.151  70.823  1.00  0.00    -0.351 C  
HETATM   27  C   UNL     1     -12.290  11.348  71.278  1.00  0.00    -0.344 C  
HETATM   28  C   UNL     1     -13.720  11.240  71.698  1.00  0.00     0.321 C  
ENDBRANCH  25  26
ENDBRANCH  11  25
BRANCH  24  29
HETATM   29  C   UNL     1      -8.587   7.045  68.361  1.00  0.00    -0.126 C  
HETATM   30  N   UNL     1      -8.690   8.473  68.243  1.00  0.00    -0.142 N  
HETATM   31  O   UNL     1      -8.502   6.280  67.414  1.00  0.00    -0.109 OA 
HETATM   32  C   UNL     1      -8.626   9.377  66.992  1.00  0.00    -0.128 C  
HETATM   33  H   UNL     1      -8.827   8.967  69.125  1.00  0.00     0.000 HD 
HETATM   34  C   UNL     1      -8.785  10.966  67.292  1.00  0.00    -0.131 A  
HETATM   35  C   UNL     1      -9.767   9.016  66.026  1.00  0.00    -0.339 C  
HETATM   36  C   UNL     1      -7.272   9.212  66.266  1.00  0.00    -0.091 C  
HETATM   37  N   UNL     1      -8.350  11.957  66.642  1.00  0.00    -0.155 NA 
HETATM   38  C   UNL     1      -8.869  13.106  67.368  1.00  0.00    -0.204 A  
HETATM   39  O   UNL     1      -9.550  11.299  68.366  1.00  0.00    -0.182 OA 
HETATM   40  N   UNL     1      -9.603  12.684  68.417  1.00  0.00    -0.204 NA 
BRANCH  38  41
HETATM   41  C   UNL     1      -8.668  14.554  67.068  1.00  0.00    -0.256 A  
HETATM   42  C   UNL     1      -9.691  15.358  66.547  1.00  0.00    -0.292 A  
HETATM   43  C   UNL     1      -9.493  16.741  66.328  1.00  0.00    -0.314 A  
HETATM   44  C   UNL     1      -8.265  17.340  66.605  1.00  0.00    -0.296 A  
HETATM   45  C   UNL     1      -7.254  16.573  67.160  1.00  0.00    -0.223 A  
HETATM   46  C   UNL     1      -7.451  15.200  67.390  1.00  0.00    -0.239 A  
ENDBRANCH  38  41
ENDBRANCH  24  29
TORSDOF 4
ENDMDL
MODEL       63
REMARK 921   NORMALIZED FREE ENERGY PREDICTED BY IDOCK:   -1.21 KCAL/MOL
REMARK 922        TOTAL FREE ENERGY PREDICTED BY IDOCK:   -3.24 KCAL/MOL
REMARK 923 INTER-LIGAND FREE ENERGY PREDICTED BY IDOCK:   -2.74 KCAL/MOL
REMARK 924 INTRA-LIGAND FREE ENERGY PREDICTED BY IDOCK:   -0.50 KCAL/MOL
REMARK 927      BINDING AFFINITY PREDICTED BY RF-SCORE:    0.00 PKD
ROOT
HETATM    1  C   UNL     1      -9.582  15.373  69.880  1.00  0.00    -0.098 C  
HETATM    2  O   UNL     1      -8.569  15.059  70.934  1.00  0.00     1.548 OA 
HETATM    3  C   UNL     1      -7.317  15.330  70.381  1.00  0.00     0.534 A  
HETATM    4  C   UNL     1      -7.404  15.793  69.091  1.00  0.00    -0.194 A  
HETATM    5  C   UNL     1      -6.477  15.750  68.031  1.00  0.00    -0.150 A  
HETATM    6  C   UNL     1      -5.353  15.020  68.357  1.00  0.00    -0.109 A  
HETATM    7  C   UNL     1      -7.210  16.061  66.586  1.00  0.00    -0.025 C  
HETATM    8  C   UNL     1      -8.805  15.481  66.182  1.00  0.00    -0.238 C  
HETATM    9  C   UNL     1      -5.131  14.649  69.728  1.00  0.00    -0.092 A  
HETATM   10  C   UNL     1      -6.083  14.875  70.758  1.00  0.00    -0.022 A  
HETATM   11  N   UNL     1      -9.511  16.829  65.954  1.00  0.00    -0.512 NA 
HETATM   12  C   UNL     1      -9.422  17.863  66.978  1.00  0.00    -0.272 C  
HETATM   13  O   UNL     1      -5.814  14.537  72.047  1.00  0.00    -0.029 OA 
HETATM   14  H   UNL     1      -7.288  13.245  67.757  1.00  0.00     0.000 HD 
HETATM   15  C   UNL     1      -8.900  17.450  68.354  1.00  0.00    -0.271 C  
HETATM   16  H   UNL     1     -12.516  13.729  69.540  1.00  0.00     0.000 HD 
HETATM   17  H   UNL     1      -4.958  14.221  72.309  1.00  0.00     0.000 HD 
HETATM   18  C   UNL     1      -8.791  15.856  68.641  1.00  0.00    -0.206 C  
HETATM   19  O   UNL     1     -11.918  14.416  69.814  1.00  0.00    -0.293 OA 
HETATM   20  C   UNL     1      -8.593  14.602  67.489  1.00  0.00    -0.187 C  
HETATM   21  C   UNL     1     -10.624  14.175  69.403  1.00  0.00    -0.036 C  
HETATM   22  O   UNL     1      -7.416  13.771  66.976  1.00  0.00     0.018 OA 
HETATM   23  C   UNL     1      -8.851  13.321  68.304  1.00  0.00    -0.168 C  
HETATM   24  C   UNL     1     -10.271  13.232  68.463  1.00  0.00    -0.222 C  
ENDROOT
BRANCH  11  25
HETATM   25  C   UNL     1     -10.745  16.996  65.147  1.00  0.00    -0.053 C  
BRANCH  25  26
HETATM   26  C   UNL     1     -10.984  15.767  64.249  1.00  0.00     0.170 C  
HETATM   27  C   UNL     1     -12.162  14.831  64.493  1.00  0.00    -0.443 C  
HETATM   28  C   UNL     1     -10.770  14.330  64.705  1.00  0.00    -0.435 C  
ENDBRANCH  25  26
ENDBRANCH  11  25
BRANCH  24  29
HETATM   29  C   UNL     1     -10.765  12.092  67.444  1.00  0.00    -0.234 C  
HETATM   30  N   UNL     1      -9.842  11.053  67.080  1.00  0.00    -0.181 N  
HETATM   31  O   UNL     1     -11.909  12.174  67.027  1.00  0.00    -0.547 OA 
HETATM   32  C   UNL     1     -10.052   9.794  66.210  1.00  0.00    -0.243 C  
HETATM   33  H   UNL     1      -8.900  11.165  67.456  1.00  0.00     0.000 HD 
HETATM   34  C   UNL     1      -8.735   8.857  66.042  1.00  0.00    -0.160 A  
HETATM   35  C   UNL     1     -10.459  10.205  64.785  1.00  0.00     0.256 C  
HETATM   36  C   UNL     1     -11.148   8.887  66.813  1.00  0.00     0.667 C  
HETATM   37  N   UNL     1      -8.651   7.617  65.819  1.00  0.00    -0.147 NA 
HETATM   38  C   UNL     1      -7.219   7.378  65.709  1.00  0.00    -0.066 A  
HETATM   39  O   UNL     1      -7.535   9.496  66.082  1.00  0.00    -0.098 OA 
HETATM   40  N   UNL     1      -6.553   8.540  65.868  1.00  0.00    -0.053 NA 
BRANCH  38  41
HETATM   41  C   UNL     1      -6.517   6.085  65.460  1.00  0.00    -0.043 A  
HETATM   42  C   UNL     1      -6.473   5.062  66.418  1.00  0.00    -0.041 A  
HETATM   43  C   UNL     1      -5.853   3.823  66.134  1.00  0.00    -0.023 A  
HETATM   44  C   UNL     1      -5.249   3.592  64.898  1.00  0.00    -0.009 A  
HETATM   45  C   UNL     1      -5.319   4.573  63.923  1.00  0.00    -0.013 A  
HETATM   46  C   UNL     1      -5.944   5.801  64.198  1.00  0.00    -0.025 A  
ENDBRANCH  38  41
ENDBRANCH  24  29
TORSDOF 4
ENDMDL
MODEL       64
REMARK 921   NORMALIZED FREE ENERGY PREDICTED BY IDOCK:   -0.98 KCAL/MOL
REMARK 922        TOTAL FREE ENERGY PREDICTED BY IDOCK:   -2.96 KCAL/MOL
REMARK 923 INTER-LIGAND FREE ENERGY PREDICTED BY IDOCK:   -1.28 KCAL/MOL
REMARK 924 INTRA-LIGAND FREE ENERGY PREDICTED BY IDOCK:   -1.68 KCAL/MOL
REMARK 927      BINDING AFFINITY PREDICTED BY RF-SCORE:    0.00 PKD
ROOT
HETATM    1  C   UNL     1      -9.346   2.367  67.652  1.00  0.00    -0.145 C  
HETATM    2  O   UNL     1     -10.201   2.082  66.459  1.00  0.00     1.321 OA 
HETATM    3  C   UNL     1      -9.590   2.705  65.370  1.00  0.00     0.109 A  
HETATM    4  C   UNL     1      -8.431   3.353  65.720  1.00  0.00    -0.109 A  
HETATM    5  C   UNL     1      -7.766   4.441  65.123  1.00  0.00    -0.085 A  
HETATM    6  C   UNL     1      -8.490   4.978  64.079  1.00  0.00    -0.135 A  
HETATM    7  C   UNL     1      -6.658   5.101  66.153  1.00  0.00    -0.052 C  
HETATM    8  C   UNL     1      -6.932   5.268  67.868  1.00  0.00    -0.065 C  
HETATM    9  C   UNL     1      -9.621   4.257  63.565  1.00  0.00    -0.087 A  
HETATM   10  C   UNL     1     -10.125   3.072  64.166  1.00  0.00    -0.134 A  
HETATM   11  N   UNL     1      -5.767   4.412  68.392  1.00  0.00    -0.020 NA 
HETATM   12  C   UNL     1      -5.589   3.058  67.878  1.00  0.00    -0.018 C  
HETATM   13  O   UNL     1     -11.178   2.404  63.623  1.00  0.00    -0.566 OA 
HETATM   14  H   UNL     1      -9.593   5.908  66.354  1.00  0.00     0.000 HD 
HETATM   15  C   UNL     1      -6.743   2.447  67.084  1.00  0.00    -0.040 C  
HETATM   16  H   UNL     1     -10.553   2.724  70.789  1.00  0.00     0.000 HD 
HETATM   17  H   UNL     1     -11.549   2.659  62.787  1.00  0.00     0.000 HD 
HETATM   18  C   UNL     1      -8.164   3.229  67.150  1.00  0.00    -0.083 C  
HETATM   19  O   UNL     1     -10.158   2.288  70.043  1.00  0.00     0.325 OA 
HETATM   20  C   UNL     1      -8.422   4.896  67.457  1.00  0.00    -0.104 C  
HETATM   21  C   UNL     1     -10.034   3.127  68.955  1.00  0.00     0.570 C  
HETATM   22  O   UNL     1      -8.702   6.131  66.599  1.00  0.00    -0.118 OA 
HETATM   23  C   UNL     1      -9.943   4.988  67.687  1.00  0.00    -0.202 C  
HETATM   24  C   UNL     1     -10.174   4.496  69.011  1.00  0.00     0.065 C  
ENDROOT
BRANCH  11  25
HETATM   25  C   UNL     1      -5.190   4.536  69.754  1.00  0.00     0.000 C  
BRANCH  25  26
HETATM   26  C   UNL     1      -6.241   4.195  70.828  1.00  0.00    -0.018 C  
HETATM   27  C   UNL     1      -5.876   3.361  72.050  1.00  0.00    -0.009 C  
HETATM   28  C   UNL     1      -6.821   2.803  71.035  1.00  0.00    -0.032 C  
ENDBRANCH  25  26
ENDBRANCH  11  25
BRANCH  24  29
HETATM   29  C   UNL     1     -10.456   5.787  69.925  1.00  0.00    -0.290 C  
HETATM   30  N   UNL     1     -10.029   7.072  69.445  1.00  0.00    -0.160 N  
HETATM   31  O   UNL     1     -11.022   5.603  70.990  1.00  0.00    -0.248 OA 
HETATM   32  C   UNL     1     -10.237   8.480  70.046  1.00  0.00    -0.198 C  
HETATM   33  H   UNL     1      -9.506   7.051  68.569  1.00  0.00     0.000 HD 
HETATM   34  C   UNL     1      -9.589   9.692  69.179  1.00  0.00    -0.174 A  
HETATM   35  C   UNL     1      -9.581   8.559  71.435  1.00  0.00    -0.282 C  
HETATM   36  C   UNL     1     -11.743   8.803  70.173  1.00  0.00     0.157 C  
HETATM   37  N   UNL     1      -9.930  10.905  69.109  1.00  0.00    -0.195 NA 
HETATM   38  C   UNL     1      -8.935  11.498  68.227  1.00  0.00    -0.177 A  
HETATM   39  O   UNL     1      -8.472   9.387  68.465  1.00  0.00    -0.117 OA 
HETATM   40  N   UNL     1      -8.049  10.555  67.846  1.00  0.00    -0.106 NA 
BRANCH  38  41
HETATM   41  C   UNL     1      -8.837  12.914  67.768  1.00  0.00    -0.188 A  
HETATM   42  C   UNL     1      -8.662  13.251  66.418  1.00  0.00     0.198 A  
HETATM   43  C   UNL     1      -8.634  14.602  66.002  1.00  0.00     0.693 A  
HETATM   44  C   UNL     1      -8.757  15.639  66.926  1.00  0.00    -0.283 A  
HETATM   45  C   UNL     1      -8.973  15.328  68.258  1.00  0.00    -0.176 A  
HETATM   46  C   UNL     1      -9.014  13.985  68.674  1.00  0.00    -0.104 A  
ENDBRANCH  38  41
ENDBRANCH  24  29
TORSDOF 4
ENDMDL
MODEL       65
REMARK 921   NORMALIZED FREE ENERGY PREDICTED BY IDOCK:   -0.79 KCAL/MOL
REMARK 922        TOTAL FREE ENERGY PREDICTED BY IDOCK:   -2.73 KCAL/MOL
REMARK 923 INTER-LIGAND FREE ENERGY PREDICTED BY IDOCK:   -1.17 KCAL/MOL
REMARK 924 INTRA-LIGAND FREE ENERGY PREDICTED BY IDOCK:   -1.56 KCAL/MOL
REMARK 927      BINDING AFFINITY PREDICTED BY RF-SCORE:    0.00 PKD
ROOT
HETATM    1  C   UNL     1      -6.932  16.358  66.437  1.00  0.00     0.210 C  
HETATM    2  O   UNL     1      -7.042  17.516  65.497  1.00  0.00    -0.308 OA 
HETATM    3  C   UNL     1      -6.948  18.672  66.273  1.00  0.00    -0.236 A  
HETATM    4  C   UNL     1      -6.781  18.395  67.607  1.00  0.00    -0.198 A  
HETATM    5  C   UNL     1      -7.092  19.152  68.753  1.00  0.00    -0.366 A  
HETATM    6  C   UNL     1      -7.774  20.309  68.437  1.00  0.00    -0.052 A  
HETATM    7  C   UNL     1      -7.082  18.212  70.109  1.00  0.00     1.099 C  
HETATM    8  C   UNL     1      -7.677  16.571  70.137  1.00  0.00     1.504 C  
HETATM    9  C   UNL     1      -7.840  20.732  67.066  1.00  0.00    -0.250 A  
HETATM   10  C   UNL     1      -7.355  19.946  65.986  1.00  0.00    -0.309 A  
HETATM   11  N   UNL     1      -6.387  15.846  70.557  1.00  0.00     0.179 NA 
HETATM   12  C   UNL     1      -5.155  16.092  69.816  1.00  0.00    -0.120 C  
HETATM   13  O   UNL     1      -7.409  20.404  64.707  1.00  0.00    -0.364 OA 
HETATM   14  H   UNL     1      -9.563  18.298  68.335  1.00  0.00     0.000 HD 
HETATM   15  C   UNL     1      -5.272  16.812  68.473  1.00  0.00    -0.118 C  
HETATM   16  H   UNL     1      -8.497  13.399  65.968  1.00  0.00     0.000 HD 
HETATM   17  H   UNL     1      -7.691  21.289  64.508  1.00  0.00     0.000 HD 
HETATM   18  C   UNL     1      -6.766  16.956  67.854  1.00  0.00    -0.155 C  
HETATM   19  O   UNL     1      -7.790  14.034  65.946  1.00  0.00     2.036 OA 
HETATM   20  C   UNL     1      -8.251  16.974  68.710  1.00  0.00    -0.245 C  
HETATM   21  C   UNL     1      -8.165  15.250  66.475  1.00  0.00     0.001 C  
HETATM   22  O   UNL     1      -9.220  18.057  69.188  1.00  0.00    -0.105 OA 
HETATM   23  C   UNL     1      -9.308  16.835  67.599  1.00  0.00    -0.228 C  
HETATM   24  C   UNL     1      -9.305  15.454  67.220  1.00  0.00    -0.218 C  
ENDROOT
BRANCH  11  25
HETATM   25  C   UNL     1      -6.356  14.506  71.193  1.00  0.00     0.203 C  
BRANCH  25  26
HETATM   26  C   UNL     1      -5.777  13.453  70.229  1.00  0.00    -0.154 C  
HETATM   27  C   UNL     1      -6.644  12.806  69.156  1.00  0.00    -0.101 C  
HETATM   28  C   UNL     1      -6.125  11.972  70.282  1.00  0.00    -0.091 C  
ENDBRANCH  25  26
ENDBRANCH  11  25
BRANCH  24  29
HETATM   29  C   UNL     1     -10.623  14.808  67.873  1.00  0.00    -0.248 C  
HETATM   30  N   UNL     1     -10.508  13.537  68.532  1.00  0.00    -0.242 N  
HETATM   31  O   UNL     1     -11.663  15.439  67.770  1.00  0.00    -0.297 OA 
HETATM   32  C   UNL     1     -11.560  12.724  69.319  1.00  0.00    -0.314 C  
HETATM   33  H   UNL     1      -9.587  13.104  68.471  1.00  0.00     0.000 HD 
HETATM   34  C   UNL     1     -11.019  11.314  69.920  1.00  0.00    -0.026 A  
HETATM   35  C   UNL     1     -12.739  12.363  68.399  1.00  0.00     1.588 C  
HETATM   36  C   UNL     1     -12.084  13.530  70.528  1.00  0.00    -0.409 C  
HETATM   37  N   UNL     1     -11.414  10.662  70.926  1.00  0.00    -0.234 NA 
HETATM   38  C   UNL     1     -10.590   9.462  70.910  1.00  0.00    -0.320 A  
HETATM   39  O   UNL     1     -10.036  10.698  69.210  1.00  0.00    -0.217 OA 
HETATM   40  N   UNL     1      -9.756   9.500  69.851  1.00  0.00    -0.209 NA 
BRANCH  38  41
HETATM   41  C   UNL     1     -10.602   8.323  71.874  1.00  0.00    -0.350 A  
HETATM   42  C   UNL     1     -11.405   7.190  71.680  1.00  0.00    -0.282 A  
HETATM   43  C   UNL     1     -11.352   6.097  72.577  1.00  0.00    -0.328 A  
HETATM   44  C   UNL     1     -10.514   6.125  73.691  1.00  0.00    -0.289 A  
HETATM   45  C   UNL     1      -9.682   7.216  73.877  1.00  0.00    -0.334 A  
HETATM   46  C   UNL     1      -9.723   8.299  72.982  1.00  0.00    -0.276 A  
ENDBRANCH  38  41
ENDBRANCH  24  29
TORSDOF 4
ENDMDL
MODEL       66
REMARK 921   NORMALIZED FREE ENERGY PREDICTED BY IDOCK:   -0.76 KCAL/MOL
REMARK 922        TOTAL FREE ENERGY PREDICTED BY IDOCK:   -2.70 KCAL/MOL
REMARK 923 INTER-LIGAND FREE ENERGY PREDICTED BY IDOCK:   -1.49 KCAL/MOL
REMARK 924 INTRA-LIGAND FREE ENERGY PREDICTED BY IDOCK:   -1.21 KCAL/MOL
REMARK 927      BINDING AFFINITY PREDICTED BY RF-SCORE:    0.00 PKD
ROOT
HETATM    1  C   UNL     1      -8.608   6.681  72.541  1.00  0.00    -0.124 C  
HETATM    2  O   UNL     1      -8.988   5.368  73.147  1.00  0.00    -0.120 OA 
HETATM    3  C   UNL     1      -8.992   4.433  72.111  1.00  0.00    -0.120 A  
HETATM    4  C   UNL     1      -8.649   4.990  70.904  1.00  0.00    -0.129 A  
HETATM    5  C   UNL     1      -8.953   4.596  69.587  1.00  0.00    -0.140 A  
HETATM    6  C   UNL     1      -9.831   3.532  69.556  1.00  0.00     0.094 A  
HETATM    7  C   UNL     1      -8.662   5.818  68.516  1.00  0.00    -0.111 C  
HETATM    8  C   UNL     1      -8.994   7.494  68.870  1.00  0.00    -0.134 C  
HETATM    9  C   UNL     1     -10.101   2.810  70.768  1.00  0.00     0.402 A  
HETATM   10  C   UNL     1      -9.615   3.218  72.039  1.00  0.00    -0.145 A  
HETATM   11  N   UNL     1      -7.573   8.065  68.727  1.00  0.00    -0.101 NA 
HETATM   12  C   UNL     1      -6.475   7.439  69.455  1.00  0.00    -0.036 C  
HETATM   13  O   UNL     1      -9.868   2.483  73.155  1.00  0.00    -0.099 OA 
HETATM   14  H   UNL     1     -11.295   5.738  70.055  1.00  0.00     0.000 HD 
HETATM   15  C   UNL     1      -6.837   6.449  70.562  1.00  0.00    -0.062 C  
HETATM   16  H   UNL     1      -9.745   9.665  73.648  1.00  0.00     0.000 HD 
HETATM   17  H   UNL     1     -10.300   1.638  73.106  1.00  0.00     0.000 HD 
HETATM   18  C   UNL     1      -8.390   6.421  71.031  1.00  0.00    -0.123 C  
HETATM   19  O   UNL     1      -9.148   8.931  73.552  1.00  0.00     0.065 OA 
HETATM   20  C   UNL     1      -9.766   6.866  70.109  1.00  0.00    -0.171 C  
HETATM   21  C   UNL     1      -9.648   7.961  72.709  1.00  0.00    -0.247 C  
HETATM   22  O   UNL     1     -10.834   6.113  69.314  1.00  0.00    -0.277 OA 
HETATM   23  C   UNL     1     -10.898   6.914  71.153  1.00  0.00    -0.270 C  
HETATM   24  C   UNL     1     -10.724   8.142  71.869  1.00  0.00    -0.329 C  
ENDROOT
BRANCH  11  25
HETATM   25  C   UNL     1      -7.274   9.493  68.454  1.00  0.00    -0.075 C  
BRANCH  25  26
HETATM   26  C   UNL     1      -5.937   9.640  67.702  1.00  0.00    -0.051 C  
HETATM   27  C   UNL     1      -5.666  10.841  66.805  1.00  0.00    -0.069 C  
HETATM   28  C   UNL     1      -5.791   9.483  66.195  1.00  0.00    -0.057 C  
ENDBRANCH  25  26
ENDBRANCH  11  25
BRANCH  24  29
HETATM   29  C   UNL     1     -11.855   9.143  71.321  1.00  0.00    -0.327 C  
HETATM   30  N   UNL     1     -11.443  10.405  70.772  1.00  0.00    -0.343 N  
HETATM   31  O   UNL     1     -13.015   8.774  71.406  1.00  0.00    -0.320 OA 
HETATM   32  C   UNL     1     -12.277  11.517  70.098  1.00  0.00    -0.308 C  
HETATM   33  H   UNL     1     -10.444  10.597  70.839  1.00  0.00     0.000 HD 
HETATM   34  C   UNL     1     -11.419  12.806  69.604  1.00  0.00    -0.185 A  
HETATM   35  C   UNL     1     -13.322  12.062  71.087  1.00  0.00     0.247 C  
HETATM   36  C   UNL     1     -12.997  10.977  68.842  1.00  0.00     1.865 C  
HETATM   37  N   UNL     1     -11.657  13.625  68.674  1.00  0.00    -0.305 NA 
HETATM   38  C   UNL     1     -10.567  14.585  68.765  1.00  0.00    -0.248 A  
HETATM   39  O   UNL     1     -10.307  13.099  70.330  1.00  0.00     2.063 OA 
HETATM   40  N   UNL     1      -9.753  14.249  69.787  1.00  0.00     0.547 NA 
BRANCH  38  41
HETATM   41  C   UNL     1     -10.315  15.779  67.907  1.00  0.00    -0.261 A  
HETATM   42  C   UNL     1     -10.687  17.073  68.299  1.00  0.00    -0.372 A  
HETATM   43  C   UNL     1     -10.382  18.195  67.493  1.00  0.00    -0.405 A  
HETATM   44  C   UNL     1      -9.721  18.043  66.275  1.00  0.00    -0.276 A  
HETATM   45  C   UNL     1      -9.308  16.779  65.889  1.00  0.00    -0.162 A  
HETATM   46  C   UNL     1      -9.599  15.662  66.692  1.00  0.00    -0.267 A  
ENDBRANCH  38  41
ENDBRANCH  24  29
TORSDOF 4
ENDMDL
MODEL       67
REMARK 921   NORMALIZED FREE ENERGY PREDICTED BY IDOCK:   -0.64 KCAL/MOL
REMARK 922        TOTAL FREE ENERGY PREDICTED BY IDOCK:   -2.54 KCAL/MOL
REMARK 923 INTER-LIGAND FREE ENERGY PREDICTED BY IDOCK:   -3.28 KCAL/MOL
REMARK 924 INTRA-LIGAND FREE ENERGY PREDICTED BY IDOCK:    0.74 KCAL/MOL
REMARK 927      BINDING AFFINITY PREDICTED BY RF-SCORE:    0.00 PKD
ROOT
HETATM    1  C   UNL     1      -9.539  18.117  67.198  1.00  0.00    -0.277 C  
HETATM    2  O   UNL     1     -10.245  18.527  68.452  1.00  0.00    -0.371 OA 
HETATM    3  C   UNL     1      -9.419  19.449  69.095  1.00  0.00    -0.263 A  
HETATM    4  C   UNL     1      -8.262  19.691  68.397  1.00  0.00    -0.350 A  
HETATM    5  C   UNL     1      -6.999  20.137  68.830  1.00  0.00    -0.230 A  
HETATM    6  C   UNL     1      -6.929  20.232  70.205  1.00  0.00     0.189 A  
HETATM    7  C   UNL     1      -5.844  19.866  67.683  1.00  0.00    -0.202 C  
HETATM    8  C   UNL     1      -5.807  18.434  66.687  1.00  0.00    -0.148 C  
HETATM    9  C   UNL     1      -8.138  20.148  70.976  1.00  0.00     1.804 A  
HETATM   10  C   UNL     1      -9.401  19.833  70.408  1.00  0.00     1.255 A  
HETATM   11  N   UNL     1      -5.935  19.090  65.301  1.00  0.00    -0.222 NA 
HETATM   12  C   UNL     1      -7.016  20.039  65.058  1.00  0.00    -0.129 C  
HETATM   13  O   UNL     1     -10.525  19.798  71.173  1.00  0.00     0.311 OA 
HETATM   14  H   UNL     1      -6.651  17.625  69.588  1.00  0.00     0.000 HD 
HETATM   15  C   UNL     1      -8.147  20.099  66.083  1.00  0.00    -0.246 C  
HETATM   16  H   UNL     1      -9.789  15.043  65.816  1.00  0.00     0.000 HD 
HETATM   17  H   UNL     1     -10.513  20.065  72.084  1.00  0.00     0.000 HD 
HETATM   18  C   UNL     1      -8.203  18.896  67.173  1.00  0.00    -0.283 C  
HETATM   19  O   UNL     1      -9.976  15.965  65.951  1.00  0.00    -0.302 OA 
HETATM   20  C   UNL     1      -6.898  17.932  67.728  1.00  0.00    -0.191 C  
HETATM   21  C   UNL     1      -9.214  16.509  66.963  1.00  0.00    -0.218 C  
HETATM   22  O   UNL     1      -5.999  17.924  68.965  1.00  0.00    -0.195 OA 
HETATM   23  C   UNL     1      -7.594  16.798  68.504  1.00  0.00    -0.217 C  
HETATM   24  C   UNL     1      -8.109  15.900  67.515  1.00  0.00    -0.171 C  
ENDROOT
BRANCH  11  25
HETATM   25  C   UNL     1      -5.506  18.448  64.034  1.00  0.00     0.213 C  
BRANCH  25  26
HETATM   26  C   UNL     1      -5.153  19.508  62.974  1.00  0.00    -0.294 C  
HETATM   27  C   UNL     1      -5.189  20.996  63.304  1.00  0.00    -0.248 C  
HETATM   28  C   UNL     1      -6.175  20.436  62.331  1.00  0.00    -0.029 C  
ENDBRANCH  25  26
ENDBRANCH  11  25
BRANCH  24  29
HETATM   29  C   UNL     1      -7.127  14.628  67.513  1.00  0.00    -0.178 C  
HETATM   30  N   UNL     1      -7.669  13.345  67.867  1.00  0.00    -0.136 N  
HETATM   31  O   UNL     1      -5.962  14.823  67.210  1.00  0.00    -0.305 OA 
HETATM   32  C   UNL     1      -7.006  11.949  67.867  1.00  0.00    -0.085 C  
HETATM   33  H   UNL     1      -8.644  13.358  68.165  1.00  0.00     0.000 HD 
HETATM   34  C   UNL     1      -7.977  10.735  68.341  1.00  0.00    -0.124 A  
HETATM   35  C   UNL     1      -5.813  11.936  68.839  1.00  0.00    -0.052 C  
HETATM   36  C   UNL     1      -6.515  11.576  66.451  1.00  0.00     0.032 C  
HETATM   37  N   UNL     1      -7.938   9.509  68.044  1.00  0.00    -0.091 NA 
HETATM   38  C   UNL     1      -9.020   8.926  68.824  1.00  0.00    -0.134 A  
HETATM   39  O   UNL     1      -8.944  11.058  69.241  1.00  0.00    -0.058 OA 
HETATM   40  N   UNL     1      -9.621   9.888  69.553  1.00  0.00    -0.212 NA 
BRANCH  38  41
HETATM   41  C   UNL     1      -9.460   7.501  68.869  1.00  0.00    -0.145 A  
HETATM   42  C   UNL     1      -8.966   6.538  67.977  1.00  0.00    -0.116 A  
HETATM   43  C   UNL     1      -9.353   5.182  68.080  1.00  0.00    -0.144 A  
HETATM   44  C   UNL     1     -10.254   4.767  69.060  1.00  0.00    -0.106 A  
HETATM   45  C   UNL     1     -10.721   5.694  69.977  1.00  0.00    -0.390 A  
HETATM   46  C   UNL     1     -10.329   7.041  69.885  1.00  0.00    -0.225 A  
ENDBRANCH  38  41
ENDBRANCH  24  29
TORSDOF 4
ENDMDL
MODEL       68
REMARK 921   NORMALIZED FREE ENERGY PREDICTED BY IDOCK:   -0.44 KCAL/MOL
REMARK 922        TOTAL FREE ENERGY PREDICTED BY IDOCK:   -2.29 KCAL/MOL
REMARK 923 INTER-LIGAND FREE ENERGY PREDICTED BY IDOCK:   -2.06 KCAL/MOL
REMARK 924 INTRA-LIGAND FREE ENERGY PREDICTED BY IDOCK:   -0.23 KCAL/MOL
REMARK 927      BINDING AFFINITY PREDICTED BY RF-SCORE:    0.00 PKD
ROOT
HETATM    1  C   UNL     1     -10.265  15.630  67.616  1.00  0.00    -0.261 C  
HETATM    2  O   UNL     1      -9.242  16.497  68.278  1.00  0.00    -0.204 OA 
HETATM    3  C   UNL     1      -8.009  15.867  68.106  1.00  0.00    -0.137 A  
HETATM    4  C   UNL     1      -8.116  14.694  67.400  1.00  0.00    -0.216 A  
HETATM    5  C   UNL     1      -7.297  13.549  67.385  1.00  0.00    -0.124 A  
HETATM    6  C   UNL     1      -6.294  13.619  68.329  1.00  0.00    -0.107 A  
HETATM    7  C   UNL     1      -8.076  12.267  66.696  1.00  0.00     0.059 C  
HETATM    8  C   UNL     1      -9.774  11.944  66.933  1.00  0.00    -0.200 C  
HETATM    9  C   UNL     1      -6.032  14.872  68.983  1.00  0.00    -0.096 A  
HETATM   10  C   UNL     1      -6.847  16.023  68.810  1.00  0.00    -0.132 A  
HETATM   11  N   UNL     1     -10.251  12.032  65.474  1.00  0.00    -0.250 NA 
HETATM   12  C   UNL     1      -9.904  13.205  64.678  1.00  0.00     0.012 C  
HETATM   13  O   UNL     1      -6.541  17.197  69.424  1.00  0.00    -0.234 OA 
HETATM   14  H   UNL     1      -8.548  12.934  69.635  1.00  0.00     0.000 HD 
HETATM   15  C   UNL     1      -9.356  14.423  65.420  1.00  0.00     0.422 C  
HETATM   16  H   UNL     1     -13.456  15.331  68.689  1.00  0.00     0.000 HD 
HETATM   17  H   UNL     1      -5.734  17.305  69.913  1.00  0.00     0.000 HD 
HETATM   18  C   UNL     1      -9.502  14.415  67.037  1.00  0.00    -0.255 C  
HETATM   19  O   UNL     1     -12.730  15.653  68.168  1.00  0.00     0.927 OA 
HETATM   20  C   UNL     1      -9.615  13.048  68.066  1.00  0.00    -0.224 C  
HETATM   21  C   UNL     1     -11.533  15.069  68.525  1.00  0.00    -0.317 C  
HETATM   22  O   UNL     1      -8.643  12.274  68.958  1.00  0.00     0.181 OA 
HETATM   23  C   UNL     1     -10.026  13.652  69.422  1.00  0.00     0.511 C  
HETATM   24  C   UNL     1     -11.423  13.947  69.317  1.00  0.00    -0.348 C  
ENDROOT
BRANCH  11  25
HETATM   25  C   UNL     1     -11.497  11.405  64.967  1.00  0.00     0.059 C  
BRANCH  25  26
HETATM   26  C   UNL     1     -12.680  12.389  65.050  1.00  0.00    -0.170 C  
HETATM   27  C   UNL     1     -13.014  13.320  63.891  1.00  0.00     0.375 C  
HETATM   28  C   UNL     1     -12.520  13.897  65.178  1.00  0.00    -0.479 C  
ENDBRANCH  25  26
ENDBRANCH  11  25
BRANCH  24  29
HETATM   29  C   UNL     1     -12.185  12.805  70.152  1.00  0.00    -0.249 C  
HETATM   30  N   UNL     1     -11.615  11.487  70.187  1.00  0.00    -0.468 N  
HETATM   31  O   UNL     1     -13.219  13.124  70.716  1.00  0.00     0.025 OA 
HETATM   32  C   UNL     1     -12.060  10.229  70.966  1.00  0.00    -0.386 C  
HETATM   33  H   UNL     1     -10.786  11.362  69.606  1.00  0.00     0.000 HD 
HETATM   34  C   UNL     1     -11.130   8.918  70.730  1.00  0.00    -0.261 A  
HETATM   35  C   UNL     1     -13.479   9.821  70.533  1.00  0.00     0.189 C  
HETATM   36  C   UNL     1     -12.047  10.494  72.488  1.00  0.00     1.943 C  
HETATM   37  N   UNL     1     -10.918   7.932  71.489  1.00  0.00    -0.228 NA 
HETATM   38  C   UNL     1     -10.058   7.062  70.701  1.00  0.00    -0.191 A  
HETATM   39  O   UNL     1     -10.531   8.820  69.513  1.00  0.00    -0.215 OA 
HETATM   40  N   UNL     1      -9.835   7.620  69.493  1.00  0.00    -0.175 NA 
BRANCH  38  41
HETATM   41  C   UNL     1      -9.472   5.747  71.090  1.00  0.00    -0.185 A  
HETATM   42  C   UNL     1      -8.090   5.556  71.230  1.00  0.00    -0.113 A  
HETATM   43  C   UNL     1      -7.564   4.315  71.660  1.00  0.00    -0.073 A  
HETATM   44  C   UNL     1      -8.406   3.239  71.936  1.00  0.00    -0.073 A  
HETATM   45  C   UNL     1      -9.776   3.418  71.845  1.00  0.00    -0.235 A  
HETATM   46  C   UNL     1     -10.303   4.653  71.430  1.00  0.00    -0.160 A  
ENDBRANCH  38  41
ENDBRANCH  24  29
TORSDOF 4
ENDMDL
MODEL       69
REMARK 921   NORMALIZED FREE ENERGY PREDICTED BY IDOCK:   -0.40 KCAL/MOL
REMARK 922        TOTAL FREE ENERGY PREDICTED BY IDOCK:   -2.24 KCAL/MOL
REMARK 923 INTER-LIGAND FREE ENERGY PREDICTED BY IDOCK:   -0.70 KCAL/MOL
REMARK 924 INTRA-LIGAND FREE ENERGY PREDICTED BY IDOCK:   -1.54 KCAL/MOL
REMARK 927      BINDING AFFINITY PREDICTED BY RF-SCORE:    0.00 PKD
ROOT
HETATM    1  C   UNL     1     -10.446   5.460  66.436  1.00  0.00    -0.267 C  
HETATM    2  O   UNL     1     -10.604   4.746  65.132  1.00  0.00    -0.054 OA 
HETATM    3  C   UNL     1      -9.496   3.909  64.995  1.00  0.00    -0.170 A  
HETATM    4  C   UNL     1      -8.642   3.993  66.067  1.00  0.00    -0.110 A  
HETATM    5  C   UNL     1      -7.262   3.731  66.170  1.00  0.00    -0.064 A  
HETATM    6  C   UNL     1      -6.698   3.449  64.943  1.00  0.00    -0.040 A  
HETATM    7  C   UNL     1      -6.633   4.379  67.552  1.00  0.00    -0.046 C  
HETATM    8  C   UNL     1      -7.130   5.924  68.192  1.00  0.00    -0.078 C  
HETATM    9  C   UNL     1      -7.555   3.191  63.819  1.00  0.00    -0.067 A  
HETATM   10  C   UNL     1      -8.966   3.346  63.867  1.00  0.00    -0.093 A  
HETATM   11  N   UNL     1      -7.660   5.467  69.562  1.00  0.00    -0.070 NA 
HETATM   12  C   UNL     1      -8.630   4.380  69.627  1.00  0.00    -0.072 C  
HETATM   13  O   UNL     1      -9.740   3.057  62.787  1.00  0.00    -0.092 OA 
HETATM   14  H   UNL     1      -6.983   6.124  65.074  1.00  0.00     0.000 HD 
HETATM   15  C   UNL     1      -9.307   3.960  68.323  1.00  0.00    -0.221 C  
HETATM   16  H   UNL     1     -11.549   8.603  67.007  1.00  0.00     0.000 HD 
HETATM   17  H   UNL     1      -9.372   2.665  62.004  1.00  0.00     0.000 HD 
HETATM   18  C   UNL     1      -9.120   4.956  67.054  1.00  0.00    -0.120 C  
HETATM   19  O   UNL     1     -11.560   7.653  67.009  1.00  0.00     0.906 OA 
HETATM   20  C   UNL     1      -7.834   6.054  66.772  1.00  0.00    -0.101 C  
HETATM   21  C   UNL     1     -10.427   7.118  66.433  1.00  0.00     0.219 C  
HETATM   22  O   UNL     1      -6.562   6.047  65.923  1.00  0.00    -0.045 OA 
HETATM   23  C   UNL     1      -8.344   6.911  65.598  1.00  0.00    -0.147 C  
HETATM   24  C   UNL     1      -9.283   7.834  66.161  1.00  0.00    -0.182 C  
ENDROOT
BRANCH  11  25
HETATM   25  C   UNL     1      -7.791   6.358  70.742  1.00  0.00    -0.106 C  
BRANCH  25  26
HETATM   26  C   UNL     1      -7.917   7.831  70.306  1.00  0.00    -0.100 C  
HETATM   27  C   UNL     1      -8.322   8.914  71.298  1.00  0.00    -0.223 C  
HETATM   28  C   UNL     1      -9.243   8.566  70.174  1.00  0.00    -0.159 C  
ENDBRANCH  25  26
ENDBRANCH  11  25
BRANCH  24  29
HETATM   29  C   UNL     1      -8.532   9.253  66.225  1.00  0.00    -0.127 C  
HETATM   30  N   UNL     1      -9.150  10.321  66.960  1.00  0.00    -0.139 N  
HETATM   31  O   UNL     1      -7.467   9.347  65.637  1.00  0.00    -0.093 OA 
HETATM   32  C   UNL     1      -8.635  11.745  67.271  1.00  0.00    -0.162 C  
HETATM   33  H   UNL     1     -10.074  10.106  67.334  1.00  0.00     0.000 HD 
HETATM   34  C   UNL     1      -9.653  12.660  68.147  1.00  0.00    -0.219 A  
HETATM   35  C   UNL     1      -8.400  12.515  65.960  1.00  0.00     0.748 C  
HETATM   36  C   UNL     1      -7.315  11.686  68.073  1.00  0.00    -0.089 C  
HETATM   37  N   UNL     1      -9.405  13.620  68.928  1.00  0.00     0.057 NA 
HETATM   38  C   UNL     1     -10.721  14.070  69.357  1.00  0.00    -0.052 A  
HETATM   39  O   UNL     1     -10.979  12.409  67.978  1.00  0.00    -0.207 OA 
HETATM   40  N   UNL     1     -11.672  13.320  68.763  1.00  0.00    -0.308 NA 
BRANCH  38  41
HETATM   41  C   UNL     1     -11.054  15.177  70.300  1.00  0.00    -0.289 A  
HETATM   42  C   UNL     1     -11.716  14.949  71.515  1.00  0.00    -0.394 A  
HETATM   43  C   UNL     1     -11.966  16.008  72.419  1.00  0.00    -0.644 A  
HETATM   44  C   UNL     1     -11.579  17.313  72.118  1.00  0.00     1.219 A  
HETATM   45  C   UNL     1     -10.886  17.553  70.943  1.00  0.00     1.665 A  
HETATM   46  C   UNL     1     -10.625  16.501  70.047  1.00  0.00    -0.167 A  
ENDBRANCH  38  41
ENDBRANCH  24  29
TORSDOF 4
ENDMDL
MODEL       70
REMARK 921   NORMALIZED FREE ENERGY PREDICTED BY IDOCK:    0.83 KCAL/MOL
REMARK 922        TOTAL FREE ENERGY PREDICTED BY IDOCK:   -0.74 KCAL/MOL
REMARK 923 INTER-LIGAND FREE ENERGY PREDICTED BY IDOCK:   -0.56 KCAL/MOL
REMARK 924 INTRA-LIGAND FREE ENERGY PREDICTED BY IDOCK:   -0.18 KCAL/MOL
REMARK 927      BINDING AFFINITY PREDICTED BY RF-SCORE:    0.00 PKD
ROOT
HETATM    1  C   UNL     1      -8.833  19.999  68.660  1.00  0.00     0.027 C  
HETATM    2  O   UNL     1      -8.783  20.227  70.137  1.00  0.00     0.876 OA 
HETATM    3  C   UNL     1      -7.473  19.968  70.539  1.00  0.00     0.850 A  
HETATM    4  C   UNL     1      -6.665  19.607  69.490  1.00  0.00    -0.379 A  
HETATM    5  C   UNL     1      -5.482  18.844  69.456  1.00  0.00    -0.215 A  
HETATM    6  C   UNL     1      -5.182  18.301  70.688  1.00  0.00    -0.271 A  
HETATM    7  C   UNL     1      -5.134  18.351  67.919  1.00  0.00    -0.161 C  
HETATM    8  C   UNL     1      -6.355  17.852  66.778  1.00  0.00    -0.176 C  
HETATM    9  C   UNL     1      -5.890  18.765  71.850  1.00  0.00     0.511 A  
HETATM   10  C   UNL     1      -6.989  19.663  71.782  1.00  0.00     1.412 A  
HETATM   11  N   UNL     1      -6.110  18.896  65.676  1.00  0.00    -0.205 NA 
HETATM   12  C   UNL     1      -6.072  20.311  66.029  1.00  0.00    -0.191 C  
HETATM   13  O   UNL     1      -7.606  20.101  72.912  1.00  0.00     1.210 OA 
HETATM   14  H   UNL     1      -7.117  16.767  69.612  1.00  0.00     0.000 HD 
HETATM   15  C   UNL     1      -6.586  20.707  67.413  1.00  0.00    -0.346 C  
HETATM   16  H   UNL     1     -11.557  18.847  67.024  1.00  0.00     0.000 HD 
HETATM   17  H   UNL     1      -7.270  19.890  73.775  1.00  0.00     0.000 HD 
HETATM   18  C   UNL     1      -7.408  19.573  68.234  1.00  0.00    -0.346 C  
HETATM   19  O   UNL     1     -10.939  19.484  67.364  1.00  0.00    -0.477 OA 
HETATM   20  C   UNL     1      -7.279  17.871  68.072  1.00  0.00    -0.220 C  
HETATM   21  C   UNL     1      -9.912  18.889  68.067  1.00  0.00    -0.358 C  
HETATM   22  O   UNL     1      -6.565  16.756  68.838  1.00  0.00    -0.166 OA 
HETATM   23  C   UNL     1      -8.484  17.342  68.871  1.00  0.00    -0.175 C  
HETATM   24  C   UNL     1      -9.630  17.541  68.037  1.00  0.00    -0.282 C  
ENDROOT
BRANCH  11  25
HETATM   25  C   UNL     1      -6.513  18.720  64.259  1.00  0.00     1.037 C  
BRANCH  25  26
HETATM   26  C   UNL     1      -5.829  19.768  63.360  1.00  0.00    -0.253 C  
HETATM   27  C   UNL     1      -6.043  21.260  63.585  1.00  0.00    -0.325 C  
HETATM   28  C   UNL     1      -6.569  20.622  62.340  1.00  0.00     0.254 C  
ENDBRANCH  25  26
ENDBRANCH  11  25
BRANCH  24  29
HETATM   29  C   UNL     1     -10.013  16.096  67.450  1.00  0.00    -0.247 C  
HETATM   30  N   UNL     1      -9.339  14.942  67.978  1.00  0.00    -0.190 N  
HETATM   31  O   UNL     1     -10.863  16.056  66.575  1.00  0.00    -0.276 OA 
HETATM   32  C   UNL     1      -9.554  13.441  67.683  1.00  0.00    -0.219 C  
HETATM   33  H   UNL     1      -8.603  15.147  68.654  1.00  0.00     0.000 HD 
HETATM   34  C   UNL     1      -8.571  12.439  68.503  1.00  0.00    -0.060 A  
HETATM   35  C   UNL     1      -9.294  13.157  66.193  1.00  0.00    -0.086 C  
HETATM   36  C   UNL     1     -10.995  13.013  68.041  1.00  0.00    -0.274 C  
HETATM   37  N   UNL     1      -8.751  11.239  68.851  1.00  0.00    -0.101 NA 
HETATM   38  C   UNL     1      -7.498  10.870  69.492  1.00  0.00    -0.077 A  
HETATM   39  O   UNL     1      -7.341  12.929  68.814  1.00  0.00    -0.109 OA 
HETATM   40  N   UNL     1      -6.646  11.915  69.457  1.00  0.00    -0.114 NA 
BRANCH  38  41
HETATM   41  C   UNL     1      -7.131   9.564  70.115  1.00  0.00    -0.099 A  
HETATM   42  C   UNL     1      -7.967   8.441  70.044  1.00  0.00    -0.109 A  
HETATM   43  C   UNL     1      -7.568   7.199  70.590  1.00  0.00    -0.092 A  
HETATM   44  C   UNL     1      -6.339   7.061  71.233  1.00  0.00    -0.041 A  
HETATM   45  C   UNL     1      -5.480   8.147  71.277  1.00  0.00    -0.033 A  
HETATM   46  C   UNL     1      -5.868   9.380  70.725  1.00  0.00    -0.058 A  
ENDBRANCH  38  41
ENDBRANCH  24  29
TORSDOF 4
ENDMDL
MODEL       71
REMARK 921   NORMALIZED FREE ENERGY PREDICTED BY IDOCK:    0.96 KCAL/MOL
REMARK 922        TOTAL FREE ENERGY PREDICTED BY IDOCK:   -0.57 KCAL/MOL
REMARK 923 INTER-LIGAND FREE ENERGY PREDICTED BY IDOCK:    1.00 KCAL/MOL
REMARK 924 INTRA-LIGAND FREE ENERGY PREDICTED BY IDOCK:   -1.57 KCAL/MOL
REMARK 927      BINDING AFFINITY PREDICTED BY RF-SCORE:    0.00 PKD
ROOT
HETATM    1  C   UNL     1      -8.860   4.614  69.413  1.00  0.00    -0.088 C  
HETATM    2  O   UNL     1      -9.012   4.092  70.807  1.00  0.00    -0.086 OA 
HETATM    3  C   UNL     1     -10.155   4.691  71.337  1.00  0.00    -0.178 A  
HETATM    4  C   UNL     1     -10.767   5.534  70.443  1.00  0.00    -0.321 A  
HETATM    5  C   UNL     1     -11.606   6.646  70.649  1.00  0.00    -0.439 A  
HETATM    6  C   UNL     1     -11.718   6.968  71.986  1.00  0.00    -0.332 A  
HETATM    7  C   UNL     1     -11.734   7.559  69.280  1.00  0.00     0.741 C  
HETATM    8  C   UNL     1     -10.395   7.848  68.198  1.00  0.00    -0.200 C  
HETATM    9  C   UNL     1     -11.238   6.041  72.973  1.00  0.00    -0.232 A  
HETATM   10  C   UNL     1     -10.522   4.858  72.644  1.00  0.00    -0.206 A  
HETATM   11  N   UNL     1     -10.973   7.227  66.915  1.00  0.00    -0.244 NA 
HETATM   12  C   UNL     1     -11.511   5.872  66.956  1.00  0.00     0.697 C  
HETATM   13  O   UNL     1     -10.117   3.993  73.612  1.00  0.00    -0.118 OA 
HETATM   14  H   UNL     1      -9.350   7.938  71.145  1.00  0.00     0.000 HD 
HETATM   15  C   UNL     1     -11.191   5.024  68.187  1.00  0.00     1.746 C  
HETATM   16  H   UNL     1      -5.878   5.088  67.896  1.00  0.00     0.000 HD 
HETATM   17  H   UNL     1     -10.372   4.108  74.519  1.00  0.00     0.000 HD 
HETATM   18  C   UNL     1     -10.038   5.589  69.179  1.00  0.00    -0.286 C  
HETATM   19  O   UNL     1      -6.686   4.646  68.129  1.00  0.00    -0.051 OA 
HETATM   20  C   UNL     1      -9.559   7.221  69.397  1.00  0.00    -0.154 C  
HETATM   21  C   UNL     1      -7.450   5.385  69.006  1.00  0.00    -0.074 C  
HETATM   22  O   UNL     1      -9.849   8.313  70.428  1.00  0.00    -0.184 OA 
HETATM   23  C   UNL     1      -8.258   7.108  70.214  1.00  0.00    -0.131 C  
HETATM   24  C   UNL     1      -7.241   6.718  69.285  1.00  0.00    -0.090 C  
ENDROOT
BRANCH  11  25
HETATM   25  C   UNL     1     -10.510   7.566  65.546  1.00  0.00     2.989 C  
BRANCH  25  26
HETATM   26  C   UNL     1      -9.182   6.853  65.224  1.00  0.00     0.520 C  
HETATM   27  C   UNL     1      -7.889   7.236  65.934  1.00  0.00    -0.106 C  
HETATM   28  C   UNL     1      -8.031   7.505  64.471  1.00  0.00    -0.122 C  
ENDBRANCH  25  26
ENDBRANCH  11  25
BRANCH  24  29
HETATM   29  C   UNL     1      -6.366   8.034  69.001  1.00  0.00    -0.040 C  
HETATM   30  N   UNL     1      -7.042   9.297  68.900  1.00  0.00    -0.067 N  
HETATM   31  O   UNL     1      -5.160   7.887  68.881  1.00  0.00    -0.022 OA 
HETATM   32  C   UNL     1      -6.471  10.723  68.726  1.00  0.00    -0.048 C  
HETATM   33  H   UNL     1      -8.059   9.245  68.951  1.00  0.00     0.000 HD 
HETATM   34  C   UNL     1      -7.590  11.900  68.656  1.00  0.00    -0.119 A  
HETATM   35  C   UNL     1      -5.684  10.814  67.407  1.00  0.00    -0.045 C  
HETATM   36  C   UNL     1      -5.540  11.087  69.903  1.00  0.00    -0.066 C  
HETATM   37  N   UNL     1      -7.497  13.119  68.968  1.00  0.00     0.020 NA 
HETATM   38  C   UNL     1      -8.801  13.668  68.625  1.00  0.00    -0.023 A  
HETATM   39  O   UNL     1      -8.794  11.551  68.128  1.00  0.00    -0.151 OA 
HETATM   40  N   UNL     1      -9.580  12.694  68.109  1.00  0.00    -0.216 NA 
BRANCH  38  41
HETATM   41  C   UNL     1      -9.282  15.071  68.785  1.00  0.00    -0.200 A  
HETATM   42  C   UNL     1     -10.292  15.415  69.694  1.00  0.00    -0.283 A  
HETATM   43  C   UNL     1     -10.687  16.762  69.870  1.00  0.00    -0.123 A  
HETATM   44  C   UNL     1     -10.097  17.784  69.128  1.00  0.00    -0.220 A  
HETATM   45  C   UNL     1      -9.068  17.471  68.255  1.00  0.00    -0.274 A  
HETATM   46  C   UNL     1      -8.664  16.135  68.086  1.00  0.00    -0.175 A  
ENDBRANCH  38  41
ENDBRANCH  24  29
TORSDOF 4
ENDMDL
MODEL       72
REMARK 921   NORMALIZED FREE ENERGY PREDICTED BY IDOCK:    1.21 KCAL/MOL
REMARK 922        TOTAL FREE ENERGY PREDICTED BY IDOCK:   -0.27 KCAL/MOL
REMARK 923 INTER-LIGAND FREE ENERGY PREDICTED BY IDOCK:    0.99 KCAL/MOL
REMARK 924 INTRA-LIGAND FREE ENERGY PREDICTED BY IDOCK:   -1.25 KCAL/MOL
REMARK 927      BINDING AFFINITY PREDICTED BY RF-SCORE:    0.00 PKD
ROOT
HETATM    1  C   UNL     1      -7.300   8.980  65.022  1.00  0.00    -0.096 C  
HETATM    2  O   UNL     1      -6.906   7.537  64.996  1.00  0.00    -0.046 OA 
HETATM    3  C   UNL     1      -8.064   6.800  65.244  1.00  0.00    -0.130 A  
HETATM    4  C   UNL     1      -9.166   7.600  65.418  1.00  0.00     0.338 A  
HETATM    5  C   UNL     1     -10.371   7.374  66.112  1.00  0.00     0.574 A  
HETATM    6  C   UNL     1     -10.352   6.180  66.803  1.00  0.00    -0.292 A  
HETATM    7  C   UNL     1     -11.185   8.786  66.371  1.00  0.00     1.943 C  
HETATM    8  C   UNL     1     -10.388  10.286  66.768  1.00  0.00    -0.227 C  
HETATM    9  C   UNL     1      -9.305   5.232  66.537  1.00  0.00    -0.146 A  
HETATM   10  C   UNL     1      -8.198   5.515  65.693  1.00  0.00    -0.127 A  
HETATM   11  N   UNL     1     -10.847  11.137  65.571  1.00  0.00    -0.188 NA 
HETATM   12  C   UNL     1     -10.661  10.625  64.218  1.00  0.00    -0.012 C  
HETATM   13  O   UNL     1      -7.248   4.574  65.445  1.00  0.00    -0.066 OA 
HETATM   14  H   UNL     1      -8.945   7.950  68.266  1.00  0.00     0.000 HD 
HETATM   15  C   UNL     1      -9.740   9.418  64.041  1.00  0.00     0.800 C  
HETATM   16  H   UNL     1      -5.267  11.468  66.069  1.00  0.00     0.000 HD 
HETATM   17  H   UNL     1      -7.340   3.681  65.756  1.00  0.00     0.000 HD 
HETATM   18  C   UNL     1      -8.819   9.014  65.315  1.00  0.00    -0.234 C  
HETATM   19  O   UNL     1      -5.705  10.889  65.456  1.00  0.00    -0.139 OA 
HETATM   20  C   UNL     1      -9.135   9.329  66.971  1.00  0.00    -0.130 C  
HETATM   21  C   UNL     1      -6.535   9.990  66.091  1.00  0.00    -0.086 C  
HETATM   22  O   UNL     1      -9.694   8.523  68.145  1.00  0.00    -0.148 OA 
HETATM   23  C   UNL     1      -7.802   8.988  67.663  1.00  0.00    -0.101 C  
HETATM   24  C   UNL     1      -6.929  10.093  67.407  1.00  0.00    -0.082 C  
ENDROOT
BRANCH  11  25
HETATM   25  C   UNL     1     -10.883  12.620  65.570  1.00  0.00    -0.279 C  
BRANCH  25  26
HETATM   26  C   UNL     1     -10.792  13.172  67.006  1.00  0.00    -0.278 C  
HETATM   27  C   UNL     1     -11.840  14.139  67.546  1.00  0.00    -0.437 C  
HETATM   28  C   UNL     1     -10.439  14.615  67.339  1.00  0.00    -0.255 C  
ENDBRANCH  25  26
ENDBRANCH  11  25
BRANCH  24  29
HETATM   29  C   UNL     1      -6.857  10.932  68.775  1.00  0.00    -0.070 C  
HETATM   30  N   UNL     1      -6.573  12.338  68.701  1.00  0.00    -0.072 N  
HETATM   31  O   UNL     1      -7.046  10.321  69.814  1.00  0.00    -0.106 OA 
HETATM   32  C   UNL     1      -6.529  13.406  69.817  1.00  0.00    -0.033 C  
HETATM   33  H   UNL     1      -6.367  12.686  67.764  1.00  0.00     0.000 HD 
HETATM   34  C   UNL     1      -6.166  14.906  69.309  1.00  0.00    -0.110 A  
HETATM   35  C   UNL     1      -5.450  13.040  70.850  1.00  0.00    -0.187 C  
HETATM   36  C   UNL     1      -7.898  13.514  70.525  1.00  0.00     3.307 C  
HETATM   37  N   UNL     1      -6.474  16.024  69.808  1.00  0.00    -0.189 NA 
HETATM   38  C   UNL     1      -5.808  16.988  68.946  1.00  0.00    -0.150 A  
HETATM   39  O   UNL     1      -5.356  14.990  68.219  1.00  0.00    -0.100 OA 
HETATM   40  N   UNL     1      -5.125  16.337  67.982  1.00  0.00    -0.105 NA 
BRANCH  38  41
HETATM   41  C   UNL     1      -5.824  18.477  69.043  1.00  0.00    -0.224 A  
HETATM   42  C   UNL     1      -5.441  19.154  70.211  1.00  0.00    -0.242 A  
HETATM   43  C   UNL     1      -5.407  20.567  70.256  1.00  0.00    -0.343 A  
HETATM   44  C   UNL     1      -5.773  21.328  69.147  1.00  0.00     0.009 A  
HETATM   45  C   UNL     1      -6.113  20.680  67.971  1.00  0.00    -0.336 A  
HETATM   46  C   UNL     1      -6.137  19.275  67.918  1.00  0.00    -0.218 A  
ENDBRANCH  38  41
ENDBRANCH  24  29
TORSDOF 4
ENDMDL
MODEL       73
REMARK 921   NORMALIZED FREE ENERGY PREDICTED BY IDOCK:    2.02 KCAL/MOL
REMARK 922        TOTAL FREE ENERGY PREDICTED BY IDOCK:    0.74 KCAL/MOL
REMARK 923 INTER-LIGAND FREE ENERGY PREDICTED BY IDOCK:    2.14 KCAL/MOL
REMARK 924 INTRA-LIGAND FREE ENERGY PREDICTED BY IDOCK:   -1.39 KCAL/MOL
REMARK 927      BINDING AFFINITY PREDICTED BY RF-SCORE:    0.00 PKD
ROOT
HETATM    1  C   UNL     1      -7.961  17.753  67.412  1.00  0.00    -0.211 C  
HETATM    2  O   UNL     1      -8.751  18.938  67.870  1.00  0.00    -0.286 OA 
HETATM    3  C   UNL     1      -9.288  18.605  69.114  1.00  0.00    -0.042 A  
HETATM    4  C   UNL     1      -8.929  17.344  69.519  1.00  0.00     0.604 A  
HETATM    5  C   UNL     1      -9.558  16.444  70.401  1.00  0.00     1.492 A  
HETATM    6  C   UNL     1     -10.787  16.907  70.821  1.00  0.00     0.634 A  
HETATM    7  C   UNL     1      -8.953  14.918  70.227  1.00  0.00     0.929 C  
HETATM    8  C   UNL     1      -8.516  14.236  68.682  1.00  0.00    -0.142 C  
HETATM    9  C   UNL     1     -11.147  18.274  70.564  1.00  0.00     3.098 A  
HETATM   10  C   UNL     1     -10.356  19.150  69.773  1.00  0.00     0.762 A  
HETATM   11  N   UNL     1      -7.023  13.969  68.940  1.00  0.00    -0.106 NA 
HETATM   12  C   UNL     1      -6.183  15.046  69.451  1.00  0.00    -0.115 C  
HETATM   13  O   UNL     1     -10.721  20.446  69.585  1.00  0.00    -0.454 OA 
HETATM   14  H   UNL     1     -11.132  15.916  68.340  1.00  0.00     0.000 HD 
HETATM   15  C   UNL     1      -6.751  16.464  69.407  1.00  0.00    -0.215 C  
HETATM   16  H   UNL     1      -7.605  16.867  64.170  1.00  0.00     0.000 HD 
HETATM   17  H   UNL     1     -11.462  20.824  70.043  1.00  0.00     0.000 HD 
HETATM   18  C   UNL     1      -8.093  16.682  68.521  1.00  0.00    -0.226 C  
HETATM   19  O   UNL     1      -7.381  17.267  65.002  1.00  0.00     1.300 OA 
HETATM   20  C   UNL     1      -9.286  15.514  68.132  1.00  0.00    -0.189 C  
HETATM   21  C   UNL     1      -8.351  17.056  65.959  1.00  0.00    -0.145 C  
HETATM   22  O   UNL     1     -10.672  15.152  68.668  1.00  0.00    -0.227 OA 
HETATM   23  C   UNL     1     -10.133  16.211  67.051  1.00  0.00    -0.270 C  
HETATM   24  C   UNL     1      -9.370  16.136  65.842  1.00  0.00    -0.316 C  
ENDROOT
BRANCH  11  25
HETATM   25  C   UNL     1      -6.211  12.985  68.182  1.00  0.00    -0.102 C  
BRANCH  25  26
HETATM   26  C   UNL     1      -5.714  11.856  69.106  1.00  0.00    -0.059 C  
HETATM   27  C   UNL     1      -5.956  10.392  68.761  1.00  0.00    -0.040 C  
HETATM   28  C   UNL     1      -6.633  10.987  69.953  1.00  0.00    -0.142 C  
ENDBRANCH  25  26
ENDBRANCH  11  25
BRANCH  24  29
HETATM   29  C   UNL     1     -10.060  14.995  64.946  1.00  0.00    -0.144 C  
HETATM   30  N   UNL     1      -9.843  13.621  65.303  1.00  0.00    -0.554 N  
HETATM   31  O   UNL     1     -10.737  15.362  64.000  1.00  0.00     0.406 OA 
HETATM   32  C   UNL     1     -10.437  12.328  64.699  1.00  0.00    -0.303 C  
HETATM   33  H   UNL     1      -9.194  13.475  66.077  1.00  0.00     0.000 HD 
HETATM   34  C   UNL     1      -9.929  10.953  65.400  1.00  0.00    -0.263 A  
HETATM   35  C   UNL     1     -10.041  12.214  63.216  1.00  0.00    -0.297 C  
HETATM   36  C   UNL     1     -11.977  12.326  64.818  1.00  0.00    -0.429 C  
HETATM   37  N   UNL     1     -10.502   9.833  65.487  1.00  0.00     0.085 NA 
HETATM   38  C   UNL     1      -9.528   8.992  66.165  1.00  0.00    -0.253 A  
HETATM   39  O   UNL     1      -8.674  10.977  65.924  1.00  0.00    -0.178 OA 
HETATM   40  N   UNL     1      -8.414   9.708  66.422  1.00  0.00    -0.122 NA 
BRANCH  38  41
HETATM   41  C   UNL     1      -9.658   7.557  66.553  1.00  0.00    -0.239 A  
HETATM   42  C   UNL     1      -8.676   6.606  66.241  1.00  0.00    -0.150 A  
HETATM   43  C   UNL     1      -8.796   5.265  66.673  1.00  0.00    -0.113 A  
HETATM   44  C   UNL     1      -9.906   4.845  67.405  1.00  0.00    -0.213 A  
HETATM   45  C   UNL     1     -10.867   5.778  67.761  1.00  0.00    -0.259 A  
HETATM   46  C   UNL     1     -10.745   7.114  67.343  1.00  0.00    -0.368 A  
ENDBRANCH  38  41
ENDBRANCH  24  29
TORSDOF 4
ENDMDL
MODEL       74
REMARK 921   NORMALIZED FREE ENERGY PREDICTED BY IDOCK:    2.57 KCAL/MOL
REMARK 922        TOTAL FREE ENERGY PREDICTED BY IDOCK:    1.42 KCAL/MOL
REMARK 923 INTER-LIGAND FREE ENERGY PREDICTED BY IDOCK:    2.79 KCAL/MOL
REMARK 924 INTRA-LIGAND FREE ENERGY PREDICTED BY IDOCK:   -1.37 KCAL/MOL
REMARK 927      BINDING AFFINITY PREDICTED BY RF-SCORE:    0.00 PKD
ROOT
HETATM    1  C   UNL     1     -11.320  15.777  67.136  1.00  0.00    -0.025 C  
HETATM    2  O   UNL     1     -11.536  17.215  67.488  1.00  0.00     0.366 OA 
HETATM    3  C   UNL     1     -10.346  17.672  68.054  1.00  0.00    -0.375 A  
HETATM    4  C   UNL     1      -9.380  16.698  68.100  1.00  0.00    -0.224 A  
HETATM    5  C   UNL     1      -8.266  16.543  68.947  1.00  0.00    -0.241 A  
HETATM    6  C   UNL     1      -8.242  17.492  69.947  1.00  0.00     1.643 A  
HETATM    7  C   UNL     1      -7.666  15.007  68.868  1.00  0.00    -0.152 C  
HETATM    8  C   UNL     1      -8.680  13.594  68.733  1.00  0.00     0.070 C  
HETATM    9  C   UNL     1      -9.124  18.623  69.862  1.00  0.00     1.202 A  
HETATM   10  C   UNL     1     -10.128  18.752  68.865  1.00  0.00    -0.307 A  
HETATM   11  N   UNL     1      -8.161  13.041  67.394  1.00  0.00    -0.178 NA 
HETATM   12  C   UNL     1      -8.096  13.924  66.235  1.00  0.00     1.340 C  
HETATM   13  O   UNL     1     -10.917  19.857  68.805  1.00  0.00    -0.128 OA 
HETATM   14  H   UNL     1     -10.036  15.624  70.688  1.00  0.00     0.000 HD 
HETATM   15  C   UNL     1      -8.836  15.258  66.322  1.00  0.00    -0.262 C  
HETATM   16  H   UNL     1     -13.756  13.435  67.209  1.00  0.00     0.000 HD 
HETATM   17  H   UNL     1     -10.766  20.607  69.368  1.00  0.00     0.000 HD 
HETATM   18  C   UNL     1      -9.872  15.435  67.559  1.00  0.00    -0.217 C  
HETATM   19  O   UNL     1     -13.172  14.086  66.837  1.00  0.00     0.798 OA 
HETATM   20  C   UNL     1      -9.829  14.638  69.076  1.00  0.00    -0.177 C  
HETATM   21  C   UNL     1     -12.340  14.642  67.785  1.00  0.00     0.135 C  
HETATM   22  O   UNL     1      -9.349  15.000  70.483  1.00  0.00     0.562 OA 
HETATM   23  C   UNL     1     -11.196  14.975  69.699  1.00  0.00    -0.296 C  
HETATM   24  C   UNL     1     -12.148  14.126  69.048  1.00  0.00    -0.348 C  
ENDROOT
BRANCH  11  25
HETATM   25  C   UNL     1      -8.299  11.626  66.969  1.00  0.00    -0.169 C  
BRANCH  25  26
HETATM   26  C   UNL     1      -6.933  10.913  66.984  1.00  0.00    -0.105 C  
HETATM   27  C   UNL     1      -6.598   9.876  68.049  1.00  0.00    -0.060 C  
HETATM   28  C   UNL     1      -5.854  11.171  68.026  1.00  0.00    -0.042 C  
ENDBRANCH  25  26
ENDBRANCH  11  25
BRANCH  24  29
HETATM   29  C   UNL     1     -12.508  12.968  70.101  1.00  0.00    -0.096 C  
HETATM   30  N   UNL     1     -11.968  11.655  69.885  1.00  0.00    -0.332 N  
HETATM   31  O   UNL     1     -13.232  13.270  71.036  1.00  0.00    -0.139 OA 
HETATM   32  C   UNL     1     -12.061  10.383  70.757  1.00  0.00    -0.364 C  
HETATM   33  H   UNL     1     -11.440  11.545  69.019  1.00  0.00     0.000 HD 
HETATM   34  C   UNL     1     -11.299   9.083  70.149  1.00  0.00    -0.121 A  
HETATM   35  C   UNL     1     -13.533   9.967  70.922  1.00  0.00    -0.179 C  
HETATM   36  C   UNL     1     -11.441  10.629  72.151  1.00  0.00     2.595 C  
HETATM   37  N   UNL     1     -10.798   8.090  70.745  1.00  0.00    -0.228 NA 
HETATM   38  C   UNL     1     -10.322   7.237  69.666  1.00  0.00    -0.221 A  
HETATM   39  O   UNL     1     -11.236   9.006  68.793  1.00  0.00     0.099 OA 
HETATM   40  N   UNL     1     -10.602   7.813  68.478  1.00  0.00    -0.160 NA 
BRANCH  38  41
HETATM   41  C   UNL     1      -9.625   5.922  69.768  1.00  0.00    -0.189 A  
HETATM   42  C   UNL     1      -9.245   5.372  71.001  1.00  0.00    -0.179 A  
HETATM   43  C   UNL     1      -8.641   4.095  71.074  1.00  0.00    -0.113 A  
HETATM   44  C   UNL     1      -8.387   3.356  69.920  1.00  0.00    -0.081 A  
HETATM   45  C   UNL     1      -8.793   3.862  68.696  1.00  0.00    -0.150 A  
HETATM   46  C   UNL     1      -9.405   5.126  68.620  1.00  0.00    -0.164 A  
ENDBRANCH  38  41
ENDBRANCH  24  29
TORSDOF 4
ENDMDL
MODEL       75
REMARK 921   NORMALIZED FREE ENERGY PREDICTED BY IDOCK:    2.80 KCAL/MOL
REMARK 922        TOTAL FREE ENERGY PREDICTED BY IDOCK:    1.70 KCAL/MOL
REMARK 923 INTER-LIGAND FREE ENERGY PREDICTED BY IDOCK:    3.26 KCAL/MOL
REMARK 924 INTRA-LIGAND FREE ENERGY PREDICTED BY IDOCK:   -1.56 KCAL/MOL
REMARK 927      BINDING AFFINITY PREDICTED BY RF-SCORE:    0.00 PKD
ROOT
HETATM    1  C   UNL     1      -9.252  16.252  66.380  1.00  0.00    -0.299 C  
HETATM    2  O   UNL     1     -10.032  16.302  65.104  1.00  0.00    -0.471 OA 
HETATM    3  C   UNL     1     -11.258  15.686  65.359  1.00  0.00    -0.184 A  
HETATM    4  C   UNL     1     -11.365  15.251  66.657  1.00  0.00    -0.170 A  
HETATM    5  C   UNL     1     -12.147  14.227  67.224  1.00  0.00    -0.390 A  
HETATM    6  C   UNL     1     -12.821  13.499  66.265  1.00  0.00     0.045 A  
HETATM    7  C   UNL     1     -11.607  13.830  68.733  1.00  0.00    -0.363 C  
HETATM    8  C   UNL     1      -9.916  13.772  69.155  1.00  0.00     0.176 C  
HETATM    9  C   UNL     1     -12.877  13.998  64.918  1.00  0.00    -0.210 A  
HETATM   10  C   UNL     1     -12.155  15.141  64.482  1.00  0.00    -0.301 A  
HETATM   11  N   UNL     1      -9.899  14.834  70.267  1.00  0.00     0.429 NA 
HETATM   12  C   UNL     1     -10.472  16.150  70.006  1.00  0.00    -0.215 C  
HETATM   13  O   UNL     1     -12.266  15.595  63.206  1.00  0.00    -0.229 OA 
HETATM   14  H   UNL     1     -10.277  12.614  66.272  1.00  0.00     0.000 HD 
HETATM   15  C   UNL     1     -10.775  16.512  68.552  1.00  0.00    -0.336 C  
HETATM   16  H   UNL     1      -5.885  15.989  66.518  1.00  0.00     0.000 HD 
HETATM   17  H   UNL     1     -12.889  15.217  62.597  1.00  0.00     0.000 HD 
HETATM   18  C   UNL     1     -10.150  15.535  67.416  1.00  0.00    -0.246 C  
HETATM   19  O   UNL     1      -6.735  16.413  66.523  1.00  0.00    -0.238 OA 
HETATM   20  C   UNL     1      -9.730  13.881  67.580  1.00  0.00    -0.232 C  
HETATM   21  C   UNL     1      -7.768  15.512  66.371  1.00  0.00     0.476 C  
HETATM   22  O   UNL     1     -10.387  12.549  67.213  1.00  0.00    -0.218 OA 
HETATM   23  C   UNL     1      -8.933  13.584  66.296  1.00  0.00     0.110 C  
HETATM   24  C   UNL     1      -7.632  14.147  66.499  1.00  0.00     1.415 C  
ENDROOT
BRANCH  11  25
HETATM   25  C   UNL     1      -8.861  14.915  71.324  1.00  0.00     3.648 C  
BRANCH  25  26
HETATM   26  C   UNL     1      -7.554  15.511  70.767  1.00  0.00     1.765 C  
HETATM   27  C   UNL     1      -6.579  14.659  69.963  1.00  0.00    -0.161 C  
HETATM   28  C   UNL     1      -6.171  15.173  71.305  1.00  0.00     0.517 C  
ENDBRANCH  25  26
ENDBRANCH  11  25
BRANCH  24  29
HETATM   29  C   UNL     1      -6.652  12.912  66.804  1.00  0.00     0.951 C  
HETATM   30  N   UNL     1      -7.150  11.579  66.609  1.00  0.00    -0.302 N  
HETATM   31  O   UNL     1      -5.526  13.177  67.193  1.00  0.00    -0.342 OA 
HETATM   32  C   UNL     1      -6.428  10.218  66.729  1.00  0.00    -0.073 C  
HETATM   33  H   UNL     1      -8.135  11.522  66.350  1.00  0.00     0.000 HD 
HETATM   34  C   UNL     1      -7.360   8.923  66.420  1.00  0.00    -0.088 A  
HETATM   35  C   UNL     1      -5.907  10.027  68.164  1.00  0.00    -0.042 C  
HETATM   36  C   UNL     1      -5.243  10.137  65.741  1.00  0.00    -0.050 C  
HETATM   37  N   UNL     1      -7.037   7.780  65.993  1.00  0.00    -0.064 NA 
HETATM   38  C   UNL     1      -8.292   7.043  65.984  1.00  0.00    -0.134 A  
HETATM   39  O   UNL     1      -8.681   9.052  66.719  1.00  0.00    -0.120 OA 
HETATM   40  N   UNL     1      -9.286   7.836  66.435  1.00  0.00    -0.178 NA 
BRANCH  38  41
HETATM   41  C   UNL     1      -8.529   5.632  65.560  1.00  0.00    -0.146 A  
HETATM   42  C   UNL     1      -9.742   4.973  65.804  1.00  0.00    -0.158 A  
HETATM   43  C   UNL     1      -9.963   3.656  65.338  1.00  0.00    -0.028 A  
HETATM   44  C   UNL     1      -8.971   2.968  64.640  1.00  0.00    -0.126 A  
HETATM   45  C   UNL     1      -7.782   3.616  64.352  1.00  0.00    -0.081 A  
HETATM   46  C   UNL     1      -7.563   4.929  64.803  1.00  0.00    -0.077 A  
ENDBRANCH  38  41
ENDBRANCH  24  29
TORSDOF 4
ENDMDL
MODEL       76
REMARK 921   NORMALIZED FREE ENERGY PREDICTED BY IDOCK:    3.72 KCAL/MOL
REMARK 922        TOTAL FREE ENERGY PREDICTED BY IDOCK:    2.84 KCAL/MOL
REMARK 923 INTER-LIGAND FREE ENERGY PREDICTED BY IDOCK:    3.43 KCAL/MOL
REMARK 924 INTRA-LIGAND FREE ENERGY PREDICTED BY IDOCK:   -0.59 KCAL/MOL
REMARK 927      BINDING AFFINITY PREDICTED BY RF-SCORE:    0.00 PKD
ROOT
HETATM    1  C   UNL     1     -11.247  14.314  67.259  1.00  0.00    -0.318 C  
HETATM    2  O   UNL     1     -12.559  14.607  67.915  1.00  0.00     0.136 OA 
HETATM    3  C   UNL     1     -12.291  15.460  68.985  1.00  0.00    -0.012 A  
HETATM    4  C   UNL     1     -10.956  15.761  69.092  1.00  0.00    -0.265 A  
HETATM    5  C   UNL     1     -10.185  16.159  70.202  1.00  0.00     0.053 A  
HETATM    6  C   UNL     1     -10.912  16.124  71.374  1.00  0.00     0.223 A  
HETATM    7  C   UNL     1      -8.572  15.992  69.899  1.00  0.00     0.541 C  
HETATM    8  C   UNL     1      -7.905  14.660  68.991  1.00  0.00    -0.133 C  
HETATM    9  C   UNL     1     -12.340  15.974  71.310  1.00  0.00    -0.360 A  
HETATM   10  C   UNL     1     -13.040  15.719  70.100  1.00  0.00     0.450 A  
HETATM   11  N   UNL     1      -7.257  15.444  67.837  1.00  0.00    -0.132 NA 
HETATM   12  C   UNL     1      -8.054  16.416  67.098  1.00  0.00    -0.181 C  
HETATM   13  O   UNL     1     -14.396  15.617  70.083  1.00  0.00     0.230 OA 
HETATM   14  H   UNL     1     -10.204  13.585  70.819  1.00  0.00     0.000 HD 
HETATM   15  C   UNL     1      -9.569  16.384  67.298  1.00  0.00    -0.235 C  
HETATM   16  H   UNL     1     -10.516  11.384  65.740  1.00  0.00     0.000 HD 
HETATM   17  H   UNL     1     -14.917  15.797  70.857  1.00  0.00     0.000 HD 
HETATM   18  C   UNL     1     -10.173  15.085  68.061  1.00  0.00    -0.228 C  
HETATM   19  O   UNL     1     -10.792  12.290  65.817  1.00  0.00    -0.262 OA 
HETATM   20  C   UNL     1      -9.368  14.067  69.181  1.00  0.00     0.262 C  
HETATM   21  C   UNL     1     -10.767  12.733  67.123  1.00  0.00    -0.245 C  
HETATM   22  O   UNL     1      -9.330  13.939  70.705  1.00  0.00     3.181 OA 
HETATM   23  C   UNL     1     -10.324  12.869  69.329  1.00  0.00     0.290 C  
HETATM   24  C   UNL     1     -10.141  12.069  68.156  1.00  0.00    -0.200 C  
ENDROOT
BRANCH  11  25
HETATM   25  C   UNL     1      -6.153  14.922  66.993  1.00  0.00     0.963 C  
BRANCH  25  26
HETATM   26  C   UNL     1      -6.291  13.400  66.790  1.00  0.00     1.600 C  
HETATM   27  C   UNL     1      -6.154  12.434  67.961  1.00  0.00    -0.075 C  
HETATM   28  C   UNL     1      -5.125  12.425  66.877  1.00  0.00     0.166 C  
ENDBRANCH  25  26
ENDBRANCH  11  25
BRANCH  24  29
HETATM   29  C   UNL     1      -9.270  10.799  68.611  1.00  0.00    -0.184 C  
HETATM   30  N   UNL     1      -9.477   9.549  67.934  1.00  0.00    -0.132 N  
HETATM   31  O   UNL     1      -8.473  10.966  69.520  1.00  0.00     0.001 OA 
HETATM   32  C   UNL     1      -8.739   8.200  68.084  1.00  0.00    -0.136 C  
HETATM   33  H   UNL     1     -10.229   9.553  67.245  1.00  0.00     0.000 HD 
HETATM   34  C   UNL     1      -9.285   7.014  67.117  1.00  0.00    -0.137 A  
HETATM   35  C   UNL     1      -8.895   7.675  69.522  1.00  0.00    -0.139 C  
HETATM   36  C   UNL     1      -7.236   8.358  67.760  1.00  0.00    -0.088 C  
HETATM   37  N   UNL     1      -8.681   6.005  66.657  1.00  0.00    -0.120 NA 
HETATM   38  C   UNL     1      -9.709   5.288  65.918  1.00  0.00    -0.105 A  
HETATM   39  O   UNL     1     -10.605   7.065  66.794  1.00  0.00    -0.281 OA 
HETATM   40  N   UNL     1     -10.881   5.949  66.016  1.00  0.00     0.245 NA 
BRANCH  38  41
HETATM   41  C   UNL     1      -9.574   4.018  65.147  1.00  0.00    -0.181 A  
HETATM   42  C   UNL     1      -8.602   3.056  65.457  1.00  0.00    -0.114 A  
HETATM   43  C   UNL     1      -8.535   1.833  64.749  1.00  0.00    -0.088 A  
HETATM   44  C   UNL     1      -9.422   1.558  63.709  1.00  0.00    -0.114 A  
HETATM   45  C   UNL     1     -10.417   2.476  63.415  1.00  0.00    -0.194 A  
HETATM   46  C   UNL     1     -10.494   3.688  64.124  1.00  0.00    -0.253 A  
ENDBRANCH  38  41
ENDBRANCH  24  29
TORSDOF 4
ENDMDL
MODEL       77
REMARK 921   NORMALIZED FREE ENERGY PREDICTED BY IDOCK:    4.38 KCAL/MOL
REMARK 922        TOTAL FREE ENERGY PREDICTED BY IDOCK:    3.65 KCAL/MOL
REMARK 923 INTER-LIGAND FREE ENERGY PREDICTED BY IDOCK:    4.52 KCAL/MOL
REMARK 924 INTRA-LIGAND FREE ENERGY PREDICTED BY IDOCK:   -0.87 KCAL/MOL
REMARK 927      BINDING AFFINITY PREDICTED BY RF-SCORE:    0.00 PKD
ROOT
HETATM    1  C   UNL     1     -10.084   8.193  67.459  1.00  0.00    -0.224 C  
HETATM    2  O   UNL     1     -10.538   7.584  66.171  1.00  0.00     0.442 OA 
HETATM    3  C   UNL     1      -9.853   6.377  66.034  1.00  0.00     0.213 A  
HETATM    4  C   UNL     1      -9.014   6.128  67.092  1.00  0.00    -0.111 A  
HETATM    5  C   UNL     1      -7.848   5.344  67.180  1.00  0.00    -0.101 A  
HETATM    6  C   UNL     1      -7.466   4.847  65.951  1.00  0.00    -0.082 A  
HETATM    7  C   UNL     1      -6.987   5.706  68.541  1.00  0.00    -0.064 C  
HETATM    8  C   UNL     1      -6.820   7.329  69.159  1.00  0.00    -0.061 C  
HETATM    9  C   UNL     1      -8.378   4.936  64.844  1.00  0.00    -0.138 A  
HETATM   10  C   UNL     1      -9.612   5.637  64.909  1.00  0.00     0.669 A  
HETATM   11  N   UNL     1      -7.459   7.134  70.545  1.00  0.00    -0.086 NA 
HETATM   12  C   UNL     1      -8.778   6.520  70.644  1.00  0.00    -0.144 C  
HETATM   13  O   UNL     1     -10.458   5.665  63.845  1.00  0.00     1.953 OA 
HETATM   14  H   UNL     1      -6.668   7.419  66.037  1.00  0.00     0.000 HD 
HETATM   15  C   UNL     1      -9.592   6.386  69.357  1.00  0.00    -0.152 C  
HETATM   16  H   UNL     1      -9.845  11.523  67.987  1.00  0.00     0.000 HD 
HETATM   17  H   UNL     1     -10.291   5.151  63.064  1.00  0.00     0.000 HD 
HETATM   18  C   UNL     1      -9.053   7.213  68.068  1.00  0.00    -0.132 C  
HETATM   19  O   UNL     1     -10.230  10.654  68.007  1.00  0.00    -0.165 OA 
HETATM   20  C   UNL     1      -7.444   7.710  67.748  1.00  0.00    -0.108 C  
HETATM   21  C   UNL     1      -9.413   9.708  67.425  1.00  0.00    -0.142 C  
HETATM   22  O   UNL     1      -6.296   7.191  66.881  1.00  0.00    -0.046 OA 
HETATM   23  C   UNL     1      -7.597   8.685  66.566  1.00  0.00    -0.088 C  
HETATM   24  C   UNL     1      -8.084   9.911  67.124  1.00  0.00    -0.117 C  
ENDROOT
BRANCH  11  25
HETATM   25  C   UNL     1      -7.205   8.018  71.710  1.00  0.00    -0.077 C  
BRANCH  25  26
HETATM   26  C   UNL     1      -6.211   7.364  72.689  1.00  0.00    -0.051 C  
HETATM   27  C   UNL     1      -5.963   5.860  72.671  1.00  0.00    -0.037 C  
HETATM   28  C   UNL     1      -6.629   6.481  73.856  1.00  0.00    -0.073 C  
ENDBRANCH  25  26
ENDBRANCH  11  25
BRANCH  24  29
HETATM   29  C   UNL     1      -6.833  10.918  67.151  1.00  0.00    -0.093 C  
HETATM   30  N   UNL     1      -7.091  12.331  67.155  1.00  0.00    -0.288 N  
HETATM   31  O   UNL     1      -5.718  10.422  67.165  1.00  0.00    -0.044 OA 
HETATM   32  C   UNL     1      -6.115  13.523  67.269  1.00  0.00     0.334 C  
HETATM   33  H   UNL     1      -8.075  12.587  67.069  1.00  0.00     0.000 HD 
HETATM   34  C   UNL     1      -6.820  14.986  67.235  1.00  0.00    -0.003 A  
HETATM   35  C   UNL     1      -5.127  13.505  66.089  1.00  0.00     4.358 C  
HETATM   36  C   UNL     1      -5.326  13.459  68.596  1.00  0.00    -0.075 C  
HETATM   37  N   UNL     1      -6.434  16.079  67.734  1.00  0.00    -0.142 NA 
HETATM   38  C   UNL     1      -7.449  17.034  67.315  1.00  0.00    -0.163 A  
HETATM   39  O   UNL     1      -7.969  15.081  66.513  1.00  0.00     0.051 OA 
HETATM   40  N   UNL     1      -8.378  16.405  66.565  1.00  0.00    -0.272 NA 
BRANCH  38  41
HETATM   41  C   UNL     1      -7.526  18.492  67.620  1.00  0.00    -0.236 A  
HETATM   42  C   UNL     1      -8.695  19.238  67.411  1.00  0.00    -0.326 A  
HETATM   43  C   UNL     1      -8.760  20.606  67.766  1.00  0.00    -0.123 A  
HETATM   44  C   UNL     1      -7.656  21.256  68.315  1.00  0.00     1.026 A  
HETATM   45  C   UNL     1      -6.506  20.527  68.569  1.00  0.00    -0.310 A  
HETATM   46  C   UNL     1      -6.441  19.165  68.229  1.00  0.00    -0.254 A  
ENDBRANCH  38  41
ENDBRANCH  24  29
TORSDOF 4
ENDMDL
MODEL       78
REMARK 921   NORMALIZED FREE ENERGY PREDICTED BY IDOCK:    4.40 KCAL/MOL
REMARK 922        TOTAL FREE ENERGY PREDICTED BY IDOCK:    3.67 KCAL/MOL
REMARK 923 INTER-LIGAND FREE ENERGY PREDICTED BY IDOCK:    5.09 KCAL/MOL
REMARK 924 INTRA-LIGAND FREE ENERGY PREDICTED BY IDOCK:   -1.42 KCAL/MOL
REMARK 927      BINDING AFFINITY PREDICTED BY RF-SCORE:    0.00 PKD
ROOT
HETATM    1  C   UNL     1     -10.931   7.628  69.169  1.00  0.00     0.021 C  
HETATM    2  O   UNL     1      -9.928   6.543  69.398  1.00  0.00    -0.154 OA 
HETATM    3  C   UNL     1      -8.980   7.053  70.286  1.00  0.00    -0.149 A  
HETATM    4  C   UNL     1      -9.261   8.342  70.666  1.00  0.00    -0.177 A  
HETATM    5  C   UNL     1      -8.418   9.371  71.130  1.00  0.00     0.069 A  
HETATM    6  C   UNL     1      -7.087   9.013  71.075  1.00  0.00    -0.103 A  
HETATM    7  C   UNL     1      -9.170  10.838  71.051  1.00  0.00     4.175 C  
HETATM    8  C   UNL     1     -10.228  11.298  69.742  1.00  0.00     0.489 C  
HETATM    9  C   UNL     1      -6.740   7.638  70.841  1.00  0.00    -0.042 A  
HETATM   10  C   UNL     1      -7.699   6.638  70.523  1.00  0.00    -0.104 A  
HETATM   11  N   UNL     1     -11.521  11.541  70.540  1.00  0.00    -0.010 NA 
HETATM   12  C   UNL     1     -12.003  10.508  71.450  1.00  0.00    -0.230 C  
HETATM   13  O   UNL     1      -7.326   5.343  70.343  1.00  0.00    -0.066 OA 
HETATM   14  H   UNL     1      -7.817   9.686  68.571  1.00  0.00     0.000 HD 
HETATM   15  C   UNL     1     -11.378   9.118  71.334  1.00  0.00    -0.414 C  
HETATM   16  H   UNL     1     -12.590   8.073  66.258  1.00  0.00     0.000 HD 
HETATM   17  H   UNL     1      -6.437   5.055  70.507  1.00  0.00     0.000 HD 
HETATM   18  C   UNL     1     -10.471   8.837  70.017  1.00  0.00    -0.222 C  
HETATM   19  O   UNL     1     -12.439   7.776  67.148  1.00  0.00     5.271 OA 
HETATM   20  C   UNL     1      -9.626   9.989  69.069  1.00  0.00    -0.196 C  
HETATM   21  C   UNL     1     -11.195   8.146  67.616  1.00  0.00     0.658 C  
HETATM   22  O   UNL     1      -8.177  10.469  68.973  1.00  0.00    -0.127 OA 
HETATM   23  C   UNL     1      -9.208   9.191  67.820  1.00  0.00    -0.145 C  
HETATM   24  C   UNL     1     -10.384   9.079  67.010  1.00  0.00    -0.339 C  
ENDROOT
BRANCH  11  25
HETATM   25  C   UNL     1     -12.644  12.387  70.066  1.00  0.00     0.175 C  
BRANCH  25  26
HETATM   26  C   UNL     1     -12.312  13.883  70.233  1.00  0.00    -0.413 C  
HETATM   27  C   UNL     1     -11.636  14.404  71.495  1.00  0.00     0.089 C  
HETATM   28  C   UNL     1     -13.042  14.811  71.194  1.00  0.00    -0.443 C  
ENDBRANCH  25  26
ENDBRANCH  11  25
BRANCH  24  29
HETATM   29  C   UNL     1     -10.194  10.120  65.802  1.00  0.00    -0.213 C  
HETATM   30  N   UNL     1     -10.336  11.523  66.078  1.00  0.00    -0.238 N  
HETATM   31  O   UNL     1      -9.940   9.657  64.702  1.00  0.00    -0.054 OA 
HETATM   32  C   UNL     1     -10.125  12.746  65.157  1.00  0.00    -0.227 C  
HETATM   33  H   UNL     1     -10.620  11.746  67.031  1.00  0.00     0.000 HD 
HETATM   34  C   UNL     1     -10.391  14.184  65.866  1.00  0.00    -0.316 A  
HETATM   35  C   UNL     1     -11.097  12.679  63.967  1.00  0.00    -0.453 C  
HETATM   36  C   UNL     1      -8.674  12.791  64.629  1.00  0.00     2.373 C  
HETATM   37  N   UNL     1      -9.906  15.318  65.596  1.00  0.00    -0.348 NA 
HETATM   38  C   UNL     1     -10.571  16.214  66.529  1.00  0.00    -0.268 A  
HETATM   39  O   UNL     1     -11.318  14.200  66.860  1.00  0.00    -0.307 OA 
HETATM   40  N   UNL     1     -11.434  15.513  67.292  1.00  0.00    -0.182 NA 
BRANCH  38  41
HETATM   41  C   UNL     1     -10.387  17.687  66.684  1.00  0.00    -0.333 A  
HETATM   42  C   UNL     1     -10.355  18.555  65.583  1.00  0.00    -0.065 A  
HETATM   43  C   UNL     1     -10.240  19.954  65.761  1.00  0.00    -0.486 A  
HETATM   44  C   UNL     1     -10.134  20.507  67.036  1.00  0.00    -0.416 A  
HETATM   45  C   UNL     1     -10.206  19.671  68.138  1.00  0.00    -0.580 A  
HETATM   46  C   UNL     1     -10.332  18.281  67.966  1.00  0.00    -0.410 A  
ENDBRANCH  38  41
ENDBRANCH  24  29
TORSDOF 4
ENDMDL
MODEL       79
REMARK 921   NORMALIZED FREE ENERGY PREDICTED BY IDOCK:    4.76 KCAL/MOL
REMARK 922        TOTAL FREE ENERGY PREDICTED BY IDOCK:    4.12 KCAL/MOL
REMARK 923 INTER-LIGAND FREE ENERGY PREDICTED BY IDOCK:    3.77 KCAL/MOL
REMARK 924 INTRA-LIGAND FREE ENERGY PREDICTED BY IDOCK:    0.35 KCAL/MOL
REMARK 927      BINDING AFFINITY PREDICTED BY RF-SCORE:    0.00 PKD
ROOT
HETATM    1  C   UNL     1      -7.535   4.695  70.009  1.00  0.00    -0.054 C  
HETATM    2  O   UNL     1      -8.064   4.514  71.396  1.00  0.00    -0.090 OA 
HETATM    3  C   UNL     1      -9.455   4.560  71.305  1.00  0.00    -0.158 A  
HETATM    4  C   UNL     1      -9.889   4.741  70.015  1.00  0.00    -0.297 A  
HETATM    5  C   UNL     1     -11.084   5.290  69.512  1.00  0.00     0.603 A  
HETATM    6  C   UNL     1     -11.873   5.816  70.514  1.00  0.00     0.727 A  
HETATM    7  C   UNL     1     -10.943   5.661  67.910  1.00  0.00    -0.017 C  
HETATM    8  C   UNL     1      -9.487   6.321  67.209  1.00  0.00    -0.119 C  
HETATM    9  C   UNL     1     -11.555   5.521  71.884  1.00  0.00     0.011 A  
HETATM   10  C   UNL     1     -10.382   4.822  72.276  1.00  0.00    -0.201 A  
HETATM   11  N   UNL     1      -9.175   5.211  66.190  1.00  0.00    -0.146 NA 
HETATM   12  C   UNL     1      -9.125   3.824  66.638  1.00  0.00    -0.157 C  
HETATM   13  O   UNL     1     -10.141   4.536  73.583  1.00  0.00    -0.142 OA 
HETATM   14  H   UNL     1      -9.933   7.618  70.020  1.00  0.00     0.000 HD 
HETATM   15  C   UNL     1      -9.074   3.571  68.145  1.00  0.00    -0.200 C  
HETATM   16  H   UNL     1      -4.613   6.236  69.294  1.00  0.00     0.000 HD 
HETATM   17  H   UNL     1     -10.784   4.717  74.258  1.00  0.00     0.000 HD 
HETATM   18  C   UNL     1      -8.767   4.857  69.087  1.00  0.00    -0.106 C  
HETATM   19  O   UNL     1      -5.210   5.516  69.462  1.00  0.00    -0.003 OA 
HETATM   20  C   UNL     1      -9.082   6.505  68.735  1.00  0.00    -0.126 C  
HETATM   21  C   UNL     1      -6.493   5.952  69.717  1.00  0.00    -0.042 C  
HETATM   22  O   UNL     1     -10.175   7.509  69.108  1.00  0.00    -0.191 OA 
HETATM   23  C   UNL     1      -8.324   7.260  69.843  1.00  0.00    -0.135 C  
HETATM   24  C   UNL     1      -6.943   7.230  69.469  1.00  0.00    -0.057 C  
ENDROOT
BRANCH  11  25
HETATM   25  C   UNL     1      -8.333   5.403  64.984  1.00  0.00    -0.145 C  
BRANCH  25  26
HETATM   26  C   UNL     1      -8.169   4.080  64.213  1.00  0.00    -0.091 C  
HETATM   27  C   UNL     1      -9.200   3.635  63.182  1.00  0.00    -0.102 C  
HETATM   28  C   UNL     1      -9.038   2.851  64.443  1.00  0.00    -0.120 C  
ENDBRANCH  25  26
ENDBRANCH  11  25
BRANCH  24  29
HETATM   29  C   UNL     1      -6.597   8.698  68.916  1.00  0.00    -0.053 C  
HETATM   30  N   UNL     1      -7.600   9.721  69.018  1.00  0.00    -0.079 N  
HETATM   31  O   UNL     1      -5.490   8.864  68.430  1.00  0.00    -0.037 OA 
HETATM   32  C   UNL     1      -7.530  11.223  68.663  1.00  0.00    -0.118 C  
HETATM   33  H   UNL     1      -8.499   9.406  69.382  1.00  0.00     0.000 HD 
HETATM   34  C   UNL     1      -8.903  12.050  68.932  1.00  0.00     0.213 A  
HETATM   35  C   UNL     1      -7.224  11.394  67.164  1.00  0.00    -0.134 C  
HETATM   36  C   UNL     1      -6.435  11.932  69.491  1.00  0.00    -0.113 C  
HETATM   37  N   UNL     1      -9.069  13.275  69.188  1.00  0.00     0.489 NA 
HETATM   38  C   UNL     1     -10.515  13.424  69.260  1.00  0.00     0.164 A  
HETATM   39  O   UNL     1     -10.060  11.347  68.805  1.00  0.00    -0.205 OA 
HETATM   40  N   UNL     1     -11.105  12.235  69.019  1.00  0.00    -0.244 NA 
BRANCH  38  41
HETATM   41  C   UNL     1     -11.302  14.658  69.548  1.00  0.00    -0.314 A  
HETATM   42  C   UNL     1     -11.150  15.833  68.798  1.00  0.00    -0.321 A  
HETATM   43  C   UNL     1     -11.952  16.970  69.053  1.00  0.00     1.545 A  
HETATM   44  C   UNL     1     -12.902  16.962  70.073  1.00  0.00     4.898 A  
HETATM   45  C   UNL     1     -13.097  15.798  70.798  1.00  0.00    -0.158 A  
HETATM   46  C   UNL     1     -12.311  14.662  70.540  1.00  0.00    -0.400 A  
ENDBRANCH  38  41
ENDBRANCH  24  29
TORSDOF 4
ENDMDL
MODEL       80
REMARK 921   NORMALIZED FREE ENERGY PREDICTED BY IDOCK:    5.05 KCAL/MOL
REMARK 922        TOTAL FREE ENERGY PREDICTED BY IDOCK:    4.48 KCAL/MOL
REMARK 923 INTER-LIGAND FREE ENERGY PREDICTED BY IDOCK:    5.61 KCAL/MOL
REMARK 924 INTRA-LIGAND FREE ENERGY PREDICTED BY IDOCK:   -1.12 KCAL/MOL
REMARK 927      BINDING AFFINITY PREDICTED BY RF-SCORE:    0.00 PKD
ROOT
HETATM    1  C   UNL     1      -8.302  17.197  66.439  1.00  0.00    -0.280 C  
HETATM    2  O   UNL     1      -9.218  18.281  65.970  1.00  0.00    -0.508 OA 
HETATM    3  C   UNL     1      -9.365  19.171  67.035  1.00  0.00    -0.309 A  
HETATM    4  C   UNL     1      -8.640  18.791  68.138  1.00  0.00    -0.338 A  
HETATM    5  C   UNL     1      -8.824  19.074  69.505  1.00  0.00     0.358 A  
HETATM    6  C   UNL     1      -9.998  19.761  69.737  1.00  0.00     0.120 A  
HETATM    7  C   UNL     1      -7.939  18.051  70.450  1.00  0.00     3.256 C  
HETATM    8  C   UNL     1      -7.722  16.360  70.080  1.00  0.00     1.042 C  
HETATM    9  C   UNL     1     -10.713  20.322  68.624  1.00  0.00     0.243 A  
HETATM   10  C   UNL     1     -10.349  20.091  67.270  1.00  0.00    -0.410 A  
HETATM   11  N   UNL     1      -6.189  16.328  69.949  1.00  0.00    -0.192 NA 
HETATM   12  C   UNL     1      -5.527  17.289  69.073  1.00  0.00    -0.155 C  
HETATM   13  O   UNL     1     -11.037  20.671  66.251  1.00  0.00     0.801 OA 
HETATM   14  H   UNL     1     -10.662  17.173  69.392  1.00  0.00     0.000 HD 
HETATM   15  C   UNL     1      -6.402  18.069  68.093  1.00  0.00    -0.185 C  
HETATM   16  H   UNL     1      -8.502  13.985  65.404  1.00  0.00     0.000 HD 
HETATM   17  H   UNL     1     -11.721  21.310  66.414  1.00  0.00     0.000 HD 
HETATM   18  C   UNL     1      -7.925  17.541  67.900  1.00  0.00    -0.227 C  
HETATM   19  O   UNL     1      -8.192  14.883  65.431  1.00  0.00     2.540 OA 
HETATM   20  C   UNL     1      -8.871  16.655  69.022  1.00  0.00    -0.201 C  
HETATM   21  C   UNL     1      -8.841  15.630  66.392  1.00  0.00    -0.330 C  
HETATM   22  O   UNL     1      -9.975  16.996  70.024  1.00  0.00     0.306 OA 
HETATM   23  C   UNL     1     -10.081  16.194  68.188  1.00  0.00    -0.237 C  
HETATM   24  C   UNL     1      -9.619  15.095  67.395  1.00  0.00    -0.208 C  
ENDROOT
BRANCH  11  25
HETATM   25  C   UNL     1      -5.367  15.102  70.098  1.00  0.00    -0.121 C  
BRANCH  25  26
HETATM   26  C   UNL     1      -6.203  13.842  69.803  1.00  0.00    -0.126 C  
HETATM   27  C   UNL     1      -7.184  13.289  70.829  1.00  0.00     2.793 C  
HETATM   28  C   UNL     1      -5.970  12.494  70.472  1.00  0.00    -0.044 C  
ENDBRANCH  25  26
ENDBRANCH  11  25
BRANCH  24  29
HETATM   29  C   UNL     1     -10.212  13.769  68.081  1.00  0.00    -0.253 C  
HETATM   30  N   UNL     1      -9.705  12.494  67.657  1.00  0.00    -0.192 N  
HETATM   31  O   UNL     1     -11.074  13.919  68.932  1.00  0.00    -0.248 OA 
HETATM   32  C   UNL     1     -10.009  11.074  68.186  1.00  0.00    -0.177 C  
HETATM   33  H   UNL     1      -9.039  12.532  66.885  1.00  0.00     0.000 HD 
HETATM   34  C   UNL     1      -9.214   9.879  67.424  1.00  0.00    -0.134 A  
HETATM   35  C   UNL     1     -11.505  10.760  68.012  1.00  0.00    -0.333 C  
HETATM   36  C   UNL     1      -9.633  10.954  69.679  1.00  0.00     0.259 C  
HETATM   37  N   UNL     1      -8.872   8.740  67.847  1.00  0.00    -0.136 NA 
HETATM   38  C   UNL     1      -8.254   8.108  66.691  1.00  0.00    -0.103 A  
HETATM   39  O   UNL     1      -8.917  10.097  66.114  1.00  0.00    -0.145 OA 
HETATM   40  N   UNL     1      -8.294   8.952  65.639  1.00  0.00    -0.130 NA 
BRANCH  38  41
HETATM   41  C   UNL     1      -7.649   6.748  66.597  1.00  0.00    -0.086 A  
HETATM   42  C   UNL     1      -8.377   5.585  66.884  1.00  0.00    -0.108 A  
HETATM   43  C   UNL     1      -7.797   4.304  66.729  1.00  0.00    -0.097 A  
HETATM   44  C   UNL     1      -6.476   4.163  66.305  1.00  0.00    -0.037 A  
HETATM   45  C   UNL     1      -5.753   5.297  65.976  1.00  0.00    -0.018 A  
HETATM   46  C   UNL     1      -6.329   6.572  66.118  1.00  0.00    -0.042 A  
ENDBRANCH  38  41
ENDBRANCH  24  29
TORSDOF 4
ENDMDL
MODEL       81
REMARK 921   NORMALIZED FREE ENERGY PREDICTED BY IDOCK:    5.35 KCAL/MOL
REMARK 922        TOTAL FREE ENERGY PREDICTED BY IDOCK:    4.84 KCAL/MOL
REMARK 923 INTER-LIGAND FREE ENERGY PREDICTED BY IDOCK:    5.86 KCAL/MOL
REMARK 924 INTRA-LIGAND FREE ENERGY PREDICTED BY IDOCK:   -1.02 KCAL/MOL
REMARK 927      BINDING AFFINITY PREDICTED BY RF-SCORE:    0.00 PKD
ROOT
HETATM    1  C   UNL     1      -9.660   2.723  68.720  1.00  0.00     0.001 C  
HETATM    2  O   UNL     1      -9.991   2.129  67.388  1.00  0.00     0.442 OA 
HETATM    3  C   UNL     1      -8.940   2.456  66.531  1.00  0.00    -0.118 A  
HETATM    4  C   UNL     1      -7.961   3.185  67.158  1.00  0.00    -0.078 A  
HETATM    5  C   UNL     1      -7.011   4.089  66.644  1.00  0.00    -0.059 A  
HETATM    6  C   UNL     1      -7.203   4.330  65.299  1.00  0.00    -0.071 A  
HETATM    7  C   UNL     1      -6.347   5.005  67.845  1.00  0.00    -0.040 C  
HETATM    8  C   UNL     1      -7.265   5.608  69.201  1.00  0.00    -0.070 C  
HETATM    9  C   UNL     1      -8.099   3.487  64.557  1.00  0.00    -0.086 A  
HETATM   10  C   UNL     1      -8.913   2.493  65.164  1.00  0.00    -0.133 A  
HETATM   11  N   UNL     1      -6.494   4.929  70.346  1.00  0.00    -0.030 NA 
HETATM   12  C   UNL     1      -6.256   3.491  70.293  1.00  0.00    -0.023 C  
HETATM   13  O   UNL     1      -9.721   1.696  64.416  1.00  0.00    -0.207 OA 
HETATM   14  H   UNL     1      -9.027   5.804  66.624  1.00  0.00     0.000 HD 
HETATM   15  C   UNL     1      -7.051   2.682  69.268  1.00  0.00    -0.044 C  
HETATM   16  H   UNL     1     -11.976   3.867  70.900  1.00  0.00     0.000 HD 
HETATM   17  H   UNL     1      -9.702   1.721  63.466  1.00  0.00     0.000 HD 
HETATM   18  C   UNL     1      -8.298   3.439  68.556  1.00  0.00    -0.094 C  
HETATM   19  O   UNL     1     -11.361   3.257  70.509  1.00  0.00     4.557 OA 
HETATM   20  C   UNL     1      -8.496   5.126  68.319  1.00  0.00    -0.095 C  
HETATM   21  C   UNL     1     -10.734   3.787  69.402  1.00  0.00     2.710 C  
HETATM   22  O   UNL     1      -8.291   6.093  67.152  1.00  0.00    -0.106 OA 
HETATM   23  C   UNL     1      -9.965   5.256  67.875  1.00  0.00    -0.206 C  
HETATM   24  C   UNL     1     -10.751   5.122  69.064  1.00  0.00     0.097 C  
ENDROOT
BRANCH  11  25
HETATM   25  C   UNL     1      -6.498   5.408  71.751  1.00  0.00    -0.040 C  
BRANCH  25  26
HETATM   26  C   UNL     1      -7.013   6.858  71.834  1.00  0.00    -0.069 C  
HETATM   27  C   UNL     1      -7.854   7.328  73.015  1.00  0.00    -0.113 C  
HETATM   28  C   UNL     1      -8.473   7.250  71.657  1.00  0.00    -0.114 C  
ENDBRANCH  25  26
ENDBRANCH  11  25
BRANCH  24  29
HETATM   29  C   UNL     1     -11.249   6.602  69.442  1.00  0.00    -0.299 C  
HETATM   30  N   UNL     1     -10.359   7.705  69.204  1.00  0.00    -0.211 N  
HETATM   31  O   UNL     1     -12.367   6.710  69.918  1.00  0.00     0.013 OA 
HETATM   32  C   UNL     1     -10.585   9.223  69.376  1.00  0.00    -0.223 C  
HETATM   33  H   UNL     1      -9.432   7.443  68.869  1.00  0.00     0.000 HD 
HETATM   34  C   UNL     1      -9.307  10.150  68.991  1.00  0.00    -0.188 A  
HETATM   35  C   UNL     1     -10.907   9.541  70.847  1.00  0.00    -0.407 C  
HETATM   36  C   UNL     1     -11.749   9.708  68.483  1.00  0.00     0.699 C  
HETATM   37  N   UNL     1      -9.270  11.345  68.587  1.00  0.00    -0.174 NA 
HETATM   38  C   UNL     1      -7.848  11.634  68.478  1.00  0.00    -0.140 A  
HETATM   39  O   UNL     1      -8.082   9.592  69.186  1.00  0.00    -0.094 OA 
HETATM   40  N   UNL     1      -7.137  10.550  68.853  1.00  0.00    -0.068 NA 
BRANCH  38  41
HETATM   41  C   UNL     1      -7.195  12.899  68.033  1.00  0.00    -0.115 A  
HETATM   42  C   UNL     1      -7.778  14.156  68.248  1.00  0.00    -0.139 A  
HETATM   43  C   UNL     1      -7.110  15.344  67.871  1.00  0.00    -0.156 A  
HETATM   44  C   UNL     1      -5.861  15.298  67.254  1.00  0.00     0.280 A  
HETATM   45  C   UNL     1      -5.249  14.069  67.070  1.00  0.00     1.190 A  
HETATM   46  C   UNL     1      -5.904  12.886  67.455  1.00  0.00    -0.115 A  
ENDBRANCH  38  41
ENDBRANCH  24  29
TORSDOF 4
ENDMDL
MODEL       82
REMARK 921   NORMALIZED FREE ENERGY PREDICTED BY IDOCK:    5.69 KCAL/MOL
REMARK 922        TOTAL FREE ENERGY PREDICTED BY IDOCK:    5.26 KCAL/MOL
REMARK 923 INTER-LIGAND FREE ENERGY PREDICTED BY IDOCK:    5.97 KCAL/MOL
REMARK 924 INTRA-LIGAND FREE ENERGY PREDICTED BY IDOCK:   -0.70 KCAL/MOL
REMARK 927      BINDING AFFINITY PREDICTED BY RF-SCORE:    0.00 PKD
ROOT
HETATM    1  C   UNL     1      -6.439  15.656  67.446  1.00  0.00    -0.138 C  
HETATM    2  O   UNL     1      -6.926  16.746  66.546  1.00  0.00    -0.223 OA 
HETATM    3  C   UNL     1      -7.788  17.538  67.306  1.00  0.00    -0.203 A  
HETATM    4  C   UNL     1      -7.906  17.090  68.599  1.00  0.00    -0.257 A  
HETATM    5  C   UNL     1      -8.942  17.251  69.539  1.00  0.00     0.568 A  
HETATM    6  C   UNL     1     -10.043  17.878  68.993  1.00  0.00    -0.292 A  
HETATM    7  C   UNL     1      -8.787  16.181  70.786  1.00  0.00     3.146 C  
HETATM    8  C   UNL     1      -8.252  14.535  70.568  1.00  0.00     1.883 C  
HETATM    9  C   UNL     1      -9.925  18.508  67.707  1.00  0.00    -0.369 A  
HETATM   10  C   UNL     1      -8.764  18.403  66.894  1.00  0.00    -0.272 A  
HETATM   11  N   UNL     1      -6.992  14.563  71.450  1.00  0.00     1.127 NA 
HETATM   12  C   UNL     1      -6.002  15.614  71.247  1.00  0.00     0.600 C  
HETATM   13  O   UNL     1      -8.686  19.045  65.698  1.00  0.00    -0.302 OA 
HETATM   14  H   UNL     1     -10.129  15.309  68.189  1.00  0.00     0.000 HD 
HETATM   15  C   UNL     1      -6.108  16.446  69.970  1.00  0.00    -0.151 C  
HETATM   16  H   UNL     1      -5.679  12.538  66.383  1.00  0.00     0.000 HD 
HETATM   17  H   UNL     1      -9.364  19.645  65.412  1.00  0.00     0.000 HD 
HETATM   18  C   UNL     1      -7.109  15.888  68.821  1.00  0.00    -0.138 C  
HETATM   19  O   UNL     1      -5.530  13.440  66.642  1.00  0.00     0.756 OA 
HETATM   20  C   UNL     1      -8.480  14.881  69.033  1.00  0.00    -0.178 C  
HETATM   21  C   UNL     1      -6.699  14.082  66.994  1.00  0.00     0.872 C  
HETATM   22  O   UNL     1      -9.992  15.101  69.106  1.00  0.00    -0.220 OA 
HETATM   23  C   UNL     1      -8.838  14.454  67.597  1.00  0.00    -0.193 C  
HETATM   24  C   UNL     1      -7.893  13.440  67.239  1.00  0.00    -0.107 C  
ENDROOT
BRANCH  11  25
HETATM   25  C   UNL     1      -6.361  13.355  72.038  1.00  0.00     1.981 C  
BRANCH  25  26
HETATM   26  C   UNL     1      -5.182  12.874  71.171  1.00  0.00    -0.173 C  
HETATM   27  C   UNL     1      -5.261  12.902  69.649  1.00  0.00    -0.076 C  
HETATM   28  C   UNL     1      -5.198  11.588  70.357  1.00  0.00    -0.105 C  
ENDBRANCH  25  26
ENDBRANCH  11  25
BRANCH  24  29
HETATM   29  C   UNL     1      -8.681  12.043  67.324  1.00  0.00    -0.175 C  
HETATM   30  N   UNL     1      -8.152  11.010  68.170  1.00  0.00    -0.116 N  
HETATM   31  O   UNL     1      -9.695  11.933  66.655  1.00  0.00    -0.197 OA 
HETATM   32  C   UNL     1      -8.725   9.618  68.521  1.00  0.00    -0.120 C  
HETATM   33  H   UNL     1      -7.257  11.229  68.608  1.00  0.00     0.000 HD 
HETATM   34  C   UNL     1      -7.806   8.739  69.532  1.00  0.00    -0.091 A  
HETATM   35  C   UNL     1      -8.869   8.774  67.243  1.00  0.00    -0.141 C  
HETATM   36  C   UNL     1     -10.105   9.751  69.204  1.00  0.00    -0.200 C  
HETATM   37  N   UNL     1      -8.141   7.834  70.346  1.00  0.00    -0.113 NA 
HETATM   38  C   UNL     1      -6.876   7.385  70.910  1.00  0.00    -0.048 A  
HETATM   39  O   UNL     1      -6.464   8.953  69.461  1.00  0.00    -0.042 OA 
HETATM   40  N   UNL     1      -5.862   8.079  70.354  1.00  0.00    -0.029 NA 
BRANCH  38  41
HETATM   41  C   UNL     1      -6.649   6.332  71.942  1.00  0.00    -0.062 A  
HETATM   42  C   UNL     1      -7.188   6.423  73.233  1.00  0.00    -0.086 A  
HETATM   43  C   UNL     1      -7.008   5.382  74.174  1.00  0.00    -0.078 A  
HETATM   44  C   UNL     1      -6.272   4.243  73.849  1.00  0.00    -0.040 A  
HETATM   45  C   UNL     1      -5.768   4.114  72.565  1.00  0.00    -0.007 A  
HETATM   46  C   UNL     1      -5.954   5.141  71.624  1.00  0.00    -0.024 A  
ENDBRANCH  38  41
ENDBRANCH  24  29
TORSDOF 4
ENDMDL
MODEL       83
REMARK 921   NORMALIZED FREE ENERGY PREDICTED BY IDOCK:    7.28 KCAL/MOL
REMARK 922        TOTAL FREE ENERGY PREDICTED BY IDOCK:    7.23 KCAL/MOL
REMARK 923 INTER-LIGAND FREE ENERGY PREDICTED BY IDOCK:    4.05 KCAL/MOL
REMARK 924 INTRA-LIGAND FREE ENERGY PREDICTED BY IDOCK:    3.18 KCAL/MOL
REMARK 927      BINDING AFFINITY PREDICTED BY RF-SCORE:    0.00 PKD
ROOT
HETATM    1  C   UNL     1     -10.696  14.442  67.095  1.00  0.00    -0.283 C  
HETATM    2  O   UNL     1     -12.070  14.536  67.680  1.00  0.00    -0.343 OA 
HETATM    3  C   UNL     1     -12.007  15.487  68.699  1.00  0.00    -0.210 A  
HETATM    4  C   UNL     1     -10.752  16.026  68.836  1.00  0.00    -0.275 A  
HETATM    5  C   UNL     1     -10.119  16.620  69.944  1.00  0.00     0.173 A  
HETATM    6  C   UNL     1     -10.885  16.527  71.088  1.00  0.00     0.582 A  
HETATM    7  C   UNL     1      -8.488  16.725  69.715  1.00  0.00     0.955 C  
HETATM    8  C   UNL     1      -7.555  15.480  68.925  1.00  0.00    -0.166 C  
HETATM    9  C   UNL     1     -12.260  16.122  70.980  1.00  0.00    -0.157 A  
HETATM   10  C   UNL     1     -12.844  15.675  69.765  1.00  0.00     0.276 A  
HETATM   11  N   UNL     1      -6.998  16.296  67.746  1.00  0.00    -0.127 NA 
HETATM   12  C   UNL     1      -7.916  17.065  66.913  1.00  0.00    -0.222 C  
HETATM   13  O   UNL     1     -14.159  15.333  69.704  1.00  0.00     1.406 OA 
HETATM   14  H   UNL     1      -9.718  14.126  70.733  1.00  0.00     0.000 HD 
HETATM   15  C   UNL     1      -9.409  16.776  67.057  1.00  0.00    -0.244 C  
HETATM   16  H   UNL     1      -9.390  11.603  65.807  1.00  0.00     0.000 HD 
HETATM   17  H   UNL     1     -14.741  15.464  70.443  1.00  0.00     0.000 HD 
HETATM   18  C   UNL     1      -9.814  15.439  67.884  1.00  0.00    -0.219 C  
HETATM   19  O   UNL     1      -9.823  12.449  65.813  1.00  0.00    -0.254 OA 
HETATM   20  C   UNL     1      -8.899  14.649  69.099  1.00  0.00    -0.024 C  
HETATM   21  C   UNL     1      -9.940  12.966  67.085  1.00  0.00    -0.240 C  
HETATM   22  O   UNL     1      -8.914  14.622  70.629  1.00  0.00     1.440 OA 
HETATM   23  C   UNL     1      -9.637  13.311  69.292  1.00  0.00     0.693 C  
HETATM   24  C   UNL     1      -9.260  12.488  68.183  1.00  0.00    -0.209 C  
ENDROOT
BRANCH  11  25
HETATM   25  C   UNL     1      -5.780  15.928  66.982  1.00  0.00     0.318 C  
BRANCH  25  26
HETATM   26  C   UNL     1      -5.851  14.464  66.507  1.00  0.00     3.427 C  
HETATM   27  C   UNL     1      -6.634  13.418  67.293  1.00  0.00     0.136 C  
HETATM   28  C   UNL     1      -5.146  13.311  67.208  1.00  0.00     0.293 C  
ENDBRANCH  25  26
ENDBRANCH  11  25
BRANCH  24  29
HETATM   29  C   UNL     1      -8.203  11.422  68.756  1.00  0.00    -0.107 C  
HETATM   30  N   UNL     1      -8.698  10.312  69.521  1.00  0.00    -0.290 N  
HETATM   31  O   UNL     1      -7.024  11.618  68.510  1.00  0.00    -0.072 OA 
HETATM   32  C   UNL     1      -7.949   9.098  70.115  1.00  0.00    -0.121 C  
HETATM   33  H   UNL     1      -9.702  10.328  69.701  1.00  0.00     0.000 HD 
HETATM   34  C   UNL     1      -8.889   8.048  70.924  1.00  0.00    -0.139 A  
HETATM   35  C   UNL     1      -6.890   9.577  71.123  1.00  0.00     0.008 C  
HETATM   36  C   UNL     1      -7.259   8.281  68.999  1.00  0.00    -0.073 C  
HETATM   37  N   UNL     1      -8.731   6.811  71.122  1.00  0.00    -0.136 NA 
HETATM   38  C   UNL     1      -9.861   6.444  71.963  1.00  0.00    -0.156 A  
HETATM   39  O   UNL     1      -9.981   8.573  71.540  1.00  0.00    -0.199 OA 
HETATM   40  N   UNL     1     -10.613   7.536  72.211  1.00  0.00    -0.223 NA 
BRANCH  38  41
HETATM   41  C   UNL     1     -10.207   5.099  72.507  1.00  0.00    -0.242 A  
HETATM   42  C   UNL     1     -11.277   4.904  73.392  1.00  0.00    -0.415 A  
HETATM   43  C   UNL     1     -11.622   3.609  73.846  1.00  0.00     0.195 A  
HETATM   44  C   UNL     1     -10.892   2.492  73.442  1.00  0.00    -0.291 A  
HETATM   45  C   UNL     1      -9.857   2.657  72.536  1.00  0.00    -0.216 A  
HETATM   46  C   UNL     1      -9.520   3.941  72.073  1.00  0.00    -0.198 A  
ENDBRANCH  38  41
ENDBRANCH  24  29
TORSDOF 4
ENDMDL
MODEL       84
REMARK 921   NORMALIZED FREE ENERGY PREDICTED BY IDOCK:    8.65 KCAL/MOL
REMARK 922        TOTAL FREE ENERGY PREDICTED BY IDOCK:    8.92 KCAL/MOL
REMARK 923 INTER-LIGAND FREE ENERGY PREDICTED BY IDOCK:    8.26 KCAL/MOL
REMARK 924 INTRA-LIGAND FREE ENERGY PREDICTED BY IDOCK:    0.65 KCAL/MOL
REMARK 927      BINDING AFFINITY PREDICTED BY RF-SCORE:    0.00 PKD
ROOT
HETATM    1  C   UNL     1      -7.980   6.716  66.536  1.00  0.00    -0.106 C  
HETATM    2  O   UNL     1      -8.253   5.511  67.379  1.00  0.00    -0.102 OA 
HETATM    3  C   UNL     1      -9.580   5.608  67.799  1.00  0.00    -0.119 A  
HETATM    4  C   UNL     1     -10.201   6.734  67.317  1.00  0.00    -0.271 A  
HETATM    5  C   UNL     1     -11.298   7.465  67.810  1.00  0.00     0.429 A  
HETATM    6  C   UNL     1     -11.720   6.999  69.039  1.00  0.00     0.445 A  
HETATM    7  C   UNL     1     -11.387   8.955  67.106  1.00  0.00     1.226 C  
HETATM    8  C   UNL     1      -9.981   9.917  66.731  1.00  0.00    -0.214 C  
HETATM    9  C   UNL     1     -11.222   5.739  69.519  1.00  0.00    -0.139 A  
HETATM   10  C   UNL     1     -10.204   5.002  68.855  1.00  0.00    -0.114 A  
HETATM   11  N   UNL     1     -10.159  10.036  65.207  1.00  0.00    -0.297 NA 
HETATM   12  C   UNL     1     -10.366   8.827  64.417  1.00  0.00     4.553 C  
HETATM   13  O   UNL     1      -9.789   3.798  69.330  1.00  0.00    -0.119 OA 
HETATM   14  H   UNL     1      -9.531   8.504  69.484  1.00  0.00     0.000 HD 
HETATM   15  C   UNL     1     -10.084   7.486  65.092  1.00  0.00     2.860 C  
HETATM   16  H   UNL     1      -4.967   8.236  66.347  1.00  0.00     0.000 HD 
HETATM   17  H   UNL     1     -10.222   3.377  70.063  1.00  0.00     0.000 HD 
HETATM   18  C   UNL     1      -9.291   7.538  66.507  1.00  0.00    -0.231 C  
HETATM   19  O   UNL     1      -5.679   7.659  66.096  1.00  0.00    -0.035 OA 
HETATM   20  C   UNL     1      -9.251   8.830  67.632  1.00  0.00    -0.134 C  
HETATM   21  C   UNL     1      -6.738   7.723  66.975  1.00  0.00    -0.068 C  
HETATM   22  O   UNL     1      -9.967   9.154  68.945  1.00  0.00    -0.170 OA 
HETATM   23  C   UNL     1      -8.128   8.426  68.605  1.00  0.00    -0.122 C  
HETATM   24  C   UNL     1      -6.898   8.706  67.928  1.00  0.00    -0.067 C  
ENDROOT
BRANCH  11  25
HETATM   25  C   UNL     1      -9.550  11.106  64.379  1.00  0.00    -0.250 C  
BRANCH  25  26
HETATM   26  C   UNL     1      -8.019  10.948  64.318  1.00  0.00     0.341 C  
HETATM   27  C   UNL     1      -7.379   9.663  63.804  1.00  0.00    -0.123 C  
HETATM   28  C   UNL     1      -7.224  10.036  65.242  1.00  0.00    -0.137 C  
ENDBRANCH  25  26
ENDBRANCH  11  25
BRANCH  24  29
HETATM   29  C   UNL     1      -6.316  10.048  68.592  1.00  0.00    -0.048 C  
HETATM   30  N   UNL     1      -7.004  11.285  68.350  1.00  0.00    -0.066 N  
HETATM   31  O   UNL     1      -5.308   9.942  69.271  1.00  0.00    -0.036 OA 
HETATM   32  C   UNL     1      -6.742  12.699  68.916  1.00  0.00    -0.098 C  
HETATM   33  H   UNL     1      -7.789  11.220  67.702  1.00  0.00     0.000 HD 
HETATM   34  C   UNL     1      -7.764  13.845  68.385  1.00  0.00    -0.139 A  
HETATM   35  C   UNL     1      -5.335  13.172  68.511  1.00  0.00    -0.069 C  
HETATM   36  C   UNL     1      -6.858  12.702  70.456  1.00  0.00     1.526 C  
HETATM   37  N   UNL     1      -8.128  14.920  68.937  1.00  0.00    -0.158 NA 
HETATM   38  C   UNL     1      -8.994  15.545  67.949  1.00  0.00    -0.173 A  
HETATM   39  O   UNL     1      -8.265  13.667  67.133  1.00  0.00    -0.174 OA 
HETATM   40  N   UNL     1      -9.064  14.766  66.851  1.00  0.00    -0.234 NA 
BRANCH  38  41
HETATM   41  C   UNL     1      -9.728  16.840  68.054  1.00  0.00    -0.243 A  
HETATM   42  C   UNL     1      -9.111  18.013  68.513  1.00  0.00    -0.293 A  
HETATM   43  C   UNL     1      -9.812  19.241  68.546  1.00  0.00    -0.498 A  
HETATM   44  C   UNL     1     -11.144  19.315  68.141  1.00  0.00     0.321 A  
HETATM   45  C   UNL     1     -11.759  18.178  67.645  1.00  0.00     1.671 A  
HETATM   46  C   UNL     1     -11.062  16.958  67.600  1.00  0.00    -0.064 A  
ENDBRANCH  38  41
ENDBRANCH  24  29
TORSDOF 4
ENDMDL
MODEL       85
REMARK 921   NORMALIZED FREE ENERGY PREDICTED BY IDOCK:   10.68 KCAL/MOL
REMARK 922        TOTAL FREE ENERGY PREDICTED BY IDOCK:   11.42 KCAL/MOL
REMARK 923 INTER-LIGAND FREE ENERGY PREDICTED BY IDOCK:   12.73 KCAL/MOL
REMARK 924 INTRA-LIGAND FREE ENERGY PREDICTED BY IDOCK:   -1.31 KCAL/MOL
REMARK 927      BINDING AFFINITY PREDICTED BY RF-SCORE:    0.00 PKD
ROOT
HETATM    1  C   UNL     1     -10.004   6.126  66.020  1.00  0.00     0.193 C  
HETATM    2  O   UNL     1      -9.756   5.228  64.850  1.00  0.00     0.191 OA 
HETATM    3  C   UNL     1      -8.384   5.262  64.601  1.00  0.00    -0.141 A  
HETATM    4  C   UNL     1      -7.713   6.074  65.481  1.00  0.00    -0.093 A  
HETATM    5  C   UNL     1      -6.489   6.760  65.355  1.00  0.00    -0.046 A  
HETATM    6  C   UNL     1      -5.968   6.655  64.082  1.00  0.00    -0.035 A  
HETATM    7  C   UNL     1      -6.331   7.918  66.520  1.00  0.00    -0.050 C  
HETATM    8  C   UNL     1      -7.662   8.900  67.074  1.00  0.00    -0.098 C  
HETATM    9  C   UNL     1      -6.532   5.700  63.169  1.00  0.00    -0.028 A  
HETATM   10  C   UNL     1      -7.699   4.943  63.460  1.00  0.00    -0.072 A  
HETATM   11  N   UNL     1      -7.668   8.499  68.559  1.00  0.00    -0.102 NA 
HETATM   12  C   UNL     1      -7.694   7.085  68.916  1.00  0.00    -0.110 C  
HETATM   13  O   UNL     1      -8.178   4.026  62.578  1.00  0.00    -0.073 OA 
HETATM   14  H   UNL     1      -7.907   8.521  63.979  1.00  0.00     0.000 HD 
HETATM   15  C   UNL     1      -8.030   6.084  67.811  1.00  0.00    -0.105 C  
HETATM   16  H   UNL     1     -12.835   7.922  66.448  1.00  0.00     0.000 HD 
HETATM   17  H   UNL     1      -7.703   3.804  61.786  1.00  0.00     0.000 HD 
HETATM   18  C   UNL     1      -8.627   6.699  66.432  1.00  0.00    -0.130 C  
HETATM   19  O   UNL     1     -12.228   7.198  66.552  1.00  0.00     3.318 OA 
HETATM   20  C   UNL     1      -8.384   8.275  65.803  1.00  0.00    -0.137 C  
HETATM   21  C   UNL     1     -11.064   7.388  65.838  1.00  0.00     3.426 C  
HETATM   22  O   UNL     1      -7.476   8.895  64.739  1.00  0.00    -0.098 OA 
HETATM   23  C   UNL     1      -9.411   8.368  64.659  1.00  0.00     0.903 C  
HETATM   24  C   UNL     1     -10.680   8.590  65.284  1.00  0.00     4.204 C  
ENDROOT
BRANCH  11  25
HETATM   25  C   UNL     1      -8.259   9.324  69.641  1.00  0.00    -0.126 C  
BRANCH  25  26
HETATM   26  C   UNL     1      -8.076   8.644  71.012  1.00  0.00    -0.164 C  
HETATM   27  C   UNL     1      -8.952   9.021  72.201  1.00  0.00     0.167 C  
HETATM   28  C   UNL     1      -7.493   9.342  72.233  1.00  0.00     0.698 C  
ENDBRANCH  25  26
ENDBRANCH  11  25
BRANCH  24  29
HETATM   29  C   UNL     1     -11.025  10.142  65.058  1.00  0.00     1.272 C  
HETATM   30  N   UNL     1     -10.276  11.124  65.793  1.00  0.00    -0.249 N  
HETATM   31  O   UNL     1     -11.917  10.406  64.268  1.00  0.00     2.811 OA 
HETATM   32  C   UNL     1     -10.316  12.667  65.721  1.00  0.00    -0.279 C  
HETATM   33  H   UNL     1      -9.613  10.741  66.468  1.00  0.00     0.000 HD 
HETATM   34  C   UNL     1      -9.293  13.422  66.733  1.00  0.00    -0.256 A  
HETATM   35  C   UNL     1     -11.721  13.172  66.092  1.00  0.00    -0.428 C  
HETATM   36  C   UNL     1      -9.955  13.158  64.302  1.00  0.00    -0.007 C  
HETATM   37  N   UNL     1      -8.750  14.557  66.632  1.00  0.00    -0.186 NA 
HETATM   38  C   UNL     1      -8.000  14.697  67.871  1.00  0.00    -0.144 A  
HETATM   39  O   UNL     1      -9.016  12.775  67.897  1.00  0.00    -0.170 OA 
HETATM   40  N   UNL     1      -8.178  13.599  68.634  1.00  0.00    -0.107 NA 
BRANCH  38  41
HETATM   41  C   UNL     1      -7.146  15.839  68.308  1.00  0.00    -0.115 A  
HETATM   42  C   UNL     1      -6.433  15.821  69.515  1.00  0.00    -0.177 A  
HETATM   43  C   UNL     1      -5.582  16.892  69.876  1.00  0.00    -0.213 A  
HETATM   44  C   UNL     1      -5.444  18.006  69.050  1.00  0.00    -0.186 A  
HETATM   45  C   UNL     1      -6.107  18.026  67.834  1.00  0.00    -0.162 A  
HETATM   46  C   UNL     1      -6.944  16.959  67.466  1.00  0.00    -0.165 A  
ENDBRANCH  38  41
ENDBRANCH  24  29
TORSDOF 4
ENDMDL
MODEL       86
REMARK 921   NORMALIZED FREE ENERGY PREDICTED BY IDOCK:   11.13 KCAL/MOL
REMARK 922        TOTAL FREE ENERGY PREDICTED BY IDOCK:   11.98 KCAL/MOL
REMARK 923 INTER-LIGAND FREE ENERGY PREDICTED BY IDOCK:   12.72 KCAL/MOL
REMARK 924 INTRA-LIGAND FREE ENERGY PREDICTED BY IDOCK:   -0.74 KCAL/MOL
REMARK 927      BINDING AFFINITY PREDICTED BY RF-SCORE:    0.00 PKD
ROOT
HETATM    1  C   UNL     1      -8.654  11.264  70.755  1.00  0.00     5.214 C  
HETATM    2  O   UNL     1      -7.686  12.269  71.294  1.00  0.00     6.112 OA 
HETATM    3  C   UNL     1      -7.083  12.877  70.193  1.00  0.00     1.156 A  
HETATM    4  C   UNL     1      -7.557  12.388  69.001  1.00  0.00     0.121 A  
HETATM    5  C   UNL     1      -6.966  12.341  67.723  1.00  0.00    -0.115 A  
HETATM    6  C   UNL     1      -5.656  12.772  67.744  1.00  0.00    -0.128 A  
HETATM    7  C   UNL     1      -7.766  11.288  66.735  1.00  0.00    -0.155 C  
HETATM    8  C   UNL     1      -8.421   9.770  67.290  1.00  0.00    -0.125 C  
HETATM    9  C   UNL     1      -5.156  13.440  68.914  1.00  0.00    -0.067 A  
HETATM   10  C   UNL     1      -5.902  13.562  70.117  1.00  0.00    -0.148 A  
HETATM   11  N   UNL     1      -9.906  10.004  66.962  1.00  0.00    -0.181 NA 
HETATM   12  C   UNL     1     -10.558  11.220  67.436  1.00  0.00    -0.224 C  
HETATM   13  O   UNL     1      -5.400  14.232  71.188  1.00  0.00    -0.132 OA 
HETATM   14  H   UNL     1      -5.661  10.246  68.681  1.00  0.00     0.000 HD 
HETATM   15  C   UNL     1      -9.827  12.047  68.493  1.00  0.00    -0.177 C  
HETATM   16  H   UNL     1      -9.408   8.356  72.304  1.00  0.00     0.000 HD 
HETATM   17  H   UNL     1      -4.579  14.708  71.135  1.00  0.00     0.000 HD 
HETATM   18  C   UNL     1      -8.554  11.343  69.213  1.00  0.00     0.302 C  
HETATM   19  O   UNL     1      -9.505   9.265  72.043  1.00  0.00    -0.246 OA 
HETATM   20  C   UNL     1      -7.554  10.103  68.580  1.00  0.00    -0.088 C  
HETATM   21  C   UNL     1      -8.485   9.679  71.211  1.00  0.00     0.770 C  
HETATM   22  O   UNL     1      -6.180  10.047  67.910  1.00  0.00    -0.056 OA 
HETATM   23  C   UNL     1      -6.729   9.649  69.799  1.00  0.00    -0.062 C  
HETATM   24  C   UNL     1      -7.602   8.829  70.584  1.00  0.00    -0.090 C  
ENDROOT
BRANCH  11  25
HETATM   25  C   UNL     1     -10.898   8.917  66.774  1.00  0.00     0.150 C  
BRANCH  25  26
HETATM   26  C   UNL     1     -11.521   8.504  68.121  1.00  0.00     1.192 C  
HETATM   27  C   UNL     1     -10.651   8.035  69.281  1.00  0.00    -0.193 C  
HETATM   28  C   UNL     1     -11.581   7.068  68.623  1.00  0.00     0.470 C  
ENDBRANCH  25  26
ENDBRANCH  11  25
BRANCH  24  29
HETATM   29  C   UNL     1      -7.140   7.312  70.328  1.00  0.00    -0.065 C  
HETATM   30  N   UNL     1      -7.790   6.565  69.287  1.00  0.00    -0.108 N  
HETATM   31  O   UNL     1      -6.255   6.870  71.043  1.00  0.00    -0.035 OA 
HETATM   32  C   UNL     1      -7.506   5.142  68.755  1.00  0.00    -0.066 C  
HETATM   33  H   UNL     1      -8.560   7.051  68.827  1.00  0.00     0.000 HD 
HETATM   34  C   UNL     1      -8.482   4.660  67.548  1.00  0.00    -0.104 A  
HETATM   35  C   UNL     1      -7.694   4.114  69.883  1.00  0.00    -0.052 C  
HETATM   36  C   UNL     1      -6.065   5.041  68.206  1.00  0.00    -0.030 C  
HETATM   37  N   UNL     1      -8.270   3.827  66.624  1.00  0.00    -0.096 NA 
HETATM   38  C   UNL     1      -9.533   3.777  65.902  1.00  0.00    -0.171 A  
HETATM   39  O   UNL     1      -9.741   5.174  67.555  1.00  0.00    -0.136 OA 
HETATM   40  N   UNL     1     -10.422   4.604  66.488  1.00  0.00    -0.210 NA 
BRANCH  38  41
HETATM   41  C   UNL     1      -9.874   2.966  64.697  1.00  0.00    -0.031 A  
HETATM   42  C   UNL     1     -11.168   2.936  64.159  1.00  0.00     0.775 A  
HETATM   43  C   UNL     1     -11.452   2.207  62.980  1.00  0.00     0.022 A  
HETATM   44  C   UNL     1     -10.455   1.481  62.331  1.00  0.00    -0.097 A  
HETATM   45  C   UNL     1      -9.160   1.532  62.821  1.00  0.00    -0.078 A  
HETATM   46  C   UNL     1      -8.872   2.264  63.986  1.00  0.00    -0.093 A  
ENDBRANCH  38  41
ENDBRANCH  24  29
TORSDOF 4
ENDMDL
MODEL       87
REMARK 921   NORMALIZED FREE ENERGY PREDICTED BY IDOCK:   12.29 KCAL/MOL
REMARK 922        TOTAL FREE ENERGY PREDICTED BY IDOCK:   13.41 KCAL/MOL
REMARK 923 INTER-LIGAND FREE ENERGY PREDICTED BY IDOCK:   13.36 KCAL/MOL
REMARK 924 INTRA-LIGAND FREE ENERGY PREDICTED BY IDOCK:    0.04 KCAL/MOL
REMARK 927      BINDING AFFINITY PREDICTED BY RF-SCORE:    0.00 PKD
ROOT
HETATM    1  C   UNL     1     -11.357  16.564  65.699  1.00  0.00     0.437 C  
HETATM    2  O   UNL     1     -11.342  18.013  66.071  1.00  0.00     0.675 OA 
HETATM    3  C   UNL     1     -10.034  18.317  66.449  1.00  0.00    -0.380 A  
HETATM    4  C   UNL     1      -9.197  17.232  66.356  1.00  0.00    -0.278 A  
HETATM    5  C   UNL     1      -7.996  16.933  67.027  1.00  0.00    -0.228 A  
HETATM    6  C   UNL     1      -7.708  17.861  68.007  1.00  0.00    -0.245 A  
HETATM    7  C   UNL     1      -7.605  15.338  66.869  1.00  0.00    -0.051 C  
HETATM    8  C   UNL     1      -8.791  14.059  66.896  1.00  0.00    -0.194 C  
HETATM    9  C   UNL     1      -8.449  19.091  68.048  1.00  0.00    -0.336 A  
HETATM   10  C   UNL     1      -9.568  19.352  67.212  1.00  0.00    -0.328 A  
HETATM   11  N   UNL     1      -8.549  13.464  65.498  1.00  0.00     1.657 NA 
HETATM   12  C   UNL     1      -8.551  14.346  64.336  1.00  0.00     7.565 C  
HETATM   13  O   UNL     1     -10.218  20.545  67.263  1.00  0.00    -0.372 OA 
HETATM   14  H   UNL     1      -9.584  16.214  69.019  1.00  0.00     0.000 HD 
HETATM   15  C   UNL     1      -9.103  15.759  64.525  1.00  0.00     4.734 C  
HETATM   16  H   UNL     1     -14.020  14.532  66.151  1.00  0.00     0.000 HD 
HETATM   17  H   UNL     1      -9.895  21.264  67.793  1.00  0.00     0.000 HD 
HETATM   18  C   UNL     1      -9.914  16.044  65.902  1.00  0.00    -0.380 C  
HETATM   19  O   UNL     1     -13.423  15.112  65.691  1.00  0.00     0.854 OA 
HETATM   20  C   UNL     1      -9.741  15.230  67.401  1.00  0.00    -0.208 C  
HETATM   21  C   UNL     1     -12.397  15.552  66.500  1.00  0.00     1.206 C  
HETATM   22  O   UNL     1      -9.016  15.514  68.718  1.00  0.00    -0.178 OA 
HETATM   23  C   UNL     1     -10.949  15.722  68.219  1.00  0.00    -0.325 C  
HETATM   24  C   UNL     1     -12.083  15.002  67.723  1.00  0.00     0.014 C  
ENDROOT
BRANCH  11  25
HETATM   25  C   UNL     1      -8.919  12.081  65.107  1.00  0.00     0.475 C  
BRANCH  25  26
HETATM   26  C   UNL     1     -10.416  11.993  64.753  1.00  0.00    -0.335 C  
HETATM   27  C   UNL     1     -10.946  12.534  63.431  1.00  0.00    -0.386 C  
HETATM   28  C   UNL     1     -11.348  13.196  64.709  1.00  0.00    -0.352 C  
ENDBRANCH  25  26
ENDBRANCH  11  25
BRANCH  24  29
HETATM   29  C   UNL     1     -12.419  13.883  68.826  1.00  0.00     0.208 C  
HETATM   30  N   UNL     1     -11.847  12.575  68.669  1.00  0.00    -0.312 N  
HETATM   31  O   UNL     1     -13.154  14.208  69.744  1.00  0.00     0.195 OA 
HETATM   32  C   UNL     1     -11.912  11.341  69.597  1.00  0.00    -0.353 C  
HETATM   33  H   UNL     1     -11.313  12.439  67.811  1.00  0.00     0.000 HD 
HETATM   34  C   UNL     1     -11.117  10.034  69.049  1.00  0.00    -0.180 A  
HETATM   35  C   UNL     1     -13.374  10.897  69.776  1.00  0.00     1.078 C  
HETATM   36  C   UNL     1     -11.304  11.663  70.981  1.00  0.00     1.436 C  
HETATM   37  N   UNL     1     -10.594   9.081  69.690  1.00  0.00    -0.223 NA 
HETATM   38  C   UNL     1     -10.093   8.194  68.651  1.00  0.00    -0.196 A  
HETATM   39  O   UNL     1     -11.046   9.899  67.698  1.00  0.00    -0.267 OA 
HETATM   40  N   UNL     1     -10.382   8.709  67.438  1.00  0.00    -0.263 NA 
BRANCH  38  41
HETATM   41  C   UNL     1      -9.365   6.901  68.813  1.00  0.00    -0.129 A  
HETATM   42  C   UNL     1      -8.145   6.813  69.497  1.00  0.00    -0.126 A  
HETATM   43  C   UNL     1      -7.505   5.565  69.690  1.00  0.00    -0.070 A  
HETATM   44  C   UNL     1      -8.062   4.391  69.187  1.00  0.00    -0.069 A  
HETATM   45  C   UNL     1      -9.288   4.450  68.545  1.00  0.00    -0.203 A  
HETATM   46  C   UNL     1      -9.932   5.687  68.362  1.00  0.00    -0.201 A  
ENDBRANCH  38  41
ENDBRANCH  24  29
TORSDOF 4
ENDMDL
MODEL       88
REMARK 921   NORMALIZED FREE ENERGY PREDICTED BY IDOCK:   14.41 KCAL/MOL
REMARK 922        TOTAL FREE ENERGY PREDICTED BY IDOCK:   16.03 KCAL/MOL
REMARK 923 INTER-LIGAND FREE ENERGY PREDICTED BY IDOCK:   17.19 KCAL/MOL
REMARK 924 INTRA-LIGAND FREE ENERGY PREDICTED BY IDOCK:   -1.16 KCAL/MOL
REMARK 927      BINDING AFFINITY PREDICTED BY RF-SCORE:    0.00 PKD
ROOT
HETATM    1  C   UNL     1      -8.751   4.694  68.128  1.00  0.00    -0.103 C  
HETATM    2  O   UNL     1      -8.658   4.289  66.691  1.00  0.00    -0.111 OA 
HETATM    3  C   UNL     1      -7.562   4.966  66.154  1.00  0.00    -0.091 A  
HETATM    4  C   UNL     1      -6.929   5.755  67.081  1.00  0.00    -0.065 A  
HETATM    5  C   UNL     1      -6.134   6.907  66.923  1.00  0.00    -0.036 A  
HETATM    6  C   UNL     1      -6.102   7.337  65.613  1.00  0.00    -0.037 A  
HETATM    7  C   UNL     1      -5.961   7.712  68.354  1.00  0.00    -0.032 C  
HETATM    8  C   UNL     1      -7.248   7.870  69.521  1.00  0.00    -0.081 C  
HETATM    9  C   UNL     1      -6.607   6.475  64.580  1.00  0.00    -0.038 A  
HETATM   10  C   UNL     1      -7.270   5.247  64.847  1.00  0.00    -0.066 A  
HETATM   11  N   UNL     1      -6.586   7.170  70.719  1.00  0.00    -0.047 NA 
HETATM   12  C   UNL     1      -6.012   5.841  70.542  1.00  0.00    -0.025 C  
HETATM   13  O   UNL     1      -7.700   4.448  63.835  1.00  0.00    -0.075 OA 
HETATM   14  H   UNL     1      -8.450   8.159  66.648  1.00  0.00     0.000 HD 
HETATM   15  C   UNL     1      -6.371   5.082  69.264  1.00  0.00    -0.031 C  
HETATM   16  H   UNL     1     -11.661   4.948  69.827  1.00  0.00     0.000 HD 
HETATM   17  H   UNL     1      -7.497   4.643  62.928  1.00  0.00     0.000 HD 
HETATM   18  C   UNL     1      -7.591   5.686  68.380  1.00  0.00    -0.081 C  
HETATM   19  O   UNL     1     -10.854   4.552  69.519  1.00  0.00     0.799 OA 
HETATM   20  C   UNL     1      -8.127   7.313  68.319  1.00  0.00    -0.124 C  
HETATM   21  C   UNL     1     -10.159   5.384  68.666  1.00  0.00    -0.179 C  
HETATM   22  O   UNL     1      -7.924   8.492  67.366  1.00  0.00    -0.101 OA 
HETATM   23  C   UNL     1      -9.466   7.223  67.563  1.00  0.00    -0.151 C  
HETATM   24  C   UNL     1     -10.421   6.726  68.506  1.00  0.00    -0.234 C  
ENDROOT
BRANCH  11  25
HETATM   25  C   UNL     1      -6.985   7.383  72.132  1.00  0.00    -0.063 C  
BRANCH  25  26
HETATM   26  C   UNL     1      -7.056   8.887  72.461  1.00  0.00     0.172 C  
HETATM   27  C   UNL     1      -5.983   9.852  71.970  1.00  0.00     0.336 C  
HETATM   28  C   UNL     1      -6.117   9.586  73.434  1.00  0.00     0.447 C  
ENDBRANCH  25  26
ENDBRANCH  11  25
BRANCH  24  29
HETATM   29  C   UNL     1     -11.318   7.987  68.940  1.00  0.00     0.659 C  
HETATM   30  N   UNL     1     -11.228   9.191  68.162  1.00  0.00    -0.402 N  
HETATM   31  O   UNL     1     -12.032   7.852  69.921  1.00  0.00     0.354 OA 
HETATM   32  C   UNL     1     -12.020  10.513  68.276  1.00  0.00     0.434 C  
HETATM   33  H   UNL     1     -10.533   9.169  67.416  1.00  0.00     0.000 HD 
HETATM   34  C   UNL     1     -11.612  11.647  67.186  1.00  0.00    -0.212 A  
HETATM   35  C   UNL     1     -11.779  11.150  69.656  1.00  0.00    -0.410 C  
HETATM   36  C   UNL     1     -13.533  10.263  68.087  1.00  0.00     9.425 C  
HETATM   37  N   UNL     1     -12.301  12.590  66.707  1.00  0.00    -0.351 NA 
HETATM   38  C   UNL     1     -11.371  13.295  65.838  1.00  0.00    -0.311 A  
HETATM   39  O   UNL     1     -10.320  11.631  66.761  1.00  0.00    -0.212 OA 
HETATM   40  N   UNL     1     -10.163  12.697  65.887  1.00  0.00    -0.269 NA 
BRANCH  38  41
HETATM   41  C   UNL     1     -11.630  14.497  64.993  1.00  0.00    -0.382 A  
HETATM   42  C   UNL     1     -12.423  14.441  63.838  1.00  0.00    -0.004 A  
HETATM   43  C   UNL     1     -12.703  15.608  63.088  1.00  0.00     3.222 A  
HETATM   44  C   UNL     1     -12.181  16.844  63.466  1.00  0.00     5.380 A  
HETATM   45  C   UNL     1     -11.431  16.929  64.628  1.00  0.00     0.517 A  
HETATM   46  C   UNL     1     -11.160  15.774  65.382  1.00  0.00    -0.232 A  
ENDBRANCH  38  41
ENDBRANCH  24  29
TORSDOF 4
ENDMDL
MODEL       89
REMARK 921   NORMALIZED FREE ENERGY PREDICTED BY IDOCK:   18.35 KCAL/MOL
REMARK 922        TOTAL FREE ENERGY PREDICTED BY IDOCK:   20.88 KCAL/MOL
REMARK 923 INTER-LIGAND FREE ENERGY PREDICTED BY IDOCK:   21.78 KCAL/MOL
REMARK 924 INTRA-LIGAND FREE ENERGY PREDICTED BY IDOCK:   -0.90 KCAL/MOL
REMARK 927      BINDING AFFINITY PREDICTED BY RF-SCORE:    0.00 PKD
ROOT
HETATM    1  C   UNL     1     -10.480  17.984  69.483  1.00  0.00     0.455 C  
HETATM    2  O   UNL     1     -10.700  18.031  70.962  1.00  0.00     1.505 OA 
HETATM    3  C   UNL     1      -9.812  18.980  71.470  1.00  0.00     3.994 A  
HETATM    4  C   UNL     1      -9.048  19.560  70.488  1.00  0.00     1.740 A  
HETATM    5  C   UNL     1      -7.781  20.171  70.545  1.00  0.00     1.128 A  
HETATM    6  C   UNL     1      -7.205  20.049  71.793  1.00  0.00     1.194 A  
HETATM    7  C   UNL     1      -7.127  20.331  69.038  1.00  0.00    -0.075 C  
HETATM    8  C   UNL     1      -7.295  19.120  67.793  1.00  0.00    -0.249 C  
HETATM    9  C   UNL     1      -8.008  19.599  72.895  1.00  0.00     4.107 A  
HETATM   10  C   UNL     1      -9.343  19.136  72.746  1.00  0.00     6.159 A  
HETATM   11  N   UNL     1      -8.021  19.958  66.727  1.00  0.00    -0.297 NA 
HETATM   12  C   UNL     1      -9.222  20.699  67.097  1.00  0.00    -0.292 C  
HETATM   13  O   UNL     1     -10.077  18.752  73.824  1.00  0.00     2.892 OA 
HETATM   14  H   UNL     1      -6.863  17.689  70.541  1.00  0.00     0.000 HD 
HETATM   15  C   UNL     1      -9.875  20.360  68.437  1.00  0.00    -0.178 C  
HETATM   16  H   UNL     1     -10.855  15.195  67.612  1.00  0.00     0.000 HD 
HETATM   17  H   UNL     1      -9.752  18.861  74.710  1.00  0.00     0.000 HD 
HETATM   18  C   UNL     1      -9.362  19.008  69.174  1.00  0.00    -0.193 C  
HETATM   19  O   UNL     1     -11.089  16.026  68.010  1.00  0.00    -0.341 OA 
HETATM   20  C   UNL     1      -7.836  18.245  69.005  1.00  0.00    -0.108 C  
HETATM   21  C   UNL     1     -10.072  16.535  68.790  1.00  0.00    -0.255 C  
HETATM   22  O   UNL     1      -6.539  18.212  69.816  1.00  0.00    -0.144 OA 
HETATM   23  C   UNL     1      -8.037  16.882  69.694  1.00  0.00     0.672 C  
HETATM   24  C   UNL     1      -8.774  16.076  68.769  1.00  0.00    -0.223 C  
ENDROOT
BRANCH  11  25
HETATM   25  C   UNL     1      -8.032  19.633  65.279  1.00  0.00     0.641 C  
BRANCH  25  26
HETATM   26  C   UNL     1      -6.817  20.261  64.568  1.00  0.00    -0.011 C  
HETATM   27  C   UNL     1      -5.647  19.402  64.102  1.00  0.00    -0.312 C  
HETATM   28  C   UNL     1      -5.440  20.393  65.201  1.00  0.00    -0.208 C  
ENDBRANCH  25  26
ENDBRANCH  11  25
BRANCH  24  29
HETATM   29  C   UNL     1      -7.718  15.043  68.136  1.00  0.00    -0.113 C  
HETATM   30  N   UNL     1      -7.502  13.790  68.804  1.00  0.00    -0.152 N  
HETATM   31  O   UNL     1      -7.149  15.386  67.112  1.00  0.00    -0.193 OA 
HETATM   32  C   UNL     1      -6.633  12.580  68.394  1.00  0.00    -0.070 C  
HETATM   33  H   UNL     1      -8.000  13.683  69.687  1.00  0.00     0.000 HD 
HETATM   34  C   UNL     1      -6.662  11.337  69.441  1.00  0.00    -0.123 A  
HETATM   35  C   UNL     1      -5.159  13.005  68.288  1.00  0.00    -0.079 C  
HETATM   36  C   UNL     1      -7.098  12.007  67.037  1.00  0.00    -0.091 C  
HETATM   37  N   UNL     1      -6.475  10.105  69.235  1.00  0.00    -0.045 NA 
HETATM   38  C   UNL     1      -6.564   9.512  70.561  1.00  0.00    -0.094 A  
HETATM   39  O   UNL     1      -6.853  11.659  70.748  1.00  0.00     0.518 OA 
HETATM   40  N   UNL     1      -6.792  10.478  71.475  1.00  0.00     0.912 NA 
BRANCH  38  41
HETATM   41  C   UNL     1      -6.435   8.075  70.939  1.00  0.00    -0.037 A  
HETATM   42  C   UNL     1      -5.250   7.353  70.739  1.00  0.00    -0.023 A  
HETATM   43  C   UNL     1      -5.135   6.008  71.161  1.00  0.00    -0.013 A  
HETATM   44  C   UNL     1      -6.205   5.355  71.771  1.00  0.00    -0.038 A  
HETATM   45  C   UNL     1      -7.371   6.062  72.016  1.00  0.00    -0.094 A  
HETATM   46  C   UNL     1      -7.485   7.403  71.608  1.00  0.00    -0.084 A  
ENDBRANCH  38  41
ENDBRANCH  24  29
TORSDOF 4
ENDMDL
MODEL       90
REMARK 921   NORMALIZED FREE ENERGY PREDICTED BY IDOCK:   21.85 KCAL/MOL
REMARK 922        TOTAL FREE ENERGY PREDICTED BY IDOCK:   25.20 KCAL/MOL
REMARK 923 INTER-LIGAND FREE ENERGY PREDICTED BY IDOCK:   26.40 KCAL/MOL
REMARK 924 INTRA-LIGAND FREE ENERGY PREDICTED BY IDOCK:   -1.20 KCAL/MOL
REMARK 927      BINDING AFFINITY PREDICTED BY RF-SCORE:    0.00 PKD
ROOT
HETATM    1  C   UNL     1      -9.757   7.356  69.445  1.00  0.00    -0.159 C  
HETATM    2  O   UNL     1     -10.182   6.294  70.409  1.00  0.00    -0.189 OA 
HETATM    3  C   UNL     1     -11.506   6.569  70.750  1.00  0.00    -0.360 A  
HETATM    4  C   UNL     1     -11.991   7.683  70.110  1.00  0.00     0.272 A  
HETATM    5  C   UNL     1     -13.026   8.571  70.461  1.00  0.00     0.740 A  
HETATM    6  C   UNL     1     -13.536   8.300  71.714  1.00  0.00    -0.393 A  
HETATM    7  C   UNL     1     -12.938   9.966  69.584  1.00  0.00     1.202 C  
HETATM    8  C   UNL     1     -11.429  10.735  69.166  1.00  0.00    -0.298 C  
HETATM    9  C   UNL     1     -13.187   7.066  72.362  1.00  0.00     0.286 A  
HETATM   10  C   UNL     1     -12.226   6.160  71.839  1.00  0.00    -0.095 A  
HETATM   11  N   UNL     1     -11.539  10.684  67.632  1.00  0.00    -0.447 NA 
HETATM   12  C   UNL     1     -11.838   9.414  66.980  1.00  0.00     3.805 C  
HETATM   13  O   UNL     1     -11.953   4.987  72.471  1.00  0.00     0.051 OA 
HETATM   14  H   UNL     1     -11.223   9.630  72.085  1.00  0.00     0.000 HD 
HETATM   15  C   UNL     1     -11.718   8.144  67.820  1.00  0.00     2.320 C  
HETATM   16  H   UNL     1      -6.601   8.544  69.223  1.00  0.00     0.000 HD 
HETATM   17  H   UNL     1     -12.452   4.702  73.227  1.00  0.00     0.000 HD 
HETATM   18  C   UNL     1     -10.975   8.291  69.256  1.00  0.00     0.031 C  
HETATM   19  O   UNL     1      -7.357   8.012  69.007  1.00  0.00    -0.079 OA 
HETATM   20  C   UNL     1     -10.846   9.701  70.223  1.00  0.00    -0.285 C  
HETATM   21  C   UNL     1      -8.436   8.285  69.822  1.00  0.00    -0.128 C  
HETATM   22  O   UNL     1     -11.572  10.249  71.453  1.00  0.00    -0.317 OA 
HETATM   23  C   UNL     1      -9.805   9.311  71.289  1.00  0.00    -0.318 C  
HETATM   24  C   UNL     1      -8.529   9.386  70.643  1.00  0.00    -0.239 C  
ENDROOT
BRANCH  11  25
HETATM   25  C   UNL     1     -10.794  11.582  66.715  1.00  0.00    -0.282 C  
BRANCH  25  26
HETATM   26  C   UNL     1     -11.680  12.011  65.528  1.00  0.00    -0.315 C  
HETATM   27  C   UNL     1     -11.117  12.093  64.115  1.00  0.00    -0.424 C  
HETATM   28  C   UNL     1     -11.544  13.345  64.809  1.00  0.00    -0.367 C  
ENDBRANCH  25  26
ENDBRANCH  11  25
BRANCH  24  29
HETATM   29  C   UNL     1      -7.839  10.737  71.172  1.00  0.00     3.855 C  
HETATM   30  N   UNL     1      -7.439  11.724  70.209  1.00  0.00     1.046 N  
HETATM   31  O   UNL     1      -7.687  10.850  72.378  1.00  0.00     6.833 OA 
HETATM   32  C   UNL     1      -6.844  13.135  70.416  1.00  0.00     1.001 C  
HETATM   33  H   UNL     1      -7.568  11.450  69.235  1.00  0.00     0.000 HD 
HETATM   34  C   UNL     1      -6.526  13.947  69.044  1.00  0.00    -0.103 A  
HETATM   35  C   UNL     1      -5.503  13.034  71.164  1.00  0.00    -0.170 C  
HETATM   36  C   UNL     1      -7.814  14.025  71.225  1.00  0.00     4.658 C  
HETATM   37  N   UNL     1      -6.484  15.191  68.835  1.00  0.00    -0.095 NA 
HETATM   38  C   UNL     1      -6.088  15.298  67.439  1.00  0.00     0.073 A  
HETATM   39  O   UNL     1      -6.192  13.191  67.964  1.00  0.00    -0.088 OA 
HETATM   40  N   UNL     1      -5.911  14.064  66.924  1.00  0.00     0.729 NA 
BRANCH  38  41
HETATM   41  C   UNL     1      -5.888  16.535  66.630  1.00  0.00     0.167 A  
HETATM   42  C   UNL     1      -6.361  16.653  65.315  1.00  0.00     3.746 A  
HETATM   43  C   UNL     1      -6.211  17.859  64.591  1.00  0.00     1.291 A  
HETATM   44  C   UNL     1      -5.569  18.959  65.158  1.00  0.00    -0.248 A  
HETATM   45  C   UNL     1      -5.133  18.878  66.470  1.00  0.00    -0.149 A  
HETATM   46  C   UNL     1      -5.290  17.685  67.197  1.00  0.00    -0.156 A  
ENDBRANCH  38  41
ENDBRANCH  24  29
TORSDOF 4
ENDMDL
MODEL       91
REMARK 921   NORMALIZED FREE ENERGY PREDICTED BY IDOCK:   23.30 KCAL/MOL
REMARK 922        TOTAL FREE ENERGY PREDICTED BY IDOCK:   27.00 KCAL/MOL
REMARK 923 INTER-LIGAND FREE ENERGY PREDICTED BY IDOCK:   28.40 KCAL/MOL
REMARK 924 INTRA-LIGAND FREE ENERGY PREDICTED BY IDOCK:   -1.40 KCAL/MOL
REMARK 927      BINDING AFFINITY PREDICTED BY RF-SCORE:    0.00 PKD
ROOT
HETATM    1  C   UNL     1      -9.065   5.600  66.983  1.00  0.00    -0.113 C  
HETATM    2  O   UNL     1      -9.587   4.691  65.915  1.00  0.00    -0.157 OA 
HETATM    3  C   UNL     1      -8.509   4.389  65.083  1.00  0.00    -0.123 A  
HETATM    4  C   UNL     1      -7.346   4.991  65.495  1.00  0.00    -0.073 A  
HETATM    5  C   UNL     1      -6.190   5.354  64.777  1.00  0.00    -0.029 A  
HETATM    6  C   UNL     1      -6.339   5.148  63.421  1.00  0.00    -0.022 A  
HETATM    7  C   UNL     1      -5.261   6.413  65.636  1.00  0.00    -0.014 C  
HETATM    8  C   UNL     1      -5.932   7.685  66.625  1.00  0.00    -0.040 C  
HETATM    9  C   UNL     1      -7.458   4.381  62.947  1.00  0.00    -0.053 A  
HETATM   10  C   UNL     1      -8.507   3.933  63.794  1.00  0.00    -0.094 A  
HETATM   11  N   UNL     1      -5.359   7.268  67.990  1.00  0.00    -0.023 NA 
HETATM   12  C   UNL     1      -5.546   5.898  68.455  1.00  0.00    -0.011 C  
HETATM   13  O   UNL     1      -9.529   3.180  63.306  1.00  0.00    -0.094 OA 
HETATM   14  H   UNL     1      -7.629   7.439  64.009  1.00  0.00     0.000 HD 
HETATM   15  C   UNL     1      -6.565   5.034  67.713  1.00  0.00    -0.050 C  
HETATM   16  H   UNL     1     -10.900   8.033  68.445  1.00  0.00     0.000 HD 
HETATM   17  H   UNL     1      -9.528   2.863  62.411  1.00  0.00     0.000 HD 
HETATM   18  C   UNL     1      -7.561   5.805  66.688  1.00  0.00    -0.092 C  
HETATM   19  O   UNL     1     -10.496   7.180  68.338  1.00  0.00    -0.189 OA 
HETATM   20  C   UNL     1      -7.272   7.283  65.869  1.00  0.00    -0.074 C  
HETATM   21  C   UNL     1      -9.771   7.089  67.169  1.00  0.00    -0.161 C  
HETATM   22  O   UNL     1      -6.828   7.679  64.460  1.00  0.00    -0.053 OA 
HETATM   23  C   UNL     1      -8.653   7.651  65.294  1.00  0.00    -0.044 C  
HETATM   24  C   UNL     1      -9.414   8.168  66.391  1.00  0.00    -0.285 C  
ENDROOT
BRANCH  11  25
HETATM   25  C   UNL     1      -5.190   8.193  69.138  1.00  0.00    -0.027 C  
BRANCH  25  26
HETATM   26  C   UNL     1      -6.556   8.579  69.738  1.00  0.00    -0.039 C  
HETATM   27  C   UNL     1      -6.670   9.658  70.807  1.00  0.00    -0.096 C  
HETATM   28  C   UNL     1      -6.984   8.240  71.159  1.00  0.00    -0.057 C  
ENDBRANCH  25  26
ENDBRANCH  11  25
BRANCH  24  29
HETATM   29  C   UNL     1      -9.456   9.762  66.194  1.00  0.00    -0.205 C  
HETATM   30  N   UNL     1      -9.079  10.598  67.300  1.00  0.00    -0.143 N  
HETATM   31  O   UNL     1      -9.812  10.180  65.105  1.00  0.00    -0.290 OA 
HETATM   32  C   UNL     1      -8.935  12.134  67.384  1.00  0.00    -0.180 C  
HETATM   33  H   UNL     1      -8.875  10.099  68.166  1.00  0.00     0.000 HD 
HETATM   34  C   UNL     1      -8.479  12.696  68.839  1.00  0.00     0.301 A  
HETATM   35  C   UNL     1     -10.286  12.805  67.079  1.00  0.00    -0.245 C  
HETATM   36  C   UNL     1      -7.876  12.640  66.379  1.00  0.00     0.710 C  
HETATM   37  N   UNL     1      -7.855  13.752  69.136  1.00  0.00     0.102 NA 
HETATM   38  C   UNL     1      -7.804  13.732  70.590  1.00  0.00     3.193 A  
HETATM   39  O   UNL     1      -8.875  11.964  69.915  1.00  0.00     1.744 OA 
HETATM   40  N   UNL     1      -8.437  12.632  71.049  1.00  0.00     8.791 NA 
BRANCH  38  41
HETATM   41  C   UNL     1      -7.175  14.727  71.505  1.00  0.00     2.195 A  
HETATM   42  C   UNL     1      -6.417  14.343  72.621  1.00  0.00     1.430 A  
HETATM   43  C   UNL     1      -5.780  15.306  73.438  1.00  0.00     0.940 A  
HETATM   44  C   UNL     1      -5.905  16.668  73.167  1.00  0.00     3.259 A  
HETATM   45  C   UNL     1      -6.613  17.068  72.046  1.00  0.00     4.939 A  
HETATM   46  C   UNL     1      -7.238  16.113  71.225  1.00  0.00     3.867 A  
ENDBRANCH  38  41
ENDBRANCH  24  29
TORSDOF 4
ENDMDL
MODEL       92
REMARK 921   NORMALIZED FREE ENERGY PREDICTED BY IDOCK:   27.82 KCAL/MOL
REMARK 922        TOTAL FREE ENERGY PREDICTED BY IDOCK:   32.57 KCAL/MOL
REMARK 923 INTER-LIGAND FREE ENERGY PREDICTED BY IDOCK:   33.98 KCAL/MOL
REMARK 924 INTRA-LIGAND FREE ENERGY PREDICTED BY IDOCK:   -1.41 KCAL/MOL
REMARK 927      BINDING AFFINITY PREDICTED BY RF-SCORE:    0.00 PKD
ROOT
HETATM    1  C   UNL     1     -10.775  14.347  68.775  1.00  0.00    -0.252 C  
HETATM    2  O   UNL     1     -12.153  14.805  69.136  1.00  0.00    -0.298 OA 
HETATM    3  C   UNL     1     -12.058  15.414  70.387  1.00  0.00    -0.372 A  
HETATM    4  C   UNL     1     -10.775  15.412  70.875  1.00  0.00    -0.156 A  
HETATM    5  C   UNL     1     -10.290  15.470  72.196  1.00  0.00     2.047 A  
HETATM    6  C   UNL     1     -11.309  15.412  73.123  1.00  0.00     0.151 A  
HETATM    7  C   UNL     1      -8.704  15.019  72.269  1.00  0.00     6.790 C  
HETATM    8  C   UNL     1      -8.035  13.728  71.305  1.00  0.00     6.064 C  
HETATM    9  C   UNL     1     -12.668  15.573  72.683  1.00  0.00    -0.510 A  
HETATM   10  C   UNL     1     -13.036  15.653  71.314  1.00  0.00    -0.473 A  
HETATM   11  N   UNL     1      -6.974  14.524  70.524  1.00  0.00     0.193 NA 
HETATM   12  C   UNL     1      -7.368  15.741  69.822  1.00  0.00    -0.016 C  
HETATM   13  O   UNL     1     -14.332  15.839  70.946  1.00  0.00    -0.677 OA 
HETATM   14  H   UNL     1     -10.892  12.893  72.263  1.00  0.00     0.000 HD 
HETATM   15  C   UNL     1      -8.863  15.994  69.635  1.00  0.00     0.091 C  
HETATM   16  H   UNL     1     -10.131  11.591  66.928  1.00  0.00     0.000 HD 
HETATM   17  H   UNL     1     -15.011  16.006  71.589  1.00  0.00     0.000 HD 
HETATM   18  C   UNL     1      -9.856  14.750  69.953  1.00  0.00     0.237 C  
HETATM   19  O   UNL     1     -10.268  12.513  67.115  1.00  0.00    -0.216 OA 
HETATM   20  C   UNL     1      -9.568  13.431  71.009  1.00  0.00     7.887 C  
HETATM   21  C   UNL     1     -10.536  12.740  68.448  1.00  0.00    -0.243 C  
HETATM   22  O   UNL     1      -9.976  13.071  72.439  1.00  0.00    12.190 OA 
HETATM   23  C   UNL     1     -10.707  12.449  70.677  1.00  0.00     2.990 C  
HETATM   24  C   UNL     1     -10.336  11.814  69.449  1.00  0.00     0.196 C  
ENDROOT
BRANCH  11  25
HETATM   25  C   UNL     1      -5.779  13.916  69.889  1.00  0.00    -0.116 C  
BRANCH  25  26
HETATM   26  C   UNL     1      -5.933  13.874  68.357  1.00  0.00    -0.101 C  
HETATM   27  C   UNL     1      -6.844  12.854  67.684  1.00  0.00    -0.149 C  
HETATM   28  C   UNL     1      -5.367  12.768  67.478  1.00  0.00    -0.083 C  
ENDBRANCH  25  26
ENDBRANCH  11  25
BRANCH  24  29
HETATM   29  C   UNL     1      -9.842  10.336  69.840  1.00  0.00    -0.105 C  
HETATM   30  N   UNL     1      -9.349   9.481  68.797  1.00  0.00    -0.145 N  
HETATM   31  O   UNL     1      -9.915  10.017  71.016  1.00  0.00     0.102 OA 
HETATM   32  C   UNL     1      -8.731   8.067  68.876  1.00  0.00    -0.131 C  
HETATM   33  H   UNL     1      -9.419   9.868  67.856  1.00  0.00     0.000 HD 
HETATM   34  C   UNL     1      -8.293   7.435  67.445  1.00  0.00    -0.116 A  
HETATM   35  C   UNL     1      -9.750   7.082  69.475  1.00  0.00    -0.160 C  
HETATM   36  C   UNL     1      -7.455   8.075  69.748  1.00  0.00    -0.089 C  
HETATM   37  N   UNL     1      -7.402   6.581  67.179  1.00  0.00    -0.085 NA 
HETATM   38  C   UNL     1      -7.531   6.375  65.744  1.00  0.00    -0.082 A  
HETATM   39  O   UNL     1      -9.025   7.826  66.368  1.00  0.00    -0.148 OA 
HETATM   40  N   UNL     1      -8.532   7.142  65.266  1.00  0.00    -0.099 NA 
BRANCH  38  41
HETATM   41  C   UNL     1      -6.727   5.477  64.865  1.00  0.00    -0.044 A  
HETATM   42  C   UNL     1      -6.022   4.374  65.369  1.00  0.00    -0.023 A  
HETATM   43  C   UNL     1      -5.317   3.503  64.506  1.00  0.00    -0.009 A  
HETATM   44  C   UNL     1      -5.286   3.729  63.131  1.00  0.00    -0.008 A  
HETATM   45  C   UNL     1      -6.011   4.787  62.608  1.00  0.00    -0.017 A  
HETATM   46  C   UNL     1      -6.722   5.648  63.461  1.00  0.00    -0.036 A  
ENDBRANCH  38  41
ENDBRANCH  24  29
TORSDOF 4
ENDMDL
MODEL       93
REMARK 921   NORMALIZED FREE ENERGY PREDICTED BY IDOCK:   30.49 KCAL/MOL
REMARK 922        TOTAL FREE ENERGY PREDICTED BY IDOCK:   35.87 KCAL/MOL
REMARK 923 INTER-LIGAND FREE ENERGY PREDICTED BY IDOCK:   36.37 KCAL/MOL
REMARK 924 INTRA-LIGAND FREE ENERGY PREDICTED BY IDOCK:   -0.51 KCAL/MOL
REMARK 927      BINDING AFFINITY PREDICTED BY RF-SCORE:    0.00 PKD
ROOT
HETATM    1  C   UNL     1     -10.813  10.059  64.503  1.00  0.00     1.950 C  
HETATM    2  O   UNL     1      -9.676  10.550  63.665  1.00  0.00    -0.291 OA 
HETATM    3  C   UNL     1      -8.503  10.136  64.298  1.00  0.00    -0.176 A  
HETATM    4  C   UNL     1      -8.751   9.424  65.445  1.00  0.00    -0.194 A  
HETATM    5  C   UNL     1      -7.963   9.224  66.595  1.00  0.00    -0.108 A  
HETATM    6  C   UNL     1      -6.804   9.971  66.563  1.00  0.00    -0.087 A  
HETATM    7  C   UNL     1      -8.871   8.649  67.848  1.00  0.00    -0.137 C  
HETATM    8  C   UNL     1     -10.501   9.182  68.167  1.00  0.00    -0.211 C  
HETATM    9  C   UNL     1      -6.412  10.606  65.334  1.00  0.00    -0.034 A  
HETATM   10  C   UNL     1      -7.231  10.621  64.173  1.00  0.00     0.249 A  
HETATM   11  N   UNL     1     -11.235   7.837  68.028  1.00  0.00     0.348 NA 
HETATM   12  C   UNL     1     -11.024   7.029  66.832  1.00  0.00    -0.201 C  
HETATM   13  O   UNL     1      -6.803  11.205  63.022  1.00  0.00    -0.246 OA 
HETATM   14  H   UNL     1      -8.791  11.644  67.276  1.00  0.00     0.000 HD 
HETATM   15  C   UNL     1     -10.335   7.697  65.642  1.00  0.00     2.039 C  
HETATM   16  H   UNL     1     -13.759  11.686  64.817  1.00  0.00     0.000 HD 
HETATM   17  H   UNL     1      -5.919  11.542  62.935  1.00  0.00     0.000 HD 
HETATM   18  C   UNL     1     -10.184   9.312  65.703  1.00  0.00     0.217 C  
HETATM   19  O   UNL     1     -13.136  11.052  64.482  1.00  0.00     1.831 OA 
HETATM   20  C   UNL     1     -10.124  10.301  67.102  1.00  0.00    -0.210 C  
HETATM   21  C   UNL     1     -11.901  11.166  65.086  1.00  0.00     0.890 C  
HETATM   22  O   UNL     1      -9.016  10.976  67.913  1.00  0.00    -0.138 OA 
HETATM   23  C   UNL     1     -10.274  11.727  66.541  1.00  0.00    -0.240 C  
HETATM   24  C   UNL     1     -11.663  11.888  66.235  1.00  0.00    -0.223 C  
ENDROOT
BRANCH  11  25
HETATM   25  C   UNL     1     -12.560   7.547  68.629  1.00  0.00     5.242 C  
BRANCH  25  26
HETATM   26  C   UNL     1     -12.617   8.033  70.090  1.00  0.00     1.115 C  
HETATM   27  C   UNL     1     -13.511   9.198  70.498  1.00  0.00     0.615 C  
HETATM   28  C   UNL     1     -12.026   9.351  70.569  1.00  0.00    -0.154 C  
ENDBRANCH  25  26
ENDBRANCH  11  25
BRANCH  24  29
HETATM   29  C   UNL     1     -12.274  12.812  67.398  1.00  0.00     0.037 C  
HETATM   30  N   UNL     1     -11.461  13.870  67.930  1.00  0.00    -0.299 N  
HETATM   31  O   UNL     1     -13.408  12.560  67.773  1.00  0.00     3.311 OA 
HETATM   32  C   UNL     1     -11.799  14.961  68.971  1.00  0.00    -0.301 C  
HETATM   33  H   UNL     1     -10.510  13.906  67.563  1.00  0.00     0.000 HD 
HETATM   34  C   UNL     1     -10.582  15.985  69.303  1.00  0.00    -0.265 A  
HETATM   35  C   UNL     1     -12.176  14.307  70.311  1.00  0.00    -0.407 C  
HETATM   36  C   UNL     1     -12.975  15.837  68.482  1.00  0.00     2.107 C  
HETATM   37  N   UNL     1     -10.622  17.181  69.706  1.00  0.00    -0.076 NA 
HETATM   38  C   UNL     1      -9.222  17.537  69.882  1.00  0.00     1.438 A  
HETATM   39  O   UNL     1      -9.325  15.477  69.196  1.00  0.00    -0.214 OA 
HETATM   40  N   UNL     1      -8.444  16.481  69.568  1.00  0.00     0.107 NA 
BRANCH  38  41
HETATM   41  C   UNL     1      -8.652  18.840  70.332  1.00  0.00     2.708 A  
HETATM   42  C   UNL     1      -9.132  20.070  69.859  1.00  0.00     0.852 A  
HETATM   43  C   UNL     1      -8.615  21.292  70.348  1.00  0.00     4.989 A  
HETATM   44  C   UNL     1      -7.598  21.309  71.302  1.00  0.00     4.893 A  
HETATM   45  C   UNL     1      -7.139  20.106  71.814  1.00  0.00     0.953 A  
HETATM   46  C   UNL     1      -7.659  18.889  71.338  1.00  0.00     4.693 A  
ENDBRANCH  38  41
ENDBRANCH  24  29
TORSDOF 4
ENDMDL
MODEL       94
REMARK 921   NORMALIZED FREE ENERGY PREDICTED BY IDOCK:   33.60 KCAL/MOL
REMARK 922        TOTAL FREE ENERGY PREDICTED BY IDOCK:   39.71 KCAL/MOL
REMARK 923 INTER-LIGAND FREE ENERGY PREDICTED BY IDOCK:   41.07 KCAL/MOL
REMARK 924 INTRA-LIGAND FREE ENERGY PREDICTED BY IDOCK:   -1.37 KCAL/MOL
REMARK 927      BINDING AFFINITY PREDICTED BY RF-SCORE:    0.00 PKD
ROOT
HETATM    1  C   UNL     1     -11.978   8.265  67.385  1.00  0.00     4.373 C  
HETATM    2  O   UNL     1     -11.646   7.049  66.579  1.00  0.00     0.805 OA 
HETATM    3  C   UNL     1     -10.270   6.853  66.699  1.00  0.00    -0.145 A  
HETATM    4  C   UNL     1      -9.674   7.797  67.498  1.00  0.00    -0.201 A  
HETATM    5  C   UNL     1      -8.349   8.272  67.533  1.00  0.00    -0.130 A  
HETATM    6  C   UNL     1      -7.586   7.751  66.508  1.00  0.00    -0.096 A  
HETATM    7  C   UNL     1      -8.244   9.687  68.377  1.00  0.00    -0.106 C  
HETATM    8  C   UNL     1      -9.463  10.933  68.303  1.00  0.00    -0.168 C  
HETATM    9  C   UNL     1      -8.099   6.649  65.743  1.00  0.00    -0.122 A  
HETATM   10  C   UNL     1      -9.420   6.146  65.893  1.00  0.00     0.063 A  
HETATM   11  N   UNL     1      -9.871  10.973  69.786  1.00  0.00     0.309 NA 
HETATM   12  C   UNL     1     -10.234   9.731  70.459  1.00  0.00    -0.255 C  
HETATM   13  O   UNL     1      -9.850   5.079  65.170  1.00  0.00    -0.362 OA 
HETATM   14  H   UNL     1      -9.081   9.724  65.444  1.00  0.00     0.000 HD 
HETATM   15  C   UNL     1     -10.493   8.504  69.586  1.00  0.00    -0.221 C  
HETATM   16  H   UNL     1     -14.458  10.423  66.599  1.00  0.00     0.000 HD 
HETATM   17  H   UNL     1      -9.259   4.588  64.611  1.00  0.00     0.000 HD 
HETATM   18  C   UNL     1     -10.647   8.767  67.991  1.00  0.00    -0.218 C  
HETATM   19  O   UNL     1     -14.031   9.694  67.034  1.00  0.00    17.497 OA 
HETATM   20  C   UNL     1      -9.986  10.061  67.081  1.00  0.00    -0.201 C  
HETATM   21  C   UNL     1     -12.723   9.537  66.626  1.00  0.00    12.062 C  
HETATM   22  O   UNL     1      -8.768  10.245  66.174  1.00  0.00    -0.145 OA 
HETATM   23  C   UNL     1     -10.700   9.945  65.721  1.00  0.00     0.313 C  
HETATM   24  C   UNL     1     -12.013  10.480  65.916  1.00  0.00     3.014 C  
ENDROOT
BRANCH  11  25
HETATM   25  C   UNL     1     -10.526  12.133  70.437  1.00  0.00     2.718 C  
BRANCH  25  26
HETATM   26  C   UNL     1     -11.740  11.681  71.271  1.00  0.00     0.901 C  
HETATM   27  C   UNL     1     -12.991  12.546  71.376  1.00  0.00    -0.347 C  
HETATM   28  C   UNL     1     -12.149  12.323  72.590  1.00  0.00     3.678 C  
ENDBRANCH  25  26
ENDBRANCH  11  25
BRANCH  24  29
HETATM   29  C   UNL     1     -12.010  11.934  65.233  1.00  0.00    -0.012 C  
HETATM   30  N   UNL     1     -11.310  12.999  65.895  1.00  0.00    -0.303 N  
HETATM   31  O   UNL     1     -12.613  12.056  64.179  1.00  0.00    -0.395 OA 
HETATM   32  C   UNL     1     -11.058  14.456  65.446  1.00  0.00    -0.331 C  
HETATM   33  H   UNL     1     -10.918  12.756  66.804  1.00  0.00     0.000 HD 
HETATM   34  C   UNL     1     -10.207  15.355  66.499  1.00  0.00    -0.280 A  
HETATM   35  C   UNL     1     -12.399  15.186  65.259  1.00  0.00     0.246 C  
HETATM   36  C   UNL     1     -10.269  14.491  64.118  1.00  0.00     1.374 C  
HETATM   37  N   UNL     1      -9.465  16.355  66.290  1.00  0.00    -0.296 NA 
HETATM   38  C   UNL     1      -9.040  16.758  67.622  1.00  0.00    -0.218 A  
HETATM   39  O   UNL     1     -10.352  15.036  67.813  1.00  0.00    -0.242 OA 
HETATM   40  N   UNL     1      -9.596  15.942  68.541  1.00  0.00    -0.200 NA 
BRANCH  38  41
HETATM   41  C   UNL     1      -8.136  17.884  68.000  1.00  0.00    -0.252 A  
HETATM   42  C   UNL     1      -6.768  17.878  67.693  1.00  0.00    -0.192 A  
HETATM   43  C   UNL     1      -5.945  18.984  68.008  1.00  0.00    -0.211 A  
HETATM   44  C   UNL     1      -6.468  20.104  68.653  1.00  0.00    -0.341 A  
HETATM   45  C   UNL     1      -7.825  20.148  68.927  1.00  0.00     0.101 A  
HETATM   46  C   UNL     1      -8.648  19.055  68.605  1.00  0.00    -0.389 A  
ENDBRANCH  38  41
ENDBRANCH  24  29
TORSDOF 4
ENDMDL
MODEL       95
REMARK 921   NORMALIZED FREE ENERGY PREDICTED BY IDOCK:   38.82 KCAL/MOL
REMARK 922        TOTAL FREE ENERGY PREDICTED BY IDOCK:   46.14 KCAL/MOL
REMARK 923 INTER-LIGAND FREE ENERGY PREDICTED BY IDOCK:   47.53 KCAL/MOL
REMARK 924 INTRA-LIGAND FREE ENERGY PREDICTED BY IDOCK:   -1.39 KCAL/MOL
REMARK 927      BINDING AFFINITY PREDICTED BY RF-SCORE:    0.00 PKD
ROOT
HETATM    1  C   UNL     1     -11.588   4.657  69.492  1.00  0.00     5.569 C  
HETATM    2  O   UNL     1     -11.618   3.338  70.197  1.00  0.00     7.275 OA 
HETATM    3  C   UNL     1     -11.788   3.612  71.554  1.00  0.00     4.990 A  
HETATM    4  C   UNL     1     -11.881   4.957  71.809  1.00  0.00     1.397 A  
HETATM    5  C   UNL     1     -11.598   5.698  72.972  1.00  0.00    -0.180 A  
HETATM    6  C   UNL     1     -11.036   4.914  73.959  1.00  0.00    -0.040 A  
HETATM    7  C   UNL     1     -11.473   7.310  72.638  1.00  0.00    -0.304 C  
HETATM    8  C   UNL     1     -10.731   7.927  71.184  1.00  0.00    -0.227 C  
HETATM    9  C   UNL     1     -11.059   3.485  73.817  1.00  0.00    -0.286 A  
HETATM   10  C   UNL     1     -11.510   2.828  72.641  1.00  0.00     0.772 A  
HETATM   11  N   UNL     1     -11.933   8.682  70.593  1.00  0.00    -0.122 NA 
HETATM   12  C   UNL     1     -13.209   7.990  70.444  1.00  0.00     1.191 C  
HETATM   13  O   UNL     1     -11.544   1.471  72.565  1.00  0.00     0.119 OA 
HETATM   14  H   UNL     1      -9.077   5.473  72.197  1.00  0.00     0.000 HD 
HETATM   15  C   UNL     1     -13.207   6.469  70.589  1.00  0.00     1.175 C  
HETATM   16  H   UNL     1      -9.779   5.259  66.702  1.00  0.00     0.000 HD 
HETATM   17  H   UNL     1     -11.351   0.927  73.319  1.00  0.00     0.000 HD 
HETATM   18  C   UNL     1     -11.756   5.741  70.583  1.00  0.00     0.415 C  
HETATM   19  O   UNL     1     -10.541   5.043  67.227  1.00  0.00    -0.144 OA 
HETATM   20  C   UNL     1     -10.248   6.419  71.037  1.00  0.00    -0.192 C  
HETATM   21  C   UNL     1     -10.259   5.034  68.576  1.00  0.00    -0.073 C  
HETATM   22  O   UNL     1      -9.365   6.375  72.285  1.00  0.00    -0.143 OA 
HETATM   23  C   UNL     1      -9.224   5.378  70.549  1.00  0.00    -0.183 C  
HETATM   24  C   UNL     1      -9.115   5.562  69.134  1.00  0.00    -0.127 C  
ENDROOT
BRANCH  11  25
HETATM   25  C   UNL     1     -11.819   9.787  69.609  1.00  0.00     0.196 C  
BRANCH  25  26
HETATM   26  C   UNL     1     -12.911   9.675  68.528  1.00  0.00     5.368 C  
HETATM   27  C   UNL     1     -12.567   9.268  67.100  1.00  0.00     9.940 C  
HETATM   28  C   UNL     1     -13.061  10.652  67.370  1.00  0.00     8.730 C  
ENDBRANCH  25  26
ENDBRANCH  11  25
BRANCH  24  29
HETATM   29  C   UNL     1      -7.721   6.321  68.888  1.00  0.00    -0.097 C  
HETATM   30  N   UNL     1      -7.689   7.752  69.014  1.00  0.00    -0.106 N  
HETATM   31  O   UNL     1      -6.755   5.634  68.600  1.00  0.00    -0.053 OA 
HETATM   32  C   UNL     1      -6.499   8.734  68.927  1.00  0.00    -0.049 C  
HETATM   33  H   UNL     1      -8.595   8.188  69.188  1.00  0.00     0.000 HD 
HETATM   34  C   UNL     1      -6.891  10.298  69.131  1.00  0.00    -0.062 A  
HETATM   35  C   UNL     1      -5.845   8.643  67.538  1.00  0.00    -0.043 C  
HETATM   36  C   UNL     1      -5.444   8.413  70.010  1.00  0.00    -0.022 C  
HETATM   37  N   UNL     1      -6.190  11.255  69.562  1.00  0.00    -0.086 NA 
HETATM   38  C   UNL     1      -7.069  12.410  69.450  1.00  0.00     0.153 A  
HETATM   39  O   UNL     1      -8.137  10.660  68.725  1.00  0.00    -0.121 OA 
HETATM   40  N   UNL     1      -8.255  12.027  68.933  1.00  0.00     0.045 NA 
BRANCH  38  41
HETATM   41  C   UNL     1      -6.783  13.825  69.824  1.00  0.00     0.027 A  
HETATM   42  C   UNL     1      -6.798  14.263  71.156  1.00  0.00     1.037 A  
HETATM   43  C   UNL     1      -6.464  15.597  71.489  1.00  0.00     1.719 A  
HETATM   44  C   UNL     1      -6.131  16.520  70.498  1.00  0.00     0.291 A  
HETATM   45  C   UNL     1      -6.069  16.097  69.181  1.00  0.00    -0.139 A  
HETATM   46  C   UNL     1      -6.389  14.769  68.847  1.00  0.00    -0.087 A  
ENDBRANCH  38  41
ENDBRANCH  24  29
TORSDOF 4
ENDMDL
MODEL       96
REMARK 921   NORMALIZED FREE ENERGY PREDICTED BY IDOCK:   40.42 KCAL/MOL
REMARK 922        TOTAL FREE ENERGY PREDICTED BY IDOCK:   48.12 KCAL/MOL
REMARK 923 INTER-LIGAND FREE ENERGY PREDICTED BY IDOCK:   45.37 KCAL/MOL
REMARK 924 INTRA-LIGAND FREE ENERGY PREDICTED BY IDOCK:    2.76 KCAL/MOL
REMARK 927      BINDING AFFINITY PREDICTED BY RF-SCORE:    0.00 PKD
ROOT
HETATM    1  C   UNL     1      -7.697   6.365  65.445  1.00  0.00    -0.098 C  
HETATM    2  O   UNL     1      -8.638   5.357  66.025  1.00  0.00    -0.119 OA 
HETATM    3  C   UNL     1      -9.926   5.763  65.674  1.00  0.00     0.373 A  
HETATM    4  C   UNL     1      -9.926   6.914  64.925  1.00  0.00     2.964 A  
HETATM    5  C   UNL     1     -10.915   7.902  64.753  1.00  0.00     9.579 A  
HETATM    6  C   UNL     1     -12.003   7.692  65.573  1.00  0.00    10.397 A  
HETATM    7  C   UNL     1     -10.277   9.275  64.095  1.00  0.00     2.612 C  
HETATM    8  C   UNL     1      -8.699   9.889  64.515  1.00  0.00    -0.198 C  
HETATM    9  C   UNL     1     -12.135   6.435  66.256  1.00  0.00     3.784 A  
HETATM   10  C   UNL     1     -11.126   5.434  66.243  1.00  0.00     0.186 A  
HETATM   11  N   UNL     1      -8.033   9.837  63.129  1.00  0.00    -0.137 NA 
HETATM   12  C   UNL     1      -8.079   8.598  62.361  1.00  0.00    -0.167 C  
HETATM   13  O   UNL     1     -11.310   4.246  66.876  1.00  0.00     1.308 OA 
HETATM   14  H   UNL     1     -10.076   8.792  67.100  1.00  0.00     0.000 HD 
HETATM   15  C   UNL     1      -8.508   7.328  63.096  1.00  0.00     0.284 C  
HETATM   16  H   UNL     1      -4.760   7.236  66.872  1.00  0.00     0.000 HD 
HETATM   17  H   UNL     1     -12.143   4.017  67.271  1.00  0.00     0.000 HD 
HETATM   18  C   UNL     1      -8.570   7.413  64.716  1.00  0.00     0.190 C  
HETATM   19  O   UNL     1      -5.352   6.778  66.286  1.00  0.00    -0.017 OA 
HETATM   20  C   UNL     1      -8.815   8.811  65.677  1.00  0.00    -0.199 C  
HETATM   21  C   UNL     1      -6.664   7.162  66.468  1.00  0.00    -0.057 C  
HETATM   22  O   UNL     1     -10.006   9.437  66.406  1.00  0.00    -0.244 OA 
HETATM   23  C   UNL     1      -8.485   8.329  67.102  1.00  0.00    -0.123 C  
HETATM   24  C   UNL     1      -7.056   8.274  67.180  1.00  0.00    -0.079 C  
ENDROOT
BRANCH  11  25
HETATM   25  C   UNL     1      -6.854  10.651  62.742  1.00  0.00    -0.012 C  
BRANCH  25  26
HETATM   26  C   UNL     1      -5.873  10.791  63.921  1.00  0.00     0.102 C  
HETATM   27  C   UNL     1      -5.159   9.575  64.500  1.00  0.00    -0.050 C  
HETATM   28  C   UNL     1      -6.167  10.299  65.332  1.00  0.00    -0.124 C  
ENDBRANCH  25  26
ENDBRANCH  11  25
BRANCH  24  29
HETATM   29  C   UNL     1      -6.605   9.554  68.039  1.00  0.00    -0.062 C  
HETATM   30  N   UNL     1      -6.903  10.862  67.526  1.00  0.00    -0.077 N  
HETATM   31  O   UNL     1      -6.024   9.343  69.091  1.00  0.00    -0.041 OA 
HETATM   32  C   UNL     1      -6.680  12.255  68.157  1.00  0.00    -0.069 C  
HETATM   33  H   UNL     1      -7.328  10.873  66.599  1.00  0.00     0.000 HD 
HETATM   34  C   UNL     1      -7.164  13.504  67.238  1.00  0.00     0.013 A  
HETATM   35  C   UNL     1      -5.179  12.479  68.414  1.00  0.00    -0.057 C  
HETATM   36  C   UNL     1      -7.450  12.381  69.491  1.00  0.00     0.556 C  
HETATM   37  N   UNL     1      -7.546  14.657  67.580  1.00  0.00    -0.164 NA 
HETATM   38  C   UNL     1      -7.782  15.338  66.316  1.00  0.00     1.130 A  
HETATM   39  O   UNL     1      -7.096  13.319  65.892  1.00  0.00     2.913 OA 
HETATM   40  N   UNL     1      -7.497  14.505  65.294  1.00  0.00     7.458 NA 
BRANCH  38  41
HETATM   41  C   UNL     1      -8.261  16.733  66.095  1.00  0.00    -0.300 A  
HETATM   42  C   UNL     1      -9.287  17.037  65.189  1.00  0.00     1.715 A  
HETATM   43  C   UNL     1      -9.764  18.360  65.043  1.00  0.00     2.564 A  
HETATM   44  C   UNL     1      -9.213  19.405  65.784  1.00  0.00     0.165 A  
HETATM   45  C   UNL     1      -8.228  19.121  66.715  1.00  0.00    -0.292 A  
HETATM   46  C   UNL     1      -7.759  17.805  66.871  1.00  0.00    -0.242 A  
ENDBRANCH  38  41
ENDBRANCH  24  29
TORSDOF 4
ENDMDL
MODEL       97
REMARK 921   NORMALIZED FREE ENERGY PREDICTED BY IDOCK:   41.91 KCAL/MOL
REMARK 922        TOTAL FREE ENERGY PREDICTED BY IDOCK:   49.96 KCAL/MOL
REMARK 923 INTER-LIGAND FREE ENERGY PREDICTED BY IDOCK:   51.32 KCAL/MOL
REMARK 924 INTRA-LIGAND FREE ENERGY PREDICTED BY IDOCK:   -1.37 KCAL/MOL
REMARK 927      BINDING AFFINITY PREDICTED BY RF-SCORE:    0.00 PKD
ROOT
HETATM    1  C   UNL     1      -9.693  18.004  71.204  1.00  0.00     5.060 C  
HETATM    2  O   UNL     1      -9.070  19.219  70.593  1.00  0.00     1.763 OA 
HETATM    3  C   UNL     1      -9.343  19.164  69.226  1.00  0.00    -0.069 A  
HETATM    4  C   UNL     1     -10.079  18.057  68.883  1.00  0.00    -0.352 A  
HETATM    5  C   UNL     1     -10.185  17.361  67.663  1.00  0.00    -0.342 A  
HETATM    6  C   UNL     1      -9.306  17.843  66.716  1.00  0.00    -0.279 A  
HETATM    7  C   UNL     1     -10.865  15.873  67.883  1.00  0.00    -0.327 C  
HETATM    8  C   UNL     1     -10.529  14.867  69.268  1.00  0.00    -0.241 C  
HETATM    9  C   UNL     1      -8.629  19.087  66.956  1.00  0.00    -0.308 A  
HETATM   10  C   UNL     1      -8.710  19.791  68.187  1.00  0.00    -0.284 A  
HETATM   11  N   UNL     1     -11.952  14.751  69.843  1.00  0.00    -0.309 NA 
HETATM   12  C   UNL     1     -12.728  15.964  70.077  1.00  0.00     0.263 C  
HETATM   13  O   UNL     1      -8.079  20.983  68.356  1.00  0.00     0.588 OA 
HETATM   14  H   UNL     1      -7.881  16.271  68.375  1.00  0.00     0.000 HD 
HETATM   15  C   UNL     1     -11.983  17.298  70.036  1.00  0.00     3.279 C  
HETATM   16  H   UNL     1      -8.427  16.391  73.891  1.00  0.00     0.000 HD 
HETATM   17  H   UNL     1      -7.639  21.419  67.636  1.00  0.00     0.000 HD 
HETATM   18  C   UNL     1     -10.361  17.224  70.048  1.00  0.00     0.452 C  
HETATM   19  O   UNL     1      -8.983  16.990  73.406  1.00  0.00    14.376 OA 
HETATM   20  C   UNL     1      -9.373  15.933  69.503  1.00  0.00    -0.196 C  
HETATM   21  C   UNL     1      -8.723  16.960  72.052  1.00  0.00    12.556 C  
HETATM   22  O   UNL     1      -8.572  15.634  68.235  1.00  0.00    -0.154 OA 
HETATM   23  C   UNL     1      -7.974  16.304  70.030  1.00  0.00     1.043 C  
HETATM   24  C   UNL     1      -7.979  15.985  71.425  1.00  0.00     5.517 C  
ENDROOT
BRANCH  11  25
HETATM   25  C   UNL     1     -12.398  13.661  70.745  1.00  0.00    -0.371 C  
BRANCH  25  26
HETATM   26  C   UNL     1     -12.899  12.449  69.936  1.00  0.00     0.594 C  
HETATM   27  C   UNL     1     -13.533  11.248  70.627  1.00  0.00     0.791 C  
HETATM   28  C   UNL     1     -12.217  11.089  69.938  1.00  0.00    -0.408 C  
ENDBRANCH  25  26
ENDBRANCH  11  25
BRANCH  24  29
HETATM   29  C   UNL     1      -7.134  14.627  71.577  1.00  0.00     2.010 C  
HETATM   30  N   UNL     1      -7.392  13.554  70.656  1.00  0.00     1.381 N  
HETATM   31  O   UNL     1      -6.313  14.578  72.478  1.00  0.00     0.345 OA 
HETATM   32  C   UNL     1      -6.689  12.187  70.497  1.00  0.00     1.220 C  
HETATM   33  H   UNL     1      -8.159  13.722  70.005  1.00  0.00     0.000 HD 
HETATM   34  C   UNL     1      -7.290  11.247  69.316  1.00  0.00    -0.068 A  
HETATM   35  C   UNL     1      -6.829  11.373  71.795  1.00  0.00     4.647 C  
HETATM   36  C   UNL     1      -5.191  12.376  70.172  1.00  0.00    -0.101 C  
HETATM   37  N   UNL     1      -6.725  10.346  68.637  1.00  0.00    -0.052 NA 
HETATM   38  C   UNL     1      -7.790   9.826  67.791  1.00  0.00    -0.094 A  
HETATM   39  O   UNL     1      -8.615  11.396  69.048  1.00  0.00    -0.066 OA 
HETATM   40  N   UNL     1      -8.940  10.478  68.060  1.00  0.00    -0.133 NA 
BRANCH  38  41
HETATM   41  C   UNL     1      -7.708   8.746  66.766  1.00  0.00    -0.094 A  
HETATM   42  C   UNL     1      -8.600   8.671  65.686  1.00  0.00    -0.191 A  
HETATM   43  C   UNL     1      -8.463   7.672  64.694  1.00  0.00     0.077 A  
HETATM   44  C   UNL     1      -7.448   6.720  64.773  1.00  0.00    -0.096 A  
HETATM   45  C   UNL     1      -6.531   6.801  65.808  1.00  0.00    -0.050 A  
HETATM   46  C   UNL     1      -6.657   7.799  66.790  1.00  0.00    -0.058 A  
ENDBRANCH  38  41
ENDBRANCH  24  29
TORSDOF 4
ENDMDL
MODEL       98
REMARK 921   NORMALIZED FREE ENERGY PREDICTED BY IDOCK:   57.83 KCAL/MOL
REMARK 922        TOTAL FREE ENERGY PREDICTED BY IDOCK:   69.59 KCAL/MOL
REMARK 923 INTER-LIGAND FREE ENERGY PREDICTED BY IDOCK:   70.97 KCAL/MOL
REMARK 924 INTRA-LIGAND FREE ENERGY PREDICTED BY IDOCK:   -1.37 KCAL/MOL
REMARK 927      BINDING AFFINITY PREDICTED BY RF-SCORE:    0.00 PKD
ROOT
HETATM    1  C   UNL     1     -11.743   5.081  69.957  1.00  0.00     3.896 C  
HETATM    2  O   UNL     1     -12.810   4.940  68.918  1.00  0.00    12.596 OA 
HETATM    3  C   UNL     1     -12.172   4.987  67.679  1.00  0.00     8.758 A  
HETATM    4  C   UNL     1     -10.812   5.133  67.796  1.00  0.00     0.272 A  
HETATM    5  C   UNL     1      -9.862   5.671  66.906  1.00  0.00    -0.178 A  
HETATM    6  C   UNL     1     -10.455   6.227  65.791  1.00  0.00     0.983 A  
HETATM    7  C   UNL     1      -8.440   5.998  67.678  1.00  0.00    -0.107 C  
HETATM    8  C   UNL     1      -8.360   6.634  69.300  1.00  0.00    -0.124 C  
HETATM    9  C   UNL     1     -11.845   5.969  65.534  1.00  0.00     3.984 A  
HETATM   10  C   UNL     1     -12.688   5.278  66.446  1.00  0.00     8.620 A  
HETATM   11  N   UNL     1      -7.576   5.496  69.976  1.00  0.00    -0.076 NA 
HETATM   12  C   UNL     1      -8.041   4.122  69.826  1.00  0.00    -0.055 C  
HETATM   13  O   UNL     1     -13.990   5.027  66.144  1.00  0.00    12.070 OA 
HETATM   14  H   UNL     1     -10.730   8.010  67.792  1.00  0.00     0.000 HD 
HETATM   15  C   UNL     1      -9.449   3.910  69.271  1.00  0.00    -0.256 C  
HETATM   16  H   UNL     1     -12.212   6.593  72.943  1.00  0.00     0.000 HD 
HETATM   17  H   UNL     1     -14.349   5.228  65.288  1.00  0.00     0.000 HD 
HETATM   18  C   UNL     1     -10.404   5.220  69.195  1.00  0.00    -0.264 C  
HETATM   19  O   UNL     1     -12.146   5.880  72.319  1.00  0.00    -0.275 OA 
HETATM   20  C   UNL     1      -9.916   6.859  69.068  1.00  0.00    -0.158 C  
HETATM   21  C   UNL     1     -11.859   6.326  71.046  1.00  0.00    -0.154 C  
HETATM   22  O   UNL     1      -9.799   7.876  67.931  1.00  0.00    -0.154 OA 
HETATM   23  C   UNL     1     -11.216   7.642  69.333  1.00  0.00     0.117 C  
HETATM   24  C   UNL     1     -11.422   7.598  70.749  1.00  0.00    -0.295 C  
ENDROOT
BRANCH  11  25
HETATM   25  C   UNL     1      -6.800   5.653  71.231  1.00  0.00    -0.062 C  
BRANCH  25  26
HETATM   26  C   UNL     1      -7.738   5.869  72.434  1.00  0.00    -0.102 C  
HETATM   27  C   UNL     1      -8.127   7.271  72.887  1.00  0.00    -0.124 C  
HETATM   28  C   UNL     1      -7.281   6.420  73.777  1.00  0.00    -0.082 C  
ENDBRANCH  25  26
ENDBRANCH  11  25
BRANCH  24  29
HETATM   29  C   UNL     1     -11.017   9.049  71.306  1.00  0.00    -0.313 C  
HETATM   30  N   UNL     1     -11.033  10.160  70.396  1.00  0.00    -0.307 N  
HETATM   31  O   UNL     1     -10.710   9.128  72.485  1.00  0.00     0.108 OA 
HETATM   32  C   UNL     1     -10.785  11.664  70.655  1.00  0.00     2.261 C  
HETATM   33  H   UNL     1     -11.242   9.919  69.428  1.00  0.00     0.000 HD 
HETATM   34  C   UNL     1     -10.901  12.608  69.337  1.00  0.00     0.102 A  
HETATM   35  C   UNL     1      -9.361  11.874  71.198  1.00  0.00    10.394 C  
HETATM   36  C   UNL     1     -11.807  12.220  71.671  1.00  0.00     1.634 C  
HETATM   37  N   UNL     1     -11.205  13.830  69.245  1.00  0.00    -0.255 NA 
HETATM   38  C   UNL     1     -11.073  14.117  67.825  1.00  0.00    -0.276 A  
HETATM   39  O   UNL     1     -10.563  12.029  68.154  1.00  0.00    -0.196 OA 
HETATM   40  N   UNL     1     -10.676  13.004  67.173  1.00  0.00    -0.253 NA 
BRANCH  38  41
HETATM   41  C   UNL     1     -11.319  15.408  67.118  1.00  0.00    -0.203 A  
HETATM   42  C   UNL     1     -10.725  15.709  65.884  1.00  0.00    -0.336 A  
HETATM   43  C   UNL     1     -11.022  16.914  65.206  1.00  0.00    -0.049 A  
HETATM   44  C   UNL     1     -11.899  17.848  65.758  1.00  0.00     3.458 A  
HETATM   45  C   UNL     1     -12.528  17.552  66.956  1.00  0.00     4.883 A  
HETATM   46  C   UNL     1     -12.244  16.349  67.626  1.00  0.00     1.486 A  
ENDBRANCH  38  41
ENDBRANCH  24  29
TORSDOF 4
ENDMDL
MODEL       99
REMARK 921   NORMALIZED FREE ENERGY PREDICTED BY IDOCK:   61.83 KCAL/MOL
REMARK 922        TOTAL FREE ENERGY PREDICTED BY IDOCK:   74.53 KCAL/MOL
REMARK 923 INTER-LIGAND FREE ENERGY PREDICTED BY IDOCK:   75.77 KCAL/MOL
REMARK 924 INTRA-LIGAND FREE ENERGY PREDICTED BY IDOCK:   -1.24 KCAL/MOL
REMARK 927      BINDING AFFINITY PREDICTED BY RF-SCORE:    0.00 PKD
ROOT
HETATM    1  C   UNL     1     -11.692   6.037  66.889  1.00  0.00     1.351 C  
HETATM    2  O   UNL     1     -12.370   5.677  65.605  1.00  0.00     2.695 OA 
HETATM    3  C   UNL     1     -11.505   6.052  64.576  1.00  0.00     6.666 A  
HETATM    4  C   UNL     1     -10.341   6.605  65.047  1.00  0.00     3.575 A  
HETATM    5  C   UNL     1      -9.438   7.505  64.448  1.00  0.00     2.343 A  
HETATM    6  C   UNL     1      -9.896   7.960  63.228  1.00  0.00     4.874 A  
HETATM    7  C   UNL     1      -8.434   8.179  65.570  1.00  0.00    -0.174 C  
HETATM    8  C   UNL     1      -8.961   8.635  67.170  1.00  0.00    -0.132 C  
HETATM    9  C   UNL     1     -11.017   7.306  62.612  1.00  0.00    11.709 A  
HETATM   10  C   UNL     1     -11.777   6.293  63.257  1.00  0.00    11.232 A  
HETATM   11  N   UNL     1      -8.032   7.736  68.004  1.00  0.00    -0.120 NA 
HETATM   12  C   UNL     1      -7.965   6.309  67.710  1.00  0.00    -0.114 C  
HETATM   13  O   UNL     1     -12.809   5.679  62.621  1.00  0.00     3.418 OA 
HETATM   14  H   UNL     1     -11.217   9.346  65.123  1.00  0.00     0.000 HD 
HETATM   15  C   UNL     1      -9.046   5.725  66.802  1.00  0.00    -0.126 C  
HETATM   16  H   UNL     1     -13.338   7.003  69.678  1.00  0.00     0.000 HD 
HETATM   17  H   UNL     1     -12.998   5.846  61.705  1.00  0.00     0.000 HD 
HETATM   18  C   UNL     1     -10.333   6.669  66.505  1.00  0.00    -0.120 C  
HETATM   19  O   UNL     1     -12.891   6.416  69.079  1.00  0.00     3.537 OA 
HETATM   20  C   UNL     1     -10.400   8.382  66.544  1.00  0.00    -0.129 C  
HETATM   21  C   UNL     1     -12.472   7.060  67.934  1.00  0.00     5.637 C  
HETATM   22  O   UNL     1     -10.356   9.497  65.498  1.00  0.00    -0.063 OA 
HETATM   23  C   UNL     1     -11.909   8.684  66.476  1.00  0.00     5.555 C  
HETATM   24  C   UNL     1     -12.423   8.429  67.788  1.00  0.00     7.697 C  
ENDROOT
BRANCH  11  25
HETATM   25  C   UNL     1      -7.676   7.997  69.421  1.00  0.00    -0.104 C  
BRANCH  25  26
HETATM   26  C   UNL     1      -6.794   6.865  69.982  1.00  0.00    -0.057 C  
HETATM   27  C   UNL     1      -6.827   6.499  71.461  1.00  0.00    -0.067 C  
HETATM   28  C   UNL     1      -5.587   7.097  70.881  1.00  0.00    -0.027 C  
ENDBRANCH  25  26
ENDBRANCH  11  25
BRANCH  24  29
HETATM   29  C   UNL     1     -12.666   9.867  68.461  1.00  0.00     4.048 C  
HETATM   30  N   UNL     1     -11.563  10.784  68.533  1.00  0.00    -0.413 N  
HETATM   31  O   UNL     1     -13.787  10.103  68.881  1.00  0.00     3.928 OA 
HETATM   32  C   UNL     1     -11.513  12.246  69.032  1.00  0.00    -0.297 C  
HETATM   33  H   UNL     1     -10.673  10.412  68.203  1.00  0.00     0.000 HD 
HETATM   34  C   UNL     1     -10.049  12.945  68.945  1.00  0.00     0.060 A  
HETATM   35  C   UNL     1     -11.920  12.308  70.514  1.00  0.00    -0.296 C  
HETATM   36  C   UNL     1     -12.464  13.140  68.204  1.00  0.00     0.401 C  
HETATM   37  N   UNL     1      -9.743  14.164  68.825  1.00  0.00    -0.190 NA 
HETATM   38  C   UNL     1      -8.289  14.166  68.870  1.00  0.00    -0.003 A  
HETATM   39  O   UNL     1      -8.980  12.116  69.081  1.00  0.00     0.304 OA 
HETATM   40  N   UNL     1      -7.840  12.904  69.031  1.00  0.00     0.154 NA 
BRANCH  38  41
HETATM   41  C   UNL     1      -7.365  15.332  68.764  1.00  0.00    -0.131 A  
HETATM   42  C   UNL     1      -6.620  15.798  69.857  1.00  0.00    -0.099 A  
HETATM   43  C   UNL     1      -5.705  16.867  69.715  1.00  0.00    -0.210 A  
HETATM   44  C   UNL     1      -5.533  17.503  68.486  1.00  0.00    -0.155 A  
HETATM   45  C   UNL     1      -6.228  17.031  67.384  1.00  0.00    -0.176 A  
HETATM   46  C   UNL     1      -7.129  15.961  67.519  1.00  0.00    -0.207 A  
ENDBRANCH  38  41
ENDBRANCH  24  29
TORSDOF 4
ENDMDL
MODEL      100
REMARK 921   NORMALIZED FREE ENERGY PREDICTED BY IDOCK:   62.94 KCAL/MOL
REMARK 922        TOTAL FREE ENERGY PREDICTED BY IDOCK:   75.90 KCAL/MOL
REMARK 923 INTER-LIGAND FREE ENERGY PREDICTED BY IDOCK:   77.56 KCAL/MOL
REMARK 924 INTRA-LIGAND FREE ENERGY PREDICTED BY IDOCK:   -1.66 KCAL/MOL
REMARK 927      BINDING AFFINITY PREDICTED BY RF-SCORE:    0.00 PKD
ROOT
HETATM    1  C   UNL     1      -7.244  11.566  70.442  1.00  0.00     1.612 C  
HETATM    2  O   UNL     1      -7.729  12.025  71.780  1.00  0.00     8.572 OA 
HETATM    3  C   UNL     1      -7.845  10.886  72.578  1.00  0.00    10.630 A  
HETATM    4  C   UNL     1      -7.481   9.742  71.912  1.00  0.00     1.504 A  
HETATM    5  C   UNL     1      -7.853   8.399  72.114  1.00  0.00    -0.167 A  
HETATM    6  C   UNL     1      -8.826   8.273  73.084  1.00  0.00    -0.292 A  
HETATM    7  C   UNL     1      -7.477   7.471  70.802  1.00  0.00    -0.076 C  
HETATM    8  C   UNL     1      -7.645   8.033  69.158  1.00  0.00    -0.097 C  
HETATM    9  C   UNL     1      -9.131   9.401  73.922  1.00  0.00     4.406 A  
HETATM   10  C   UNL     1      -8.578  10.693  73.716  1.00  0.00    12.702 A  
HETATM   11  N   UNL     1      -6.181   7.908  68.702  1.00  0.00    -0.039 NA 
HETATM   12  C   UNL     1      -5.128   8.518  69.506  1.00  0.00    -0.030 C  
HETATM   13  O   UNL     1      -8.870  11.722  74.556  1.00  0.00    12.059 OA 
HETATM   14  H   UNL     1     -10.067   9.083  70.835  1.00  0.00     0.000 HD 
HETATM   15  C   UNL     1      -5.551   9.511  70.587  1.00  0.00    -0.049 C  
HETATM   16  H   UNL     1      -8.074  13.059  67.526  1.00  0.00     0.000 HD 
HETATM   17  H   UNL     1      -9.379  11.588  75.346  1.00  0.00     0.000 HD 
HETATM   18  C   UNL     1      -7.089  10.029  70.535  1.00  0.00    -0.080 C  
HETATM   19  O   UNL     1      -7.550  12.855  68.292  1.00  0.00    -0.117 OA 
HETATM   20  C   UNL     1      -8.440   9.216  69.861  1.00  0.00    -0.147 C  
HETATM   21  C   UNL     1      -8.157  11.922  69.105  1.00  0.00     0.300 C  
HETATM   22  O   UNL     1      -9.592   8.376  70.414  1.00  0.00    -0.165 OA 
HETATM   23  C   UNL     1      -9.536  10.298  69.840  1.00  0.00    -0.082 C  
HETATM   24  C   UNL     1      -9.233  11.148  68.729  1.00  0.00    -0.151 C  
ENDROOT
BRANCH  11  25
HETATM   25  C   UNL     1      -5.759   7.796  67.284  1.00  0.00    -0.037 C  
BRANCH  25  26
HETATM   26  C   UNL     1      -6.191   9.040  66.483  1.00  0.00    -0.065 C  
HETATM   27  C   UNL     1      -5.238   9.720  65.508  1.00  0.00    -0.044 C  
HETATM   28  C   UNL     1      -5.662  10.443  66.744  1.00  0.00    -0.049 C  
ENDBRANCH  25  26
ENDBRANCH  11  25
BRANCH  24  29
HETATM   29  C   UNL     1     -10.280  10.764  67.573  1.00  0.00    -0.196 C  
HETATM   30  N   UNL     1     -10.090   9.531  66.860  1.00  0.00    -0.213 N  
HETATM   31  O   UNL     1     -11.187  11.551  67.358  1.00  0.00    -0.271 OA 
HETATM   32  C   UNL     1     -10.967   8.860  65.778  1.00  0.00     2.749 C  
HETATM   33  H   UNL     1      -9.244   9.018  67.106  1.00  0.00     0.000 HD 
HETATM   34  C   UNL     1     -10.393   7.447  65.217  1.00  0.00     3.462 A  
HETATM   35  C   UNL     1     -11.083   9.783  64.552  1.00  0.00     3.994 C  
HETATM   36  C   UNL     1     -12.380   8.560  66.327  1.00  0.00    10.877 C  
HETATM   37  N   UNL     1     -11.012   6.465  64.722  1.00  0.00     5.480 NA 
HETATM   38  C   UNL     1      -9.954   5.537  64.351  1.00  0.00     1.501 A  
HETATM   39  O   UNL     1      -9.040   7.309  65.216  1.00  0.00     0.180 OA 
HETATM   40  N   UNL     1      -8.755   6.071  64.657  1.00  0.00     0.079 NA 
BRANCH  38  41
HETATM   41  C   UNL     1     -10.089   4.188  63.726  1.00  0.00    -0.080 A  
HETATM   42  C   UNL     1     -11.250   3.792  63.047  1.00  0.00     0.254 A  
HETATM   43  C   UNL     1     -11.329   2.531  62.411  1.00  0.00    -0.072 A  
HETATM   44  C   UNL     1     -10.260   1.637  62.460  1.00  0.00    -0.096 A  
HETATM   45  C   UNL     1      -9.088   2.026  63.089  1.00  0.00    -0.091 A  
HETATM   46  C   UNL     1      -9.002   3.283  63.712  1.00  0.00    -0.092 A  
ENDBRANCH  38  41
ENDBRANCH  24  29
TORSDOF 4
ENDMDL
MODEL      101
REMARK 921   NORMALIZED FREE ENERGY PREDICTED BY IDOCK:   63.29 KCAL/MOL
REMARK 922        TOTAL FREE ENERGY PREDICTED BY IDOCK:   76.34 KCAL/MOL
REMARK 923 INTER-LIGAND FREE ENERGY PREDICTED BY IDOCK:   77.21 KCAL/MOL
REMARK 924 INTRA-LIGAND FREE ENERGY PREDICTED BY IDOCK:   -0.88 KCAL/MOL
REMARK 927      BINDING AFFINITY PREDICTED BY RF-SCORE:    0.00 PKD
ROOT
HETATM    1  C   UNL     1     -11.299   8.775  67.409  1.00  0.00     1.145 C  
HETATM    2  O   UNL     1     -11.345   8.821  65.915  1.00  0.00     2.745 OA 
HETATM    3  C   UNL     1     -10.390   7.913  65.456  1.00  0.00     2.456 A  
HETATM    4  C   UNL     1      -9.737   7.277  66.483  1.00  0.00    -0.207 A  
HETATM    5  C   UNL     1      -8.463   6.680  66.536  1.00  0.00    -0.121 A  
HETATM    6  C   UNL     1      -7.748   6.886  65.374  1.00  0.00    -0.107 A  
HETATM    7  C   UNL     1      -7.985   6.431  68.096  1.00  0.00    -0.109 C  
HETATM    8  C   UNL     1      -8.315   7.559  69.386  1.00  0.00    -0.132 C  
HETATM    9  C   UNL     1      -8.425   7.399  64.215  1.00  0.00     0.229 A  
HETATM   10  C   UNL     1      -9.775   7.841  64.237  1.00  0.00     3.472 A  
HETATM   11  N   UNL     1      -9.148   6.650  70.306  1.00  0.00    -0.155 NA 
HETATM   12  C   UNL     1     -10.286   5.925  69.753  1.00  0.00    -0.218 C  
HETATM   13  O   UNL     1     -10.384   8.288  63.106  1.00  0.00     4.766 OA 
HETATM   14  H   UNL     1      -7.588   9.164  66.802  1.00  0.00     0.000 HD 
HETATM   15  C   UNL     1     -10.784   6.342  68.370  1.00  0.00    -0.349 C  
HETATM   16  H   UNL     1     -11.929  11.438  69.394  1.00  0.00     0.000 HD 
HETATM   17  H   UNL     1      -9.957   8.238  62.260  1.00  0.00     0.000 HD 
HETATM   18  C   UNL     1     -10.209   7.743  67.783  1.00  0.00    -0.271 C  
HETATM   19  O   UNL     1     -12.103  10.632  68.921  1.00  0.00    -0.361 OA 
HETATM   20  C   UNL     1      -8.724   8.505  68.176  1.00  0.00    -0.142 C  
HETATM   21  C   UNL     1     -10.996  10.181  68.235  1.00  0.00    -0.248 C  
HETATM   22  O   UNL     1      -7.343   8.599  67.525  1.00  0.00    -0.086 OA 
HETATM   23  C   UNL     1      -8.865   9.907  67.554  1.00  0.00    -0.131 C  
HETATM   24  C   UNL     1      -9.715  10.648  68.435  1.00  0.00    -0.172 C  
ENDROOT
BRANCH  11  25
HETATM   25  C   UNL     1      -9.330   6.882  71.760  1.00  0.00    -0.145 C  
BRANCH  25  26
HETATM   26  C   UNL     1      -8.038   6.558  72.534  1.00  0.00    -0.104 C  
HETATM   27  C   UNL     1      -7.156   5.381  72.136  1.00  0.00    -0.086 C  
HETATM   28  C   UNL     1      -7.876   5.349  73.444  1.00  0.00    -0.107 C  
ENDBRANCH  25  26
ENDBRANCH  11  25
BRANCH  24  29
HETATM   29  C   UNL     1      -8.755  11.646  69.250  1.00  0.00     0.523 C  
HETATM   30  N   UNL     1      -9.290  12.906  69.685  1.00  0.00     1.040 N  
HETATM   31  O   UNL     1      -7.611  11.275  69.454  1.00  0.00    -0.072 OA 
HETATM   32  C   UNL     1      -8.649  14.014  70.550  1.00  0.00     3.333 C  
HETATM   33  H   UNL     1     -10.242  13.099  69.374  1.00  0.00     0.000 HD 
HETATM   34  C   UNL     1      -9.602  15.302  70.821  1.00  0.00     1.281 A  
HETATM   35  C   UNL     1      -7.392  14.562  69.853  1.00  0.00     0.110 C  
HETATM   36  C   UNL     1      -8.263  13.468  71.943  1.00  0.00    11.067 C  
HETATM   37  N   UNL     1      -9.603  16.117  71.785  1.00  0.00     4.715 NA 
HETATM   38  C   UNL     1     -10.636  17.078  71.431  1.00  0.00     2.166 A  
HETATM   39  O   UNL     1     -10.500  15.599  69.844  1.00  0.00    -0.284 OA 
HETATM   40  N   UNL     1     -11.171  16.748  70.238  1.00  0.00    -0.006 NA 
BRANCH  38  41
HETATM   41  C   UNL     1     -11.092  18.269  72.205  1.00  0.00     3.097 A  
HETATM   42  C   UNL     1     -12.044  18.173  73.230  1.00  0.00     3.267 A  
HETATM   43  C   UNL     1     -12.415  19.307  73.990  1.00  0.00     8.927 A  
HETATM   44  C   UNL     1     -11.858  20.558  73.727  1.00  0.00    13.906 A  
HETATM   45  C   UNL     1     -10.884  20.666  72.748  1.00  0.00     8.866 A  
HETATM   46  C   UNL     1     -10.505  19.539  71.998  1.00  0.00     3.715 A  
ENDBRANCH  38  41
ENDBRANCH  24  29
TORSDOF 4
ENDMDL
MODEL      102
REMARK 921   NORMALIZED FREE ENERGY PREDICTED BY IDOCK:   66.27 KCAL/MOL
REMARK 922        TOTAL FREE ENERGY PREDICTED BY IDOCK:   80.01 KCAL/MOL
REMARK 923 INTER-LIGAND FREE ENERGY PREDICTED BY IDOCK:   81.61 KCAL/MOL
REMARK 924 INTRA-LIGAND FREE ENERGY PREDICTED BY IDOCK:   -1.60 KCAL/MOL
REMARK 927      BINDING AFFINITY PREDICTED BY RF-SCORE:    0.00 PKD
ROOT
HETATM    1  C   UNL     1      -8.740   6.248  72.083  1.00  0.00    -0.133 C  
HETATM    2  O   UNL     1      -7.450   6.851  72.542  1.00  0.00    -0.089 OA 
HETATM    3  C   UNL     1      -7.760   8.102  73.076  1.00  0.00    -0.148 A  
HETATM    4  C   UNL     1      -9.105   8.375  73.024  1.00  0.00    -0.258 A  
HETATM    5  C   UNL     1      -9.797   9.601  72.998  1.00  0.00     4.685 A  
HETATM    6  C   UNL     1      -8.939  10.676  72.903  1.00  0.00    12.817 A  
HETATM    7  C   UNL     1     -11.362   9.392  72.516  1.00  0.00     0.869 C  
HETATM    8  C   UNL     1     -11.834   8.263  71.273  1.00  0.00    -0.288 C  
HETATM    9  C   UNL     1      -7.532  10.471  73.112  1.00  0.00     7.108 A  
HETATM   10  C   UNL     1      -6.950   9.186  73.277  1.00  0.00     0.597 A  
HETATM   11  N   UNL     1     -12.776   7.366  72.095  1.00  0.00    -0.176 NA 
HETATM   12  C   UNL     1     -12.306   6.804  73.356  1.00  0.00     2.062 C  
HETATM   13  O   UNL     1      -5.618   9.044  73.506  1.00  0.00    -0.103 OA 
HETATM   14  H   UNL     1      -9.147   9.624  70.432  1.00  0.00     0.000 HD 
HETATM   15  C   UNL     1     -10.807   6.875  73.645  1.00  0.00    -0.196 C  
HETATM   16  H   UNL     1      -9.008   4.174  69.427  1.00  0.00     0.000 HD 
HETATM   17  H   UNL     1      -5.055   9.796  73.646  1.00  0.00     0.000 HD 
HETATM   18  C   UNL     1      -9.846   7.282  72.401  1.00  0.00    -0.188 C  
HETATM   19  O   UNL     1      -8.926   4.430  70.339  1.00  0.00    -0.084 OA 
HETATM   20  C   UNL     1     -10.266   8.204  71.018  1.00  0.00    -0.188 C  
HETATM   21  C   UNL     1      -8.882   5.800  70.493  1.00  0.00    -0.139 C  
HETATM   22  O   UNL     1     -10.084   9.659  70.584  1.00  0.00    -0.275 OA 
HETATM   23  C   UNL     1      -9.064   8.008  70.076  1.00  0.00    -0.152 C  
HETATM   24  C   UNL     1      -9.216   6.703  69.507  1.00  0.00    -0.143 C  
ENDROOT
BRANCH  11  25
HETATM   25  C   UNL     1     -13.837   6.513  71.505  1.00  0.00     0.354 C  
BRANCH  25  26
HETATM   26  C   UNL     1     -13.439   6.038  70.094  1.00  0.00     5.628 C  
HETATM   27  C   UNL     1     -14.400   5.222  69.237  1.00  0.00    20.392 C  
HETATM   28  C   UNL     1     -13.144   4.587  69.741  1.00  0.00    18.831 C  
ENDBRANCH  25  26
ENDBRANCH  11  25
BRANCH  24  29
HETATM   29  C   UNL     1      -9.728   6.928  68.002  1.00  0.00    -0.130 C  
HETATM   30  N   UNL     1     -10.191   8.235  67.625  1.00  0.00    -0.215 N  
HETATM   31  O   UNL     1      -9.699   5.965  67.253  1.00  0.00    -0.117 OA 
HETATM   32  C   UNL     1     -10.651   8.771  66.251  1.00  0.00     0.453 C  
HETATM   33  H   UNL     1     -10.221   8.915  68.384  1.00  0.00     0.000 HD 
HETATM   34  C   UNL     1     -11.103  10.332  66.246  1.00  0.00     0.354 A  
HETATM   35  C   UNL     1     -11.876   7.979  65.762  1.00  0.00     8.678 C  
HETATM   36  C   UNL     1      -9.516   8.652  65.209  1.00  0.00     0.195 C  
HETATM   37  N   UNL     1     -11.087  11.174  65.306  1.00  0.00    -0.083 NA 
HETATM   38  C   UNL     1     -11.669  12.370  65.896  1.00  0.00    -0.419 A  
HETATM   39  O   UNL     1     -11.639  10.804  67.404  1.00  0.00    -0.485 OA 
HETATM   40  N   UNL     1     -12.004  12.123  67.180  1.00  0.00    -0.584 NA 
BRANCH  38  41
HETATM   41  C   UNL     1     -11.896  13.698  65.255  1.00  0.00    -0.365 A  
HETATM   42  C   UNL     1     -13.056  14.451  65.487  1.00  0.00     0.013 A  
HETATM   43  C   UNL     1     -13.219  15.734  64.915  1.00  0.00     2.074 A  
HETATM   44  C   UNL     1     -12.238  16.278  64.087  1.00  0.00     0.863 A  
HETATM   45  C   UNL     1     -11.066  15.569  63.879  1.00  0.00     0.905 A  
HETATM   46  C   UNL     1     -10.895  14.298  64.455  1.00  0.00    -0.305 A  
ENDBRANCH  38  41
ENDBRANCH  24  29
TORSDOF 4
ENDMDL
MODEL      103
REMARK 921   NORMALIZED FREE ENERGY PREDICTED BY IDOCK:   69.16 KCAL/MOL
REMARK 922        TOTAL FREE ENERGY PREDICTED BY IDOCK:   83.57 KCAL/MOL
REMARK 923 INTER-LIGAND FREE ENERGY PREDICTED BY IDOCK:   84.51 KCAL/MOL
REMARK 924 INTRA-LIGAND FREE ENERGY PREDICTED BY IDOCK:   -0.94 KCAL/MOL
REMARK 927      BINDING AFFINITY PREDICTED BY RF-SCORE:    0.00 PKD
ROOT
HETATM    1  C   UNL     1     -10.297   4.900  70.075  1.00  0.00    -0.172 C  
HETATM    2  O   UNL     1      -8.878   4.463  69.890  1.00  0.00    -0.078 OA 
HETATM    3  C   UNL     1      -8.075   5.476  70.416  1.00  0.00    -0.103 A  
HETATM    4  C   UNL     1      -8.812   6.514  70.929  1.00  0.00    -0.147 A  
HETATM    5  C   UNL     1      -8.487   7.871  71.118  1.00  0.00    -0.125 A  
HETATM    6  C   UNL     1      -7.253   8.185  70.587  1.00  0.00    -0.052 A  
HETATM    7  C   UNL     1      -9.841   8.779  71.373  1.00  0.00    -0.353 C  
HETATM    8  C   UNL     1     -11.347   8.501  70.537  1.00  0.00    -0.217 C  
HETATM    9  C   UNL     1      -6.372   7.124  70.183  1.00  0.00    -0.031 A  
HETATM   10  C   UNL     1      -6.759   5.757  70.172  1.00  0.00    -0.048 A  
HETATM   11  N   UNL     1     -12.252   8.204  71.745  1.00  0.00    -0.303 NA 
HETATM   12  C   UNL     1     -11.838   7.198  72.717  1.00  0.00     0.020 C  
HETATM   13  O   UNL     1      -5.880   4.783  69.813  1.00  0.00    -0.015 OA 
HETATM   14  H   UNL     1      -8.986   8.090  68.527  1.00  0.00     0.000 HD 
HETATM   15  C   UNL     1     -10.688   6.271  72.327  1.00  0.00    -0.263 C  
HETATM   16  H   UNL     1     -12.801   4.109  67.947  1.00  0.00     0.000 HD 
HETATM   17  H   UNL     1      -4.966   4.977  69.644  1.00  0.00     0.000 HD 
HETATM   18  C   UNL     1     -10.244   6.283  70.765  1.00  0.00    -0.238 C  
HETATM   19  O   UNL     1     -12.244   4.042  68.714  1.00  0.00    12.772 OA 
HETATM   20  C   UNL     1     -10.436   7.560  69.637  1.00  0.00    -0.234 C  
HETATM   21  C   UNL     1     -11.269   5.017  68.737  1.00  0.00     1.907 C  
HETATM   22  O   UNL     1      -9.531   8.653  69.065  1.00  0.00    -0.152 OA 
HETATM   23  C   UNL     1     -10.111   6.897  68.285  1.00  0.00    -0.182 C  
HETATM   24  C   UNL     1     -11.269   6.133  67.931  1.00  0.00    -0.137 C  
ENDROOT
BRANCH  11  25
HETATM   25  C   UNL     1     -13.729   8.343  71.732  1.00  0.00    -0.393 C  
BRANCH  25  26
HETATM   26  C   UNL     1     -14.214   9.170  72.938  1.00  0.00     0.097 C  
HETATM   27  C   UNL     1     -13.382  10.324  73.487  1.00  0.00     4.863 C  
HETATM   28  C   UNL     1     -13.582   9.101  74.322  1.00  0.00     6.844 C  
ENDBRANCH  25  26
ENDBRANCH  11  25
BRANCH  24  29
HETATM   29  C   UNL     1     -12.020   6.967  66.781  1.00  0.00     3.287 C  
HETATM   30  N   UNL     1     -11.748   8.373  66.667  1.00  0.00     2.671 N  
HETATM   31  O   UNL     1     -12.792   6.355  66.062  1.00  0.00     5.305 OA 
HETATM   32  C   UNL     1     -12.238   9.402  65.623  1.00  0.00    10.187 C  
HETATM   33  H   UNL     1     -11.134   8.752  67.388  1.00  0.00     0.000 HD 
HETATM   34  C   UNL     1     -11.691  10.915  65.849  1.00  0.00     1.244 A  
HETATM   35  C   UNL     1     -13.773   9.500  65.666  1.00  0.00    22.860 C  
HETATM   36  C   UNL     1     -11.792   8.994  64.201  1.00  0.00    14.559 C  
HETATM   37  N   UNL     1     -11.507  11.840  65.011  1.00  0.00    -0.239 NA 
HETATM   38  C   UNL     1     -11.071  12.966  65.822  1.00  0.00    -0.284 A  
HETATM   39  O   UNL     1     -11.446  11.277  67.138  1.00  0.00    -0.460 OA 
HETATM   40  N   UNL     1     -11.043  12.604  67.121  1.00  0.00    -0.268 NA 
BRANCH  38  41
HETATM   41  C   UNL     1     -10.694  14.337  65.370  1.00  0.00    -0.353 A  
HETATM   42  C   UNL     1     -11.553  15.130  64.594  1.00  0.00    -0.357 A  
HETATM   43  C   UNL     1     -11.197  16.450  64.230  1.00  0.00     0.141 A  
HETATM   44  C   UNL     1      -9.972  16.993  64.615  1.00  0.00     2.524 A  
HETATM   45  C   UNL     1      -9.128  16.242  65.417  1.00  0.00     0.675 A  
HETATM   46  C   UNL     1      -9.483  14.934  65.791  1.00  0.00    -0.237 A  
ENDBRANCH  38  41
ENDBRANCH  24  29
TORSDOF 4
ENDMDL
MODEL      104
REMARK 921   NORMALIZED FREE ENERGY PREDICTED BY IDOCK:   72.76 KCAL/MOL
REMARK 922        TOTAL FREE ENERGY PREDICTED BY IDOCK:   88.03 KCAL/MOL
REMARK 923 INTER-LIGAND FREE ENERGY PREDICTED BY IDOCK:   88.55 KCAL/MOL
REMARK 924 INTRA-LIGAND FREE ENERGY PREDICTED BY IDOCK:   -0.52 KCAL/MOL
REMARK 927      BINDING AFFINITY PREDICTED BY RF-SCORE:    0.00 PKD
ROOT
HETATM    1  C   UNL     1      -5.336  13.888  70.936  1.00  0.00    -0.151 C  
HETATM    2  O   UNL     1      -5.219  15.286  70.417  1.00  0.00    -0.113 OA 
HETATM    3  C   UNL     1      -5.850  16.113  71.346  1.00  0.00     0.794 A  
HETATM    4  C   UNL     1      -6.355  15.412  72.413  1.00  0.00     1.997 A  
HETATM    5  C   UNL     1      -7.410  15.710  73.297  1.00  0.00     8.847 A  
HETATM    6  C   UNL     1      -8.086  16.854  72.926  1.00  0.00    18.279 A  
HETATM    7  C   UNL     1      -7.885  14.369  74.132  1.00  0.00     7.284 C  
HETATM    8  C   UNL     1      -7.962  12.779  73.418  1.00  0.00    15.563 C  
HETATM    9  C   UNL     1      -7.516  17.712  71.924  1.00  0.00     9.259 A  
HETATM   10  C   UNL     1      -6.350  17.377  71.186  1.00  0.00     2.075 A  
HETATM   11  N   UNL     1      -6.961  12.048  74.328  1.00  0.00     4.884 NA 
HETATM   12  C   UNL     1      -5.634  12.618  74.534  1.00  0.00     0.545 C  
HETATM   13  O   UNL     1      -5.828  18.236  70.271  1.00  0.00    -0.229 OA 
HETATM   14  H   UNL     1      -8.964  14.875  71.324  1.00  0.00     0.000 HD 
HETATM   15  C   UNL     1      -5.196  13.741  73.594  1.00  0.00    -0.247 C  
HETATM   16  H   UNL     1      -5.597  11.161  68.957  1.00  0.00     0.000 HD 
HETATM   17  H   UNL     1      -6.174  19.114  70.160  1.00  0.00     0.000 HD 
HETATM   18  C   UNL     1      -6.109  13.980  72.273  1.00  0.00     0.555 C  
HETATM   19  O   UNL     1      -5.176  11.814  69.504  1.00  0.00    -0.056 OA 
HETATM   20  C   UNL     1      -7.768  13.600  72.071  1.00  0.00     8.115 C  
HETATM   21  C   UNL     1      -6.070  12.748  69.982  1.00  0.00    -0.112 C  
HETATM   22  O   UNL     1      -9.080  14.384  72.129  1.00  0.00     5.159 OA 
HETATM   23  C   UNL     1      -7.994  13.772  70.557  1.00  0.00     3.009 C  
HETATM   24  C   UNL     1      -7.439  12.605  69.939  1.00  0.00     1.304 C  
ENDROOT
BRANCH  11  25
HETATM   25  C   UNL     1      -6.935  10.577  74.523  1.00  0.00     3.003 C  
BRANCH  25  26
HETATM   26  C   UNL     1      -6.076   9.895  73.440  1.00  0.00     0.882 C  
HETATM   27  C   UNL     1      -6.674   8.852  72.503  1.00  0.00     0.095 C  
HETATM   28  C   UNL     1      -5.639   8.438  73.498  1.00  0.00    -0.072 C  
ENDBRANCH  25  26
ENDBRANCH  11  25
BRANCH  24  29
HETATM   29  C   UNL     1      -8.687  11.684  69.521  1.00  0.00     1.017 C  
HETATM   30  N   UNL     1      -8.763  10.352  70.053  1.00  0.00    -0.318 N  
HETATM   31  O   UNL     1      -9.510  12.170  68.762  1.00  0.00    -0.090 OA 
HETATM   32  C   UNL     1      -9.869   9.283  69.908  1.00  0.00    -0.199 C  
HETATM   33  H   UNL     1      -7.961  10.068  70.616  1.00  0.00     0.000 HD 
HETATM   34  C   UNL     1      -9.568   7.884  70.679  1.00  0.00    -0.166 A  
HETATM   35  C   UNL     1     -10.049   8.914  68.425  1.00  0.00    -0.215 C  
HETATM   36  C   UNL     1     -11.211   9.802  70.471  1.00  0.00    -0.381 C  
HETATM   37  N   UNL     1     -10.373   7.029  71.142  1.00  0.00    -0.206 NA 
HETATM   38  C   UNL     1      -9.509   5.976  71.653  1.00  0.00    -0.148 A  
HETATM   39  O   UNL     1      -8.259   7.536  70.798  1.00  0.00    -0.107 OA 
HETATM   40  N   UNL     1      -8.219   6.301  71.430  1.00  0.00    -0.121 NA 
BRANCH  38  41
HETATM   41  C   UNL     1      -9.904   4.706  72.329  1.00  0.00    -0.222 A  
HETATM   42  C   UNL     1      -9.048   3.598  72.396  1.00  0.00    -0.141 A  
HETATM   43  C   UNL     1      -9.423   2.427  73.096  1.00  0.00    -0.120 A  
HETATM   44  C   UNL     1     -10.666   2.334  73.720  1.00  0.00    -0.251 A  
HETATM   45  C   UNL     1     -11.510   3.432  73.702  1.00  0.00    -0.124 A  
HETATM   46  C   UNL     1     -11.135   4.602  73.018  1.00  0.00    -0.327 A  
ENDBRANCH  38  41
ENDBRANCH  24  29
TORSDOF 4
ENDMDL
MODEL      105
REMARK 921   NORMALIZED FREE ENERGY PREDICTED BY IDOCK:   77.22 KCAL/MOL
REMARK 922        TOTAL FREE ENERGY PREDICTED BY IDOCK:   93.52 KCAL/MOL
REMARK 923 INTER-LIGAND FREE ENERGY PREDICTED BY IDOCK:   94.57 KCAL/MOL
REMARK 924 INTRA-LIGAND FREE ENERGY PREDICTED BY IDOCK:   -1.05 KCAL/MOL
REMARK 927      BINDING AFFINITY PREDICTED BY RF-SCORE:    0.00 PKD
ROOT
HETATM    1  C   UNL     1      -5.336  13.888  70.936  1.00  0.00    -0.151 C  
HETATM    2  O   UNL     1      -5.211  15.292  70.435  1.00  0.00    -0.113 OA 
HETATM    3  C   UNL     1      -5.861  16.108  71.361  1.00  0.00     0.794 A  
HETATM    4  C   UNL     1      -6.385  15.394  72.410  1.00  0.00     1.997 A  
HETATM    5  C   UNL     1      -7.457  15.681  73.277  1.00  0.00     9.589 A  
HETATM    6  C   UNL     1      -8.128  16.828  72.907  1.00  0.00    18.639 A  
HETATM    7  C   UNL     1      -7.946  14.330  74.088  1.00  0.00     7.651 C  
HETATM    8  C   UNL     1      -8.007  12.748  73.355  1.00  0.00    15.563 C  
HETATM    9  C   UNL     1      -7.541  17.698  71.925  1.00  0.00     9.962 A  
HETATM   10  C   UNL     1      -6.360  17.372  71.206  1.00  0.00     2.332 A  
HETATM   11  N   UNL     1      -7.022  12.008  74.276  1.00  0.00     4.884 NA 
HETATM   12  C   UNL     1      -5.701  12.578  74.513  1.00  0.00     0.812 C  
HETATM   13  O   UNL     1      -5.822  18.243  70.310  1.00  0.00    -0.229 OA 
HETATM   14  H   UNL     1      -8.973  14.866  71.266  1.00  0.00     0.000 HD 
HETATM   15  C   UNL     1      -5.246  13.712  73.595  1.00  0.00    -0.178 C  
HETATM   16  H   UNL     1      -5.555  11.182  68.922  1.00  0.00     0.000 HD 
HETATM   17  H   UNL     1      -6.168  19.121  70.203  1.00  0.00     0.000 HD 
HETATM   18  C   UNL     1      -6.134  13.964  72.259  1.00  0.00     0.653 C  
HETATM   19  O   UNL     1      -5.146  11.830  69.484  1.00  0.00    -0.056 OA 
HETATM   20  C   UNL     1      -7.789  13.584  72.021  1.00  0.00     9.482 C  
HETATM   21  C   UNL     1      -6.050  12.758  69.955  1.00  0.00    -0.112 C  
HETATM   22  O   UNL     1      -9.103  14.366  72.063  1.00  0.00     4.978 OA 
HETATM   23  C   UNL     1      -7.987  13.772  70.505  1.00  0.00     3.009 C  
HETATM   24  C   UNL     1      -7.418  12.614  69.885  1.00  0.00     1.304 C  
ENDROOT
BRANCH  11  25
HETATM   25  C   UNL     1      -6.997  10.535  74.455  1.00  0.00     3.003 C  
BRANCH  25  26
HETATM   26  C   UNL     1      -5.757   9.921  73.777  1.00  0.00     0.415 C  
HETATM   27  C   UNL     1      -5.489  10.126  72.291  1.00  0.00     0.217 C  
HETATM   28  C   UNL     1      -5.817   8.758  72.796  1.00  0.00    -0.077 C  
ENDBRANCH  25  26
ENDBRANCH  11  25
BRANCH  24  29
HETATM   29  C   UNL     1      -8.656  11.695  69.433  1.00  0.00     0.713 C  
HETATM   30  N   UNL     1      -8.423  10.661  68.464  1.00  0.00    -0.128 N  
HETATM   31  O   UNL     1      -9.740  11.931  69.940  1.00  0.00     1.361 OA 
HETATM   32  C   UNL     1      -9.378   9.579  67.911  1.00  0.00    -0.132 C  
HETATM   33  H   UNL     1      -7.478  10.637  68.080  1.00  0.00     0.000 HD 
HETATM   34  C   UNL     1      -8.714   8.583  66.812  1.00  0.00    -0.122 A  
HETATM   35  C   UNL     1     -10.572  10.246  67.206  1.00  0.00    -0.324 C  
HETATM   36  C   UNL     1      -9.898   8.674  69.050  1.00  0.00    -0.184 C  
HETATM   37  N   UNL     1      -9.014   7.393  66.517  1.00  0.00    -0.153 NA 
HETATM   38  C   UNL     1      -8.112   7.066  65.423  1.00  0.00    -0.133 A  
HETATM   39  O   UNL     1      -7.726   9.113  66.042  1.00  0.00    -0.094 OA 
HETATM   40  N   UNL     1      -7.334   8.131  65.144  1.00  0.00    -0.075 NA 
BRANCH  38  41
HETATM   41  C   UNL     1      -8.000   5.780  64.674  1.00  0.00    -0.122 A  
HETATM   42  C   UNL     1      -8.984   4.784  64.748  1.00  0.00    -0.146 A  
HETATM   43  C   UNL     1      -8.883   3.600  63.980  1.00  0.00    -0.103 A  
HETATM   44  C   UNL     1      -7.790   3.382  63.142  1.00  0.00    -0.068 A  
HETATM   45  C   UNL     1      -6.829   4.372  63.022  1.00  0.00    -0.038 A  
HETATM   46  C   UNL     1      -6.931   5.555  63.774  1.00  0.00    -0.047 A  
ENDBRANCH  38  41
ENDBRANCH  24  29
TORSDOF 4
ENDMDL
MODEL      106
REMARK 921   NORMALIZED FREE ENERGY PREDICTED BY IDOCK:   88.79 KCAL/MOL
REMARK 922        TOTAL FREE ENERGY PREDICTED BY IDOCK:  107.80 KCAL/MOL
REMARK 923 INTER-LIGAND FREE ENERGY PREDICTED BY IDOCK:  109.01 KCAL/MOL
REMARK 924 INTRA-LIGAND FREE ENERGY PREDICTED BY IDOCK:   -1.21 KCAL/MOL
REMARK 927      BINDING AFFINITY PREDICTED BY RF-SCORE:    0.00 PKD
ROOT
HETATM    1  C   UNL     1     -10.905  15.449  70.276  1.00  0.00    -0.311 C  
HETATM    2  O   UNL     1     -12.188  16.051  70.754  1.00  0.00    -0.374 OA 
HETATM    3  C   UNL     1     -11.885  16.783  71.902  1.00  0.00     0.276 A  
HETATM    4  C   UNL     1     -10.549  16.732  72.217  1.00  0.00     3.412 A  
HETATM    5  C   UNL     1      -9.885  16.895  73.448  1.00  0.00    11.039 A  
HETATM    6  C   UNL     1     -10.770  17.019  74.500  1.00  0.00     5.081 A  
HETATM    7  C   UNL     1      -8.336  16.330  73.370  1.00  0.00    17.770 C  
HETATM    8  C   UNL     1      -7.890  14.893  72.487  1.00  0.00     6.329 C  
HETATM    9  C   UNL     1     -12.162  17.239  74.222  1.00  0.00     0.219 A  
HETATM   10  C   UNL     1     -12.709  17.199  72.911  1.00  0.00     2.048 A  
HETATM   11  N   UNL     1      -6.897  15.513  71.488  1.00  0.00     1.948 NA 
HETATM   12  C   UNL     1      -7.305  16.673  70.703  1.00  0.00     2.801 C  
HETATM   13  O   UNL     1     -14.028  17.446  72.694  1.00  0.00     3.928 OA 
HETATM   14  H   UNL     1     -10.637  14.397  73.897  1.00  0.00     0.000 HD 
HETATM   15  C   UNL     1      -8.792  17.023  70.681  1.00  0.00     4.337 C  
HETATM   16  H   UNL     1     -10.698  12.466  68.701  1.00  0.00     0.000 HD 
HETATM   17  H   UNL     1     -14.601  17.735  73.395  1.00  0.00     0.000 HD 
HETATM   18  C   UNL     1      -9.810  15.903  71.270  1.00  0.00     2.348 C  
HETATM   19  O   UNL     1     -10.749  13.410  68.793  1.00  0.00    -0.247 OA 
HETATM   20  C   UNL     1      -9.465  14.688  72.429  1.00  0.00     6.529 C  
HETATM   21  C   UNL     1     -10.817  13.801  70.114  1.00  0.00     0.611 C  
HETATM   22  O   UNL     1      -9.695  14.520  73.932  1.00  0.00     5.706 OA 
HETATM   23  C   UNL     1     -10.699  13.769  72.365  1.00  0.00     5.838 C  
HETATM   24  C   UNL     1     -10.542  12.977  71.183  1.00  0.00     5.320 C  
ENDROOT
BRANCH  11  25
HETATM   25  C   UNL     1      -5.842  14.747  70.781  1.00  0.00    -0.131 C  
BRANCH  25  26
HETATM   26  C   UNL     1      -6.440  13.522  70.062  1.00  0.00     0.025 C  
HETATM   27  C   UNL     1      -5.599  12.676  69.114  1.00  0.00    -0.072 C  
HETATM   28  C   UNL     1      -6.737  13.477  68.569  1.00  0.00    -0.095 C  
ENDBRANCH  25  26
ENDBRANCH  11  25
BRANCH  24  29
HETATM   29  C   UNL     1     -10.094  11.516  71.680  1.00  0.00     9.678 C  
HETATM   30  N   UNL     1     -10.165  10.425  70.748  1.00  0.00    -0.044 N  
HETATM   31  O   UNL     1      -9.717  11.412  72.835  1.00  0.00    15.389 OA 
HETATM   32  C   UNL     1      -9.725   8.952  70.904  1.00  0.00    -0.239 C  
HETATM   33  H   UNL     1     -10.570  10.660  69.842  1.00  0.00     0.000 HD 
HETATM   34  C   UNL     1      -9.980   8.024  69.594  1.00  0.00    -0.188 A  
HETATM   35  C   UNL     1     -10.512   8.288  72.047  1.00  0.00    -0.350 C  
HETATM   36  C   UNL     1      -8.213   8.861  71.205  1.00  0.00    -0.218 C  
HETATM   37  N   UNL     1      -9.373   6.986  69.211  1.00  0.00    -0.146 NA 
HETATM   38  C   UNL     1     -10.097   6.578  68.017  1.00  0.00    -0.150 A  
HETATM   39  O   UNL     1     -11.041   8.366  68.814  1.00  0.00     0.101 OA 
HETATM   40  N   UNL     1     -11.117   7.432  67.792  1.00  0.00    -0.000 NA 
BRANCH  38  41
HETATM   41  C   UNL     1      -9.823   5.413  67.125  1.00  0.00    -0.178 A  
HETATM   42  C   UNL     1     -10.305   4.127  67.407  1.00  0.00     0.444 A  
HETATM   43  C   UNL     1     -10.083   3.052  66.514  1.00  0.00     1.032 A  
HETATM   44  C   UNL     1      -9.359   3.238  65.337  1.00  0.00    -0.140 A  
HETATM   45  C   UNL     1      -8.911   4.510  65.019  1.00  0.00    -0.149 A  
HETATM   46  C   UNL     1      -9.140   5.582  65.898  1.00  0.00    -0.163 A  
ENDBRANCH  38  41
ENDBRANCH  24  29
TORSDOF 4
ENDMDL
MODEL      107
REMARK 921   NORMALIZED FREE ENERGY PREDICTED BY IDOCK:  102.27 KCAL/MOL
REMARK 922        TOTAL FREE ENERGY PREDICTED BY IDOCK:  124.43 KCAL/MOL
REMARK 923 INTER-LIGAND FREE ENERGY PREDICTED BY IDOCK:  125.04 KCAL/MOL
REMARK 924 INTRA-LIGAND FREE ENERGY PREDICTED BY IDOCK:   -0.61 KCAL/MOL
REMARK 927      BINDING AFFINITY PREDICTED BY RF-SCORE:    0.00 PKD
ROOT
HETATM    1  C   UNL     1     -11.799   9.460  64.181  1.00  0.00    11.530 C  
HETATM    2  O   UNL     1     -10.818  10.223  63.350  1.00  0.00     0.922 OA 
HETATM    3  C   UNL     1      -9.589   9.577  63.485  1.00  0.00     0.626 A  
HETATM    4  C   UNL     1      -9.664   8.476  64.302  1.00  0.00     2.259 A  
HETATM    5  C   UNL     1      -8.677   7.830  65.072  1.00  0.00     0.105 A  
HETATM    6  C   UNL     1      -7.479   8.513  65.054  1.00  0.00    -0.089 A  
HETATM    7  C   UNL     1      -9.357   6.823  66.189  1.00  0.00    -0.095 C  
HETATM    8  C   UNL     1     -10.819   7.211  67.058  1.00  0.00    -0.312 C  
HETATM    9  C   UNL     1      -7.289   9.572  64.102  1.00  0.00    -0.115 A  
HETATM   10  C   UNL     1      -8.327  10.053  63.259  1.00  0.00    -0.168 A  
HETATM   11  N   UNL     1     -11.703   6.040  66.596  1.00  0.00     0.867 NA 
HETATM   12  C   UNL     1     -11.833   5.763  65.170  1.00  0.00     4.231 C  
HETATM   13  O   UNL     1      -8.091  11.036  62.349  1.00  0.00    -0.342 OA 
HETATM   14  H   UNL     1      -9.085   9.801  66.791  1.00  0.00     0.000 HD 
HETATM   15  C   UNL     1     -11.343   6.833  64.196  1.00  0.00    13.641 C  
HETATM   16  H   UNL     1     -14.427  10.876  65.767  1.00  0.00     0.000 HD 
HETATM   17  H   UNL     1      -7.215  11.367  62.191  1.00  0.00     0.000 HD 
HETATM   18  C   UNL     1     -11.014   8.293  64.826  1.00  0.00     8.877 C  
HETATM   19  O   UNL     1     -13.957  10.415  65.081  1.00  0.00    10.387 OA 
HETATM   20  C   UNL     1     -10.559   8.652  66.439  1.00  0.00     0.292 C  
HETATM   21  C   UNL     1     -12.619  10.265  65.376  1.00  0.00     8.308 C  
HETATM   22  O   UNL     1      -9.241   8.939  67.161  1.00  0.00    -0.134 OA 
HETATM   23  C   UNL     1     -10.672  10.187  66.511  1.00  0.00    -0.118 C  
HETATM   24  C   UNL     1     -12.070  10.475  66.622  1.00  0.00     3.038 C  
ENDROOT
BRANCH  11  25
HETATM   25  C   UNL     1     -12.895   5.556  67.336  1.00  0.00    12.234 C  
BRANCH  25  26
HETATM   26  C   UNL     1     -12.629   5.538  68.853  1.00  0.00     8.669 C  
HETATM   27  C   UNL     1     -13.593   6.202  69.830  1.00  0.00     7.362 C  
HETATM   28  C   UNL     1     -12.219   6.764  69.656  1.00  0.00     0.574 C  
ENDBRANCH  25  26
ENDBRANCH  11  25
BRANCH  24  29
HETATM   29  C   UNL     1     -12.323  10.878  68.157  1.00  0.00     1.055 C  
HETATM   30  N   UNL     1     -11.758  12.106  68.644  1.00  0.00    -0.315 N  
HETATM   31  O   UNL     1     -12.986  10.109  68.833  1.00  0.00     1.231 OA 
HETATM   32  C   UNL     1     -11.903  12.792  70.021  1.00  0.00    -0.281 C  
HETATM   33  H   UNL     1     -11.169  12.602  67.976  1.00  0.00     0.000 HD 
HETATM   34  C   UNL     1     -11.092  14.193  70.171  1.00  0.00     0.096 A  
HETATM   35  C   UNL     1     -11.357  11.870  71.125  1.00  0.00     2.033 C  
HETATM   36  C   UNL     1     -13.383  13.121  70.316  1.00  0.00     0.965 C  
HETATM   37  N   UNL     1     -11.330  15.186  70.913  1.00  0.00    -0.308 NA 
HETATM   38  C   UNL     1     -10.223  16.093  70.647  1.00  0.00     0.747 A  
HETATM   39  O   UNL     1      -9.949  14.304  69.442  1.00  0.00    -0.008 OA 
HETATM   40  N   UNL     1      -9.387  15.535  69.748  1.00  0.00    -0.231 NA 
BRANCH  38  41
HETATM   41  C   UNL     1      -9.977  17.443  71.233  1.00  0.00     4.478 A  
HETATM   42  C   UNL     1      -8.738  18.090  71.123  1.00  0.00     7.744 A  
HETATM   43  C   UNL     1      -8.549  19.396  71.635  1.00  0.00     4.737 A  
HETATM   44  C   UNL     1      -9.585  20.067  72.283  1.00  0.00     2.905 A  
HETATM   45  C   UNL     1     -10.828  19.463  72.365  1.00  0.00     4.640 A  
HETATM   46  C   UNL     1     -11.023  18.170  71.848  1.00  0.00     2.997 A  
ENDBRANCH  38  41
ENDBRANCH  24  29
TORSDOF 4
ENDMDL
MODEL      108
REMARK 921   NORMALIZED FREE ENERGY PREDICTED BY IDOCK:  107.40 KCAL/MOL
REMARK 922        TOTAL FREE ENERGY PREDICTED BY IDOCK:  130.76 KCAL/MOL
REMARK 923 INTER-LIGAND FREE ENERGY PREDICTED BY IDOCK:  132.04 KCAL/MOL
REMARK 924 INTRA-LIGAND FREE ENERGY PREDICTED BY IDOCK:   -1.28 KCAL/MOL
REMARK 927      BINDING AFFINITY PREDICTED BY RF-SCORE:    0.00 PKD
ROOT
HETATM    1  C   UNL     1     -11.751   6.959  66.767  1.00  0.00     1.795 C  
HETATM    2  O   UNL     1     -11.827   6.513  65.342  1.00  0.00     4.614 OA 
HETATM    3  C   UNL     1     -10.565   6.723  64.787  1.00  0.00     5.963 A  
HETATM    4  C   UNL     1      -9.676   7.246  65.693  1.00  0.00     0.713 A  
HETATM    5  C   UNL     1      -8.514   8.019  65.505  1.00  0.00    -0.159 A  
HETATM    6  C   UNL     1      -8.338   8.374  64.184  1.00  0.00    -0.081 A  
HETATM    7  C   UNL     1      -8.042   8.739  66.913  1.00  0.00    -0.101 C  
HETATM    8  C   UNL     1      -9.169   9.391  68.075  1.00  0.00    -0.130 C  
HETATM    9  C   UNL     1      -9.135   7.734  63.174  1.00  0.00     1.401 A  
HETATM   10  C   UNL     1     -10.201   6.844  63.474  1.00  0.00     7.357 A  
HETATM   11  N   UNL     1      -8.800   8.525  69.293  1.00  0.00    -0.141 NA 
HETATM   12  C   UNL     1      -8.759   7.074  69.151  1.00  0.00    -0.132 C  
HETATM   13  O   UNL     1     -10.906   6.235  62.483  1.00  0.00     3.465 OA 
HETATM   14  H   UNL     1     -10.206  10.030  65.195  1.00  0.00     0.000 HD 
HETATM   15  C   UNL     1      -9.385   6.470  67.894  1.00  0.00    -0.111 C  
HETATM   16  H   UNL     1     -14.346   8.312  68.458  1.00  0.00     0.000 HD 
HETATM   17  H   UNL     1     -10.654   6.319  61.571  1.00  0.00     0.000 HD 
HETATM   18  C   UNL     1     -10.304   7.459  66.994  1.00  0.00    -0.384 C  
HETATM   19  O   UNL     1     -13.745   7.639  68.161  1.00  0.00    13.885 OA 
HETATM   20  C   UNL     1     -10.203   9.168  66.889  1.00  0.00    -0.266 C  
HETATM   21  C   UNL     1     -12.800   8.133  67.286  1.00  0.00    12.775 C  
HETATM   22  O   UNL     1      -9.588  10.164  65.904  1.00  0.00    -0.187 OA 
HETATM   23  C   UNL     1     -11.488   9.558  66.134  1.00  0.00     2.693 C  
HETATM   24  C   UNL     1     -12.550   9.473  67.090  1.00  0.00     9.244 C  
ENDROOT
BRANCH  11  25
HETATM   25  C   UNL     1      -9.079   8.907  70.699  1.00  0.00    -0.207 C  
BRANCH  25  26
HETATM   26  C   UNL     1      -8.202   8.096  71.672  1.00  0.00    -0.156 C  
HETATM   27  C   UNL     1      -7.650   8.725  72.946  1.00  0.00     0.165 C  
HETATM   28  C   UNL     1      -6.708   8.325  71.857  1.00  0.00    -0.076 C  
ENDBRANCH  25  26
ENDBRANCH  11  25
BRANCH  24  29
HETATM   29  C   UNL     1     -12.914  10.986  67.490  1.00  0.00     6.120 C  
HETATM   30  N   UNL     1     -11.989  11.719  68.309  1.00  0.00    -0.260 N  
HETATM   31  O   UNL     1     -13.970  11.434  67.073  1.00  0.00    11.498 OA 
HETATM   32  C   UNL     1     -12.020  13.193  68.773  1.00  0.00    -0.280 C  
HETATM   33  H   UNL     1     -11.187  11.182  68.637  1.00  0.00     0.000 HD 
HETATM   34  C   UNL     1     -10.765  13.639  69.703  1.00  0.00     0.266 A  
HETATM   35  C   UNL     1     -13.281  13.450  69.617  1.00  0.00     1.564 C  
HETATM   36  C   UNL     1     -12.015  14.149  67.560  1.00  0.00    -0.419 C  
HETATM   37  N   UNL     1     -10.245  14.779  69.864  1.00  0.00     0.017 NA 
HETATM   38  C   UNL     1      -9.208  14.553  70.860  1.00  0.00     3.118 A  
HETATM   39  O   UNL     1     -10.218  12.666  70.480  1.00  0.00     3.111 OA 
HETATM   40  N   UNL     1      -9.209  13.255  71.227  1.00  0.00     9.810 NA 
BRANCH  38  41
HETATM   41  C   UNL     1      -8.253  15.543  71.437  1.00  0.00     4.320 A  
HETATM   42  C   UNL     1      -8.577  16.900  71.575  1.00  0.00     9.364 A  
HETATM   43  C   UNL     1      -7.677  17.807  72.181  1.00  0.00    11.545 A  
HETATM   44  C   UNL     1      -6.431  17.380  72.640  1.00  0.00     5.202 A  
HETATM   45  C   UNL     1      -6.109  16.036  72.552  1.00  0.00     2.416 A  
HETATM   46  C   UNL     1      -7.006  15.129  71.960  1.00  0.00     2.708 A  
ENDBRANCH  38  41
ENDBRANCH  24  29
TORSDOF 4
ENDMDL
