MODEL        1
REMARK 921   NORMALIZED FREE ENERGY PREDICTED BY IDOCK:   -6.22 KCAL/MOL
REMARK 922        TOTAL FREE ENERGY PREDICTED BY IDOCK:   -6.71 KCAL/MOL
REMARK 923 INTER-LIGAND FREE ENERGY PREDICTED BY IDOCK:   -6.58 KCAL/MOL
REMARK 924 INTRA-LIGAND FREE ENERGY PREDICTED BY IDOCK:   -0.12 KCAL/MOL
REMARK 927      BINDING AFFINITY PREDICTED BY RF-SCORE:    0.00 PKD
ROOT
HETATM    1  C   UNL     1     -11.978  14.745  69.839  1.00  0.00    -0.378 C  
HETATM    2  C   UNL     1     -10.687  14.873  69.042  1.00  0.00    -0.247 C  
ENDROOT
BRANCH   2   3
HETATM    3  N   UNL     1     -10.956  15.288  67.659  1.00  0.00    -0.303 NA 
HETATM    4  C   UNL     1     -11.470  14.439  66.696  1.00  0.00    -0.363 C  
HETATM    5  C   UNL     1     -11.704  14.760  65.414  1.00  0.00    -0.289 C  
HETATM    6  C   UNL     1     -12.255  13.744  64.495  1.00  0.00    -0.403 C  
HETATM    7  C   UNL     1     -11.382  16.145  65.008  1.00  0.00    -0.114 C  
HETATM    8  O   UNL     1     -12.540  12.607  64.842  1.00  0.00    -0.510 OA 
HETATM    9  O   UNL     1     -12.421  14.170  63.223  1.00  0.00    -0.758 OA 
HETATM   10  O   UNL     1     -11.520  16.490  63.835  1.00  0.00    -1.145 OA 
HETATM   11  C   UNL     1     -10.903  17.090  66.038  1.00  0.00     0.005 A  
HETATM   12  C   UNL     1     -10.699  16.644  67.347  1.00  0.00    -0.253 A  
HETATM   13  N   UNL     1     -10.264  17.496  68.306  1.00  0.00    -0.343 NA 
HETATM   14  C   UNL     1     -10.025  18.791  67.980  1.00  0.00    -0.356 A  
HETATM   15  C   UNL     1      -9.548  19.696  69.077  1.00  0.00    -0.378 C  
HETATM   16  C   UNL     1     -10.212  19.290  66.697  1.00  0.00    -0.512 A  
HETATM   17  C   UNL     1     -10.656  18.423  65.707  1.00  0.00    -0.236 A  
ENDBRANCH   2   3
TORSDOF 1
ENDMDL
MODEL        2
REMARK 921   NORMALIZED FREE ENERGY PREDICTED BY IDOCK:   -6.18 KCAL/MOL
REMARK 922        TOTAL FREE ENERGY PREDICTED BY IDOCK:   -6.67 KCAL/MOL
REMARK 923 INTER-LIGAND FREE ENERGY PREDICTED BY IDOCK:   -6.54 KCAL/MOL
REMARK 924 INTRA-LIGAND FREE ENERGY PREDICTED BY IDOCK:   -0.12 KCAL/MOL
REMARK 927      BINDING AFFINITY PREDICTED BY RF-SCORE:    0.00 PKD
ROOT
HETATM    1  C   UNL     1     -10.390  17.933  66.618  1.00  0.00    -0.362 C  
HETATM    2  C   UNL     1     -10.602  17.344  68.006  1.00  0.00    -0.389 C  
ENDROOT
BRANCH   2   3
HETATM    3  N   UNL     1     -10.953  15.920  67.932  1.00  0.00    -0.326 NA 
HETATM    4  C   UNL     1     -10.811  15.160  66.784  1.00  0.00    -0.322 C  
HETATM    5  C   UNL     1     -11.146  13.867  66.657  1.00  0.00    -0.310 C  
HETATM    6  C   UNL     1     -10.940  13.183  65.363  1.00  0.00    -0.279 C  
HETATM    7  C   UNL     1     -11.712  13.207  67.852  1.00  0.00    -0.357 C  
HETATM    8  O   UNL     1     -10.451  13.729  64.385  1.00  0.00    -0.422 OA 
HETATM    9  O   UNL     1     -11.340  11.892  65.342  1.00  0.00    -0.323 OA 
HETATM   10  O   UNL     1     -12.091  12.038  67.789  1.00  0.00    -0.537 OA 
HETATM   11  C   UNL     1     -11.801  13.978  69.109  1.00  0.00    -0.391 A  
HETATM   12  C   UNL     1     -11.419  15.323  69.126  1.00  0.00    -0.316 A  
HETATM   13  N   UNL     1     -11.491  16.046  70.270  1.00  0.00    -0.357 NA 
HETATM   14  C   UNL     1     -11.941  15.449  71.401  1.00  0.00    -0.378 A  
HETATM   15  C   UNL     1     -11.998  16.290  72.642  1.00  0.00    -0.644 C  
HETATM   16  C   UNL     1     -12.332  14.117  71.444  1.00  0.00    -0.425 A  
HETATM   17  C   UNL     1     -12.265  13.369  70.276  1.00  0.00    -0.405 A  
ENDBRANCH   2   3
TORSDOF 1
ENDMDL
MODEL        3
REMARK 921   NORMALIZED FREE ENERGY PREDICTED BY IDOCK:   -6.09 KCAL/MOL
REMARK 922        TOTAL FREE ENERGY PREDICTED BY IDOCK:   -6.57 KCAL/MOL
REMARK 923 INTER-LIGAND FREE ENERGY PREDICTED BY IDOCK:   -6.44 KCAL/MOL
REMARK 924 INTRA-LIGAND FREE ENERGY PREDICTED BY IDOCK:   -0.14 KCAL/MOL
REMARK 927      BINDING AFFINITY PREDICTED BY RF-SCORE:    0.00 PKD
ROOT
HETATM    1  C   UNL     1     -12.869  15.684  71.169  1.00  0.00    -0.540 C  
HETATM    2  C   UNL     1     -11.458  15.882  70.633  1.00  0.00    -0.400 C  
ENDROOT
BRANCH   2   3
HETATM    3  N   UNL     1     -11.327  15.353  69.270  1.00  0.00    -0.292 NA 
HETATM    4  C   UNL     1     -11.581  14.034  68.938  1.00  0.00    -0.315 C  
HETATM    5  C   UNL     1     -11.448  13.496  67.716  1.00  0.00    -0.349 C  
HETATM    6  C   UNL     1     -11.754  12.066  67.510  1.00  0.00    -0.280 C  
HETATM    7  C   UNL     1     -10.990  14.400  66.639  1.00  0.00    -0.318 C  
HETATM    8  O   UNL     1     -12.153  11.329  68.400  1.00  0.00    -0.598 OA 
HETATM    9  O   UNL     1     -11.555  11.626  66.248  1.00  0.00    -0.420 OA 
HETATM   10  O   UNL     1     -10.793  13.959  65.507  1.00  0.00    -0.291 OA 
HETATM   11  C   UNL     1     -10.785  15.828  66.955  1.00  0.00    -0.306 A  
HETATM   12  C   UNL     1     -10.959  16.280  68.267  1.00  0.00    -0.348 A  
HETATM   13  N   UNL     1     -10.779  17.588  68.576  1.00  0.00    -0.295 NA 
HETATM   14  C   UNL     1     -10.426  18.455  67.595  1.00  0.00    -0.419 A  
HETATM   15  C   UNL     1     -10.243  19.892  67.987  1.00  0.00    -0.572 C  
HETATM   16  C   UNL     1     -10.242  18.064  66.275  1.00  0.00    -0.381 A  
HETATM   17  C   UNL     1     -10.422  16.725  65.950  1.00  0.00    -0.311 A  
ENDBRANCH   2   3
TORSDOF 1
ENDMDL
MODEL        4
REMARK 921   NORMALIZED FREE ENERGY PREDICTED BY IDOCK:   -6.01 KCAL/MOL
REMARK 922        TOTAL FREE ENERGY PREDICTED BY IDOCK:   -6.48 KCAL/MOL
REMARK 923 INTER-LIGAND FREE ENERGY PREDICTED BY IDOCK:   -6.35 KCAL/MOL
REMARK 924 INTRA-LIGAND FREE ENERGY PREDICTED BY IDOCK:   -0.13 KCAL/MOL
REMARK 927      BINDING AFFINITY PREDICTED BY RF-SCORE:    0.00 PKD
ROOT
HETATM    1  C   UNL     1     -12.012  10.125  70.851  1.00  0.00    -0.461 C  
HETATM    2  C   UNL     1     -12.639  11.432  71.316  1.00  0.00    -0.374 C  
ENDROOT
BRANCH   2   3
HETATM    3  N   UNL     1     -12.302  12.536  70.409  1.00  0.00    -0.279 NA 
HETATM    4  C   UNL     1     -12.148  12.379  69.042  1.00  0.00    -0.136 C  
HETATM    5  C   UNL     1     -11.811  13.347  68.177  1.00  0.00    -0.396 C  
HETATM    6  C   UNL     1     -11.679  13.030  66.740  1.00  0.00    -0.382 C  
HETATM    7  C   UNL     1     -11.590  14.695  68.743  1.00  0.00    -0.317 C  
HETATM    8  O   UNL     1     -11.884  11.918  66.276  1.00  0.00    -0.546 OA 
HETATM    9  O   UNL     1     -11.307  14.074  65.968  1.00  0.00    -0.317 OA 
HETATM   10  O   UNL     1     -11.226  15.617  68.013  1.00  0.00    -0.329 OA 
HETATM   11  C   UNL     1     -11.823  14.902  70.187  1.00  0.00    -0.357 A  
HETATM   12  C   UNL     1     -12.176  13.817  70.995  1.00  0.00    -0.319 A  
HETATM   13  N   UNL     1     -12.398  13.988  72.321  1.00  0.00    -0.063 NA 
HETATM   14  C   UNL     1     -12.270  15.227  72.858  1.00  0.00    -0.408 A  
HETATM   15  C   UNL     1     -12.529  15.365  74.329  1.00  0.00    -0.761 C  
HETATM   16  C   UNL     1     -11.925  16.341  72.103  1.00  0.00    -0.575 A  
HETATM   17  C   UNL     1     -11.693  16.175  70.744  1.00  0.00    -0.333 A  
ENDBRANCH   2   3
TORSDOF 1
ENDMDL
MODEL        5
REMARK 921   NORMALIZED FREE ENERGY PREDICTED BY IDOCK:   -6.00 KCAL/MOL
REMARK 922        TOTAL FREE ENERGY PREDICTED BY IDOCK:   -6.47 KCAL/MOL
REMARK 923 INTER-LIGAND FREE ENERGY PREDICTED BY IDOCK:   -6.34 KCAL/MOL
REMARK 924 INTRA-LIGAND FREE ENERGY PREDICTED BY IDOCK:   -0.14 KCAL/MOL
REMARK 927      BINDING AFFINITY PREDICTED BY RF-SCORE:    0.00 PKD
ROOT
HETATM    1  C   UNL     1     -12.010  16.205  72.462  1.00  0.00    -0.660 C  
HETATM    2  C   UNL     1     -12.973  15.441  71.565  1.00  0.00    -0.447 C  
ENDROOT
BRANCH   2   3
HETATM    3  N   UNL     1     -12.326  15.039  70.310  1.00  0.00    -0.331 NA 
HETATM    4  C   UNL     1     -11.808  15.942  69.397  1.00  0.00    -0.316 C  
HETATM    5  C   UNL     1     -11.235  15.627  68.225  1.00  0.00    -0.353 C  
HETATM    6  C   UNL     1     -10.728  16.702  67.348  1.00  0.00    -0.253 C  
HETATM    7  C   UNL     1     -11.155  14.189  67.891  1.00  0.00    -0.268 C  
HETATM    8  O   UNL     1     -10.778  17.888  67.640  1.00  0.00    -0.399 OA 
HETATM    9  O   UNL     1     -10.200  16.270  66.181  1.00  0.00    -0.311 OA 
HETATM   10  O   UNL     1     -10.692  13.834  66.808  1.00  0.00    -0.275 OA 
HETATM   11  C   UNL     1     -11.633  13.205  68.884  1.00  0.00    -0.354 A  
HETATM   12  C   UNL     1     -12.210  13.649  70.077  1.00  0.00    -0.329 A  
HETATM   13  N   UNL     1     -12.651  12.762  71.002  1.00  0.00    -0.335 NA 
HETATM   14  C   UNL     1     -12.529  11.434  70.754  1.00  0.00    -0.365 A  
HETATM   15  C   UNL     1     -13.028  10.492  71.810  1.00  0.00    -0.582 C  
HETATM   16  C   UNL     1     -11.962  10.936  69.588  1.00  0.00    -0.414 A  
HETATM   17  C   UNL     1     -11.509  11.838  68.634  1.00  0.00    -0.346 A  
ENDBRANCH   2   3
TORSDOF 1
ENDMDL
MODEL        6
REMARK 921   NORMALIZED FREE ENERGY PREDICTED BY IDOCK:   -5.99 KCAL/MOL
REMARK 922        TOTAL FREE ENERGY PREDICTED BY IDOCK:   -6.46 KCAL/MOL
REMARK 923 INTER-LIGAND FREE ENERGY PREDICTED BY IDOCK:   -6.33 KCAL/MOL
REMARK 924 INTRA-LIGAND FREE ENERGY PREDICTED BY IDOCK:   -0.13 KCAL/MOL
REMARK 927      BINDING AFFINITY PREDICTED BY RF-SCORE:    0.00 PKD
ROOT
HETATM    1  C   UNL     1      -8.797  13.077  68.178  1.00  0.00    -0.194 C  
HETATM    2  C   UNL     1      -9.274  14.499  68.440  1.00  0.00    -0.196 C  
ENDROOT
BRANCH   2   3
HETATM    3  N   UNL     1      -9.979  15.047  67.274  1.00  0.00    -0.232 NA 
HETATM    4  C   UNL     1     -10.714  14.270  66.395  1.00  0.00    -0.297 C  
HETATM    5  C   UNL     1     -11.350  14.717  65.302  1.00  0.00    -0.363 C  
HETATM    6  C   UNL     1     -12.096  13.767  64.451  1.00  0.00    -0.436 C  
HETATM    7  C   UNL     1     -11.251  16.166  65.021  1.00  0.00    -0.220 C  
HETATM    8  O   UNL     1     -12.192  12.574  64.700  1.00  0.00    -0.417 OA 
HETATM    9  O   UNL     1     -12.671  14.323  63.361  1.00  0.00    -0.733 OA 
HETATM   10  O   UNL     1     -11.764  16.632  64.005  1.00  0.00    -1.143 OA 
HETATM   11  C   UNL     1     -10.536  17.024  65.987  1.00  0.00    -0.280 A  
HETATM   12  C   UNL     1      -9.912  16.449  67.098  1.00  0.00    -0.260 A  
HETATM   13  N   UNL     1      -9.254  17.220  67.997  1.00  0.00    -0.250 NA 
HETATM   14  C   UNL     1      -9.204  18.562  67.804  1.00  0.00    -0.281 A  
HETATM   15  C   UNL     1      -8.467  19.373  68.829  1.00  0.00    -0.377 C  
HETATM   16  C   UNL     1      -9.807  19.189  66.721  1.00  0.00    -0.407 A  
HETATM   17  C   UNL     1     -10.481  18.406  65.794  1.00  0.00    -0.250 A  
ENDBRANCH   2   3
TORSDOF 1
ENDMDL
MODEL        7
REMARK 921   NORMALIZED FREE ENERGY PREDICTED BY IDOCK:   -5.92 KCAL/MOL
REMARK 922        TOTAL FREE ENERGY PREDICTED BY IDOCK:   -6.39 KCAL/MOL
REMARK 923 INTER-LIGAND FREE ENERGY PREDICTED BY IDOCK:   -6.30 KCAL/MOL
REMARK 924 INTRA-LIGAND FREE ENERGY PREDICTED BY IDOCK:   -0.09 KCAL/MOL
REMARK 927      BINDING AFFINITY PREDICTED BY RF-SCORE:    0.00 PKD
ROOT
HETATM    1  C   UNL     1     -12.760  14.925  73.503  1.00  0.00    -0.629 C  
HETATM    2  C   UNL     1     -13.667  14.521  72.349  1.00  0.00    -0.480 C  
ENDROOT
BRANCH   2   3
HETATM    3  N   UNL     1     -13.127  13.361  71.629  1.00  0.00    -0.385 NA 
HETATM    4  C   UNL     1     -13.378  12.051  72.000  1.00  0.00    -0.341 C  
HETATM    5  C   UNL     1     -12.885  10.960  71.395  1.00  0.00    -0.554 C  
HETATM    6  C   UNL     1     -13.238   9.619  71.905  1.00  0.00    -0.446 C  
HETATM    7  C   UNL     1     -12.000  11.188  70.232  1.00  0.00    -0.373 C  
HETATM    8  O   UNL     1     -13.987   9.437  72.854  1.00  0.00    -0.345 OA 
HETATM    9  O   UNL     1     -12.661   8.596  71.237  1.00  0.00    -0.303 OA 
HETATM   10  O   UNL     1     -11.471  10.233  69.665  1.00  0.00    -0.248 OA 
HETATM   11  C   UNL     1     -11.781  12.575  69.773  1.00  0.00    -0.355 A  
HETATM   12  C   UNL     1     -12.350  13.638  70.480  1.00  0.00    -0.355 A  
HETATM   13  N   UNL     1     -12.163  14.917  70.073  1.00  0.00    -0.328 NA 
HETATM   14  C   UNL     1     -11.412  15.155  68.968  1.00  0.00    -0.309 A  
HETATM   15  C   UNL     1     -11.238  16.586  68.556  1.00  0.00    -0.296 C  
HETATM   16  C   UNL     1     -10.825  14.139  68.225  1.00  0.00    -0.259 A  
HETATM   17  C   UNL     1     -11.010  12.825  68.637  1.00  0.00    -0.295 A  
ENDBRANCH   2   3
TORSDOF 1
ENDMDL
MODEL        8
REMARK 921   NORMALIZED FREE ENERGY PREDICTED BY IDOCK:   -5.88 KCAL/MOL
REMARK 922        TOTAL FREE ENERGY PREDICTED BY IDOCK:   -6.35 KCAL/MOL
REMARK 923 INTER-LIGAND FREE ENERGY PREDICTED BY IDOCK:   -6.21 KCAL/MOL
REMARK 924 INTRA-LIGAND FREE ENERGY PREDICTED BY IDOCK:   -0.14 KCAL/MOL
REMARK 927      BINDING AFFINITY PREDICTED BY RF-SCORE:    0.00 PKD
ROOT
HETATM    1  C   UNL     1      -9.357  17.662  68.663  1.00  0.00    -0.270 C  
HETATM    2  C   UNL     1     -10.686  17.202  68.080  1.00  0.00    -0.372 C  
ENDROOT
BRANCH   2   3
HETATM    3  N   UNL     1     -11.205  16.030  68.796  1.00  0.00    -0.340 NA 
HETATM    4  C   UNL     1     -11.645  16.073  70.108  1.00  0.00    -0.317 C  
HETATM    5  C   UNL     1     -12.098  15.027  70.815  1.00  0.00    -0.377 C  
HETATM    6  C   UNL     1     -12.532  15.223  72.213  1.00  0.00    -0.361 C  
HETATM    7  C   UNL     1     -12.127  13.720  70.123  1.00  0.00    -0.359 C  
HETATM    8  O   UNL     1     -12.526  16.310  72.773  1.00  0.00    -0.454 OA 
HETATM    9  O   UNL     1     -12.941  14.095  72.836  1.00  0.00    -0.466 OA 
HETATM   10  O   UNL     1     -12.479  12.710  70.730  1.00  0.00    -0.348 OA 
HETATM   11  C   UNL     1     -11.734  13.666  68.700  1.00  0.00    -0.389 A  
HETATM   12  C   UNL     1     -11.280  14.824  68.061  1.00  0.00    -0.299 A  
HETATM   13  N   UNL     1     -10.918  14.795  66.755  1.00  0.00    -0.321 NA 
HETATM   14  C   UNL     1     -10.999  13.626  66.074  1.00  0.00    -0.286 A  
HETATM   15  C   UNL     1     -10.591  13.646  64.630  1.00  0.00    -0.446 C  
HETATM   16  C   UNL     1     -11.445  12.446  66.655  1.00  0.00    -0.429 A  
HETATM   17  C   UNL     1     -11.815  12.465  67.994  1.00  0.00    -0.376 A  
ENDBRANCH   2   3
TORSDOF 1
ENDMDL
MODEL        9
REMARK 921   NORMALIZED FREE ENERGY PREDICTED BY IDOCK:   -5.85 KCAL/MOL
REMARK 922        TOTAL FREE ENERGY PREDICTED BY IDOCK:   -6.32 KCAL/MOL
REMARK 923 INTER-LIGAND FREE ENERGY PREDICTED BY IDOCK:   -6.18 KCAL/MOL
REMARK 924 INTRA-LIGAND FREE ENERGY PREDICTED BY IDOCK:   -0.13 KCAL/MOL
REMARK 927      BINDING AFFINITY PREDICTED BY RF-SCORE:    0.00 PKD
ROOT
HETATM    1  C   UNL     1     -10.268  17.638  68.945  1.00  0.00    -0.354 C  
HETATM    2  C   UNL     1     -11.103  16.686  68.101  1.00  0.00    -0.285 C  
ENDROOT
BRANCH   2   3
HETATM    3  N   UNL     1     -11.549  15.529  68.887  1.00  0.00    -0.354 NA 
HETATM    4  C   UNL     1     -12.099  15.635  70.153  1.00  0.00    -0.377 C  
HETATM    5  C   UNL     1     -12.493  14.609  70.923  1.00  0.00    -0.406 C  
HETATM    6  C   UNL     1     -13.061  14.875  72.260  1.00  0.00    -0.352 C  
HETATM    7  C   UNL     1     -12.323  13.253  70.359  1.00  0.00    -0.295 C  
HETATM    8  O   UNL     1     -13.219  16.000  72.711  1.00  0.00    -0.480 OA 
HETATM    9  O   UNL     1     -13.395  13.767  72.958  1.00  0.00    -0.592 OA 
HETATM   10  O   UNL     1     -12.613  12.266  71.034  1.00  0.00    -0.361 OA 
HETATM   11  C   UNL     1     -11.810  13.120  68.980  1.00  0.00    -0.358 A  
HETATM   12  C   UNL     1     -11.432  14.262  68.268  1.00  0.00    -0.304 A  
HETATM   13  N   UNL     1     -10.962  14.161  67.001  1.00  0.00    -0.295 NA 
HETATM   14  C   UNL     1     -10.859  12.935  66.431  1.00  0.00    -0.274 A  
HETATM   15  C   UNL     1     -10.337  12.876  65.025  1.00  0.00    -0.334 C  
HETATM   16  C   UNL     1     -11.221  11.767  67.089  1.00  0.00    -0.375 A  
HETATM   17  C   UNL     1     -11.701  11.861  68.389  1.00  0.00    -0.387 A  
ENDBRANCH   2   3
TORSDOF 1
ENDMDL
MODEL       10
REMARK 921   NORMALIZED FREE ENERGY PREDICTED BY IDOCK:   -5.84 KCAL/MOL
REMARK 922        TOTAL FREE ENERGY PREDICTED BY IDOCK:   -6.31 KCAL/MOL
REMARK 923 INTER-LIGAND FREE ENERGY PREDICTED BY IDOCK:   -6.19 KCAL/MOL
REMARK 924 INTRA-LIGAND FREE ENERGY PREDICTED BY IDOCK:   -0.12 KCAL/MOL
REMARK 927      BINDING AFFINITY PREDICTED BY RF-SCORE:    0.00 PKD
ROOT
HETATM    1  C   UNL     1     -11.085  11.666  67.289  1.00  0.00    -0.346 C  
HETATM    2  C   UNL     1     -10.441  11.689  68.668  1.00  0.00    -0.213 C  
ENDROOT
BRANCH   2   3
HETATM    3  N   UNL     1     -11.424  12.018  69.708  1.00  0.00    -0.250 NA 
HETATM    4  C   UNL     1     -11.897  13.300  69.930  1.00  0.00    -0.310 C  
HETATM    5  C   UNL     1     -12.770  13.656  70.885  1.00  0.00    -0.382 C  
HETATM    6  C   UNL     1     -13.184  15.069  71.006  1.00  0.00    -0.425 C  
HETATM    7  C   UNL     1     -13.263  12.578  71.770  1.00  0.00    -0.344 C  
HETATM    8  O   UNL     1     -12.789  15.951  70.258  1.00  0.00    -0.335 OA 
HETATM    9  O   UNL     1     -14.042  15.316  72.021  1.00  0.00    -0.472 OA 
HETATM   10  O   UNL     1     -14.023  12.845  72.700  1.00  0.00    -0.589 OA 
HETATM   11  C   UNL     1     -12.830  11.192  71.502  1.00  0.00    -0.542 A  
HETATM   12  C   UNL     1     -11.918  10.936  70.474  1.00  0.00    -0.371 A  
HETATM   13  N   UNL     1     -11.511   9.670  70.211  1.00  0.00    -0.251 NA 
HETATM   14  C   UNL     1     -11.999   8.651  70.961  1.00  0.00    -0.243 A  
HETATM   15  C   UNL     1     -11.521   7.268  70.628  1.00  0.00    -0.322 C  
HETATM   16  C   UNL     1     -12.909   8.845  71.992  1.00  0.00    -0.456 A  
HETATM   17  C   UNL     1     -13.329  10.139  72.270  1.00  0.00    -0.337 A  
ENDBRANCH   2   3
TORSDOF 1
ENDMDL
MODEL       11
REMARK 921   NORMALIZED FREE ENERGY PREDICTED BY IDOCK:   -5.83 KCAL/MOL
REMARK 922        TOTAL FREE ENERGY PREDICTED BY IDOCK:   -6.29 KCAL/MOL
REMARK 923 INTER-LIGAND FREE ENERGY PREDICTED BY IDOCK:   -6.17 KCAL/MOL
REMARK 924 INTRA-LIGAND FREE ENERGY PREDICTED BY IDOCK:   -0.13 KCAL/MOL
REMARK 927      BINDING AFFINITY PREDICTED BY RF-SCORE:    0.00 PKD
ROOT
HETATM    1  C   UNL     1     -12.010  12.379  66.000  1.00  0.00    -0.419 C  
HETATM    2  C   UNL     1     -11.769  12.514  67.498  1.00  0.00    -0.374 C  
ENDROOT
BRANCH   2   3
HETATM    3  N   UNL     1     -11.529  13.913  67.874  1.00  0.00    -0.299 NA 
HETATM    4  C   UNL     1     -11.040  14.864  66.996  1.00  0.00    -0.338 C  
HETATM    5  C   UNL     1     -10.774  16.144  67.298  1.00  0.00    -0.277 C  
HETATM    6  C   UNL     1     -10.250  17.048  66.254  1.00  0.00    -0.329 C  
HETATM    7  C   UNL     1     -11.032  16.564  68.692  1.00  0.00    -0.344 C  
HETATM    8  O   UNL     1     -10.060  16.700  65.097  1.00  0.00    -0.539 OA 
HETATM    9  O   UNL     1      -9.992  18.305  66.679  1.00  0.00    -0.324 OA 
HETATM   10  O   UNL     1     -10.759  17.709  69.051  1.00  0.00    -0.186 OA 
HETATM   11  C   UNL     1     -11.625  15.585  69.626  1.00  0.00    -0.359 A  
HETATM   12  C   UNL     1     -11.864  14.276  69.199  1.00  0.00    -0.330 A  
HETATM   13  N   UNL     1     -12.410  13.364  70.041  1.00  0.00    -0.269 NA 
HETATM   14  C   UNL     1     -12.722  13.738  71.307  1.00  0.00    -0.371 A  
HETATM   15  C   UNL     1     -13.328  12.694  72.198  1.00  0.00    -0.570 C  
HETATM   16  C   UNL     1     -12.509  15.025  71.785  1.00  0.00    -0.407 A  
HETATM   17  C   UNL     1     -11.947  15.964  70.930  1.00  0.00    -0.432 A  
ENDBRANCH   2   3
TORSDOF 1
ENDMDL
MODEL       12
REMARK 921   NORMALIZED FREE ENERGY PREDICTED BY IDOCK:   -5.78 KCAL/MOL
REMARK 922        TOTAL FREE ENERGY PREDICTED BY IDOCK:   -6.24 KCAL/MOL
REMARK 923 INTER-LIGAND FREE ENERGY PREDICTED BY IDOCK:   -6.11 KCAL/MOL
REMARK 924 INTRA-LIGAND FREE ENERGY PREDICTED BY IDOCK:   -0.13 KCAL/MOL
REMARK 927      BINDING AFFINITY PREDICTED BY RF-SCORE:    0.00 PKD
ROOT
HETATM    1  C   UNL     1     -13.374   9.518  72.072  1.00  0.00    -0.535 C  
HETATM    2  C   UNL     1     -12.175   9.752  71.165  1.00  0.00    -0.362 C  
ENDROOT
BRANCH   2   3
HETATM    3  N   UNL     1     -12.138  11.137  70.678  1.00  0.00    -0.364 NA 
HETATM    4  C   UNL     1     -12.562  12.219  71.430  1.00  0.00    -0.198 C  
HETATM    5  C   UNL     1     -12.577  13.497  71.021  1.00  0.00    -0.438 C  
HETATM    6  C   UNL     1     -13.062  14.551  71.936  1.00  0.00    -0.350 C  
HETATM    7  C   UNL     1     -12.095  13.760  69.648  1.00  0.00    -0.336 C  
HETATM    8  O   UNL     1     -13.439  14.329  73.077  1.00  0.00    -0.644 OA 
HETATM    9  O   UNL     1     -13.061  15.795  71.408  1.00  0.00    -0.493 OA 
HETATM   10  O   UNL     1     -12.134  14.902  69.191  1.00  0.00    -0.291 OA 
HETATM   11  C   UNL     1     -11.567  12.631  68.856  1.00  0.00    -0.363 A  
HETATM   12  C   UNL     1     -11.597  11.338  69.387  1.00  0.00    -0.321 A  
HETATM   13  N   UNL     1     -11.115  10.289  68.677  1.00  0.00    -0.249 NA 
HETATM   14  C   UNL     1     -10.602  10.508  67.441  1.00  0.00    -0.263 A  
HETATM   15  C   UNL     1     -10.077   9.316  66.696  1.00  0.00    -0.341 C  
HETATM   16  C   UNL     1     -10.544  11.771  66.864  1.00  0.00    -0.270 A  
HETATM   17  C   UNL     1     -11.039  12.851  67.583  1.00  0.00    -0.297 A  
ENDBRANCH   2   3
TORSDOF 1
ENDMDL
MODEL       13
REMARK 921   NORMALIZED FREE ENERGY PREDICTED BY IDOCK:   -5.78 KCAL/MOL
REMARK 922        TOTAL FREE ENERGY PREDICTED BY IDOCK:   -6.24 KCAL/MOL
REMARK 923 INTER-LIGAND FREE ENERGY PREDICTED BY IDOCK:   -6.14 KCAL/MOL
REMARK 924 INTRA-LIGAND FREE ENERGY PREDICTED BY IDOCK:   -0.09 KCAL/MOL
REMARK 927      BINDING AFFINITY PREDICTED BY RF-SCORE:    0.00 PKD
ROOT
HETATM    1  C   UNL     1     -12.244  15.359  70.456  1.00  0.00    -0.436 C  
HETATM    2  C   UNL     1     -10.835  15.307  69.882  1.00  0.00    -0.281 C  
ENDROOT
BRANCH   2   3
HETATM    3  N   UNL     1     -10.789  15.877  68.530  1.00  0.00    -0.282 NA 
HETATM    4  C   UNL     1     -10.618  17.227  68.279  1.00  0.00    -0.383 C  
HETATM    5  C   UNL     1     -10.599  17.801  67.066  1.00  0.00    -0.266 C  
HETATM    6  C   UNL     1     -10.409  19.261  66.950  1.00  0.00    -0.426 C  
HETATM    7  C   UNL     1     -10.778  16.903  65.904  1.00  0.00    -0.149 C  
HETATM    8  O   UNL     1     -10.241  19.995  67.914  1.00  0.00    -0.414 OA 
HETATM    9  O   UNL     1     -10.438  19.732  65.684  1.00  0.00    -0.480 OA 
HETATM   10  O   UNL     1     -10.826  17.370  64.767  1.00  0.00    -0.846 OA 
HETATM   11  C   UNL     1     -10.886  15.449  66.146  1.00  0.00    -0.313 A  
HETATM   12  C   UNL     1     -10.889  14.962  67.456  1.00  0.00    -0.292 A  
HETATM   13  N   UNL     1     -10.985  13.632  67.698  1.00  0.00    -0.263 NA 
HETATM   14  C   UNL     1     -11.080  12.776  66.650  1.00  0.00    -0.276 A  
HETATM   15  C   UNL     1     -11.180  11.313  66.969  1.00  0.00    -0.324 C  
HETATM   16  C   UNL     1     -11.079  13.202  65.328  1.00  0.00    -0.304 A  
HETATM   17  C   UNL     1     -10.985  14.564  65.071  1.00  0.00    -0.408 A  
ENDBRANCH   2   3
TORSDOF 1
ENDMDL
MODEL       14
REMARK 921   NORMALIZED FREE ENERGY PREDICTED BY IDOCK:   -5.76 KCAL/MOL
REMARK 922        TOTAL FREE ENERGY PREDICTED BY IDOCK:   -6.22 KCAL/MOL
REMARK 923 INTER-LIGAND FREE ENERGY PREDICTED BY IDOCK:   -6.10 KCAL/MOL
REMARK 924 INTRA-LIGAND FREE ENERGY PREDICTED BY IDOCK:   -0.13 KCAL/MOL
REMARK 927      BINDING AFFINITY PREDICTED BY RF-SCORE:    0.00 PKD
ROOT
HETATM    1  C   UNL     1     -12.081  14.094  64.153  1.00  0.00    -0.437 C  
HETATM    2  C   UNL     1     -11.039  14.957  64.851  1.00  0.00    -0.414 C  
ENDROOT
BRANCH   2   3
HETATM    3  N   UNL     1     -11.105  14.795  66.309  1.00  0.00    -0.338 NA 
HETATM    4  C   UNL     1     -11.422  13.599  66.928  1.00  0.00    -0.345 C  
HETATM    5  C   UNL     1     -11.524  13.408  68.253  1.00  0.00    -0.350 C  
HETATM    6  C   UNL     1     -11.875  12.070  68.773  1.00  0.00    -0.302 C  
HETATM    7  C   UNL     1     -11.273  14.583  69.114  1.00  0.00    -0.269 C  
HETATM    8  O   UNL     1     -12.061  11.098  68.055  1.00  0.00    -0.635 OA 
HETATM    9  O   UNL     1     -11.980  12.002  70.118  1.00  0.00    -0.333 OA 
HETATM   10  O   UNL     1     -11.404  14.490  70.334  1.00  0.00    -0.233 OA 
HETATM   11  C   UNL     1     -10.859  15.850  68.478  1.00  0.00    -0.298 A  
HETATM   12  C   UNL     1     -10.781  15.933  67.085  1.00  0.00    -0.301 A  
HETATM   13  N   UNL     1     -10.400  17.086  66.482  1.00  0.00    -0.312 NA 
HETATM   14  C   UNL     1     -10.096  18.162  67.249  1.00  0.00    -0.347 A  
HETATM   15  C   UNL     1      -9.676  19.413  66.536  1.00  0.00    -0.452 C  
HETATM   16  C   UNL     1     -10.152  18.137  68.637  1.00  0.00    -0.406 A  
HETATM   17  C   UNL     1     -10.545  16.961  69.263  1.00  0.00    -0.325 A  
ENDBRANCH   2   3
TORSDOF 1
ENDMDL
MODEL       15
REMARK 921   NORMALIZED FREE ENERGY PREDICTED BY IDOCK:   -5.76 KCAL/MOL
REMARK 922        TOTAL FREE ENERGY PREDICTED BY IDOCK:   -6.22 KCAL/MOL
REMARK 923 INTER-LIGAND FREE ENERGY PREDICTED BY IDOCK:   -6.09 KCAL/MOL
REMARK 924 INTRA-LIGAND FREE ENERGY PREDICTED BY IDOCK:   -0.13 KCAL/MOL
REMARK 927      BINDING AFFINITY PREDICTED BY RF-SCORE:    0.00 PKD
ROOT
HETATM    1  C   UNL     1     -11.264  11.657  67.120  1.00  0.00    -0.371 C  
HETATM    2  C   UNL     1     -10.541  11.858  68.444  1.00  0.00    -0.218 C  
ENDROOT
BRANCH   2   3
HETATM    3  N   UNL     1     -11.225  11.154  69.536  1.00  0.00    -0.262 NA 
HETATM    4  C   UNL     1     -11.103   9.793  69.757  1.00  0.00    -0.237 C  
HETATM    5  C   UNL     1     -11.729   9.098  70.720  1.00  0.00    -0.308 C  
HETATM    6  C   UNL     1     -11.505   7.643  70.834  1.00  0.00    -0.282 C  
HETATM    7  C   UNL     1     -12.622   9.864  71.616  1.00  0.00    -0.424 C  
HETATM    8  O   UNL     1     -10.749   7.020  70.103  1.00  0.00    -0.224 OA 
HETATM    9  O   UNL     1     -12.210   7.043  71.819  1.00  0.00    -0.318 OA 
HETATM   10  O   UNL     1     -13.269   9.280  72.485  1.00  0.00    -0.437 OA 
HETATM   11  C   UNL     1     -12.707  11.329  71.446  1.00  0.00    -0.501 A  
HETATM   12  C   UNL     1     -12.005  11.948  70.407  1.00  0.00    -0.311 A  
HETATM   13  N   UNL     1     -12.068  13.291  70.237  1.00  0.00    -0.355 NA 
HETATM   14  C   UNL     1     -12.825  14.030  71.086  1.00  0.00    -0.357 A  
HETATM   15  C   UNL     1     -12.859  15.512  70.858  1.00  0.00    -0.535 C  
HETATM   16  C   UNL     1     -13.541  13.469  72.136  1.00  0.00    -0.651 A  
HETATM   17  C   UNL     1     -13.485  12.093  72.317  1.00  0.00    -0.298 A  
ENDBRANCH   2   3
TORSDOF 1
ENDMDL
MODEL       16
REMARK 921   NORMALIZED FREE ENERGY PREDICTED BY IDOCK:   -5.75 KCAL/MOL
REMARK 922        TOTAL FREE ENERGY PREDICTED BY IDOCK:   -6.21 KCAL/MOL
REMARK 923 INTER-LIGAND FREE ENERGY PREDICTED BY IDOCK:   -6.08 KCAL/MOL
REMARK 924 INTRA-LIGAND FREE ENERGY PREDICTED BY IDOCK:   -0.13 KCAL/MOL
REMARK 927      BINDING AFFINITY PREDICTED BY RF-SCORE:    0.00 PKD
ROOT
HETATM    1  C   UNL     1     -10.732  10.097  70.085  1.00  0.00    -0.355 C  
HETATM    2  C   UNL     1     -12.053  10.760  69.720  1.00  0.00    -0.318 C  
ENDROOT
BRANCH   2   3
HETATM    3  N   UNL     1     -11.836  11.977  68.928  1.00  0.00    -0.307 NA 
HETATM    4  C   UNL     1     -11.529  11.963  67.579  1.00  0.00    -0.326 C  
HETATM    5  C   UNL     1     -11.292  13.044  66.819  1.00  0.00    -0.365 C  
HETATM    6  C   UNL     1     -10.972  12.874  65.387  1.00  0.00    -0.278 C  
HETATM    7  C   UNL     1     -11.370  14.358  67.492  1.00  0.00    -0.328 C  
HETATM    8  O   UNL     1     -10.930  11.786  64.832  1.00  0.00    -0.297 OA 
HETATM    9  O   UNL     1     -10.723  14.028  64.729  1.00  0.00    -0.394 OA 
HETATM   10  O   UNL     1     -11.111  15.385  66.868  1.00  0.00    -0.316 OA 
HETATM   11  C   UNL     1     -11.771  14.401  68.913  1.00  0.00    -0.357 A  
HETATM   12  C   UNL     1     -11.998  13.208  69.606  1.00  0.00    -0.306 A  
HETATM   13  N   UNL     1     -12.369  13.227  70.910  1.00  0.00    -0.368 NA 
HETATM   14  C   UNL     1     -12.517  14.420  71.537  1.00  0.00    -0.355 A  
HETATM   15  C   UNL     1     -12.933  14.389  72.978  1.00  0.00    -0.571 C  
HETATM   16  C   UNL     1     -12.308  15.636  70.899  1.00  0.00    -0.479 A  
HETATM   17  C   UNL     1     -11.924  15.626  69.564  1.00  0.00    -0.363 A  
ENDBRANCH   2   3
TORSDOF 1
ENDMDL
MODEL       17
REMARK 921   NORMALIZED FREE ENERGY PREDICTED BY IDOCK:   -5.73 KCAL/MOL
REMARK 922        TOTAL FREE ENERGY PREDICTED BY IDOCK:   -6.19 KCAL/MOL
REMARK 923 INTER-LIGAND FREE ENERGY PREDICTED BY IDOCK:   -6.07 KCAL/MOL
REMARK 924 INTRA-LIGAND FREE ENERGY PREDICTED BY IDOCK:   -0.13 KCAL/MOL
REMARK 927      BINDING AFFINITY PREDICTED BY RF-SCORE:    0.00 PKD
ROOT
HETATM    1  C   UNL     1     -13.423   9.464  71.472  1.00  0.00    -0.445 C  
HETATM    2  C   UNL     1     -12.839  10.828  71.812  1.00  0.00    -0.423 C  
ENDROOT
BRANCH   2   3
HETATM    3  N   UNL     1     -12.294  11.486  70.618  1.00  0.00    -0.373 NA 
HETATM    4  C   UNL     1     -11.768  10.794  69.541  1.00  0.00    -0.312 C  
HETATM    5  C   UNL     1     -11.231  11.347  68.442  1.00  0.00    -0.324 C  
HETATM    6  C   UNL     1     -10.704  10.479  67.370  1.00  0.00    -0.281 C  
HETATM    7  C   UNL     1     -11.206  12.824  68.388  1.00  0.00    -0.278 C  
HETATM    8  O   UNL     1     -10.748   9.258  67.411  1.00  0.00    -0.279 OA 
HETATM    9  O   UNL     1     -10.161  11.144  66.327  1.00  0.00    -0.217 OA 
HETATM   10  O   UNL     1     -10.678  13.396  67.435  1.00  0.00    -0.258 OA 
HETATM   11  C   UNL     1     -11.830  13.582  69.492  1.00  0.00    -0.392 A  
HETATM   12  C   UNL     1     -12.364  12.898  70.588  1.00  0.00    -0.302 A  
HETATM   13  N   UNL     1     -12.944  13.576  71.609  1.00  0.00    -0.362 NA 
HETATM   14  C   UNL     1     -12.997  14.930  71.556  1.00  0.00    -0.342 A  
HETATM   15  C   UNL     1     -13.652  15.634  72.708  1.00  0.00    -0.678 C  
HETATM   16  C   UNL     1     -12.486  15.662  70.492  1.00  0.00    -0.440 A  
HETATM   17  C   UNL     1     -11.888  14.976  69.443  1.00  0.00    -0.358 A  
ENDBRANCH   2   3
TORSDOF 1
ENDMDL
MODEL       18
REMARK 921   NORMALIZED FREE ENERGY PREDICTED BY IDOCK:   -5.68 KCAL/MOL
REMARK 922        TOTAL FREE ENERGY PREDICTED BY IDOCK:   -6.13 KCAL/MOL
REMARK 923 INTER-LIGAND FREE ENERGY PREDICTED BY IDOCK:   -5.99 KCAL/MOL
REMARK 924 INTRA-LIGAND FREE ENERGY PREDICTED BY IDOCK:   -0.14 KCAL/MOL
REMARK 927      BINDING AFFINITY PREDICTED BY RF-SCORE:    0.00 PKD
ROOT
HETATM    1  C   UNL     1      -7.422  14.318  68.174  1.00  0.00    -0.131 C  
HETATM    2  C   UNL     1      -8.919  14.039  68.168  1.00  0.00    -0.183 C  
ENDROOT
BRANCH   2   3
HETATM    3  N   UNL     1      -9.582  14.719  67.049  1.00  0.00    -0.233 NA 
HETATM    4  C   UNL     1      -9.711  16.095  66.963  1.00  0.00    -0.230 C  
HETATM    5  C   UNL     1     -10.333  16.761  65.978  1.00  0.00    -0.346 C  
HETATM    6  C   UNL     1     -10.396  18.237  66.020  1.00  0.00    -0.363 C  
HETATM    7  C   UNL     1     -10.928  15.946  64.897  1.00  0.00    -0.411 C  
HETATM    8  O   UNL     1      -9.884  18.906  66.906  1.00  0.00    -0.302 OA 
HETATM    9  O   UNL     1     -11.072  18.798  64.994  1.00  0.00    -0.457 OA 
HETATM   10  O   UNL     1     -11.560  16.490  63.993  1.00  0.00    -1.154 OA 
HETATM   11  C   UNL     1     -10.736  14.482  64.930  1.00  0.00    -0.448 A  
HETATM   12  C   UNL     1     -10.065  13.894  66.007  1.00  0.00    -0.313 A  
HETATM   13  N   UNL     1      -9.877  12.553  66.053  1.00  0.00    -0.257 NA 
HETATM   14  C   UNL     1     -10.350  11.784  65.041  1.00  0.00    -0.281 A  
HETATM   15  C   UNL     1     -10.113  10.306  65.137  1.00  0.00    -0.355 C  
HETATM   16  C   UNL     1     -11.021  12.313  63.946  1.00  0.00    -0.464 A  
HETATM   17  C   UNL     1     -11.221  13.686  63.891  1.00  0.00    -0.067 A  
ENDBRANCH   2   3
TORSDOF 1
ENDMDL
MODEL       19
REMARK 921   NORMALIZED FREE ENERGY PREDICTED BY IDOCK:   -5.67 KCAL/MOL
REMARK 922        TOTAL FREE ENERGY PREDICTED BY IDOCK:   -6.12 KCAL/MOL
REMARK 923 INTER-LIGAND FREE ENERGY PREDICTED BY IDOCK:   -6.00 KCAL/MOL
REMARK 924 INTRA-LIGAND FREE ENERGY PREDICTED BY IDOCK:   -0.12 KCAL/MOL
REMARK 927      BINDING AFFINITY PREDICTED BY RF-SCORE:    0.00 PKD
ROOT
HETATM    1  C   UNL     1     -12.288  15.567  73.529  1.00  0.00    -0.664 C  
HETATM    2  C   UNL     1     -12.247  16.056  72.088  1.00  0.00    -0.516 C  
ENDROOT
BRANCH   2   3
HETATM    3  N   UNL     1     -12.080  14.938  71.151  1.00  0.00    -0.305 NA 
HETATM    4  C   UNL     1     -12.445  13.636  71.446  1.00  0.00    -0.285 C  
HETATM    5  C   UNL     1     -12.285  12.577  70.638  1.00  0.00    -0.365 C  
HETATM    6  C   UNL     1     -12.720  11.240  71.091  1.00  0.00    -0.390 C  
HETATM    7  C   UNL     1     -11.666  12.835  69.321  1.00  0.00    -0.319 C  
HETATM    8  O   UNL     1     -13.251  11.037  72.174  1.00  0.00    -0.481 OA 
HETATM    9  O   UNL     1     -12.483  10.244  70.209  1.00  0.00    -0.252 OA 
HETATM   10  O   UNL     1     -11.440  11.900  68.553  1.00  0.00    -0.244 OA 
HETATM   11  C   UNL     1     -11.339  14.228  68.954  1.00  0.00    -0.302 A  
HETATM   12  C   UNL     1     -11.553  15.256  69.877  1.00  0.00    -0.311 A  
HETATM   13  N   UNL     1     -11.262  16.541  69.559  1.00  0.00    -0.242 NA 
HETATM   14  C   UNL     1     -10.757  16.819  68.331  1.00  0.00    -0.362 A  
HETATM   15  C   UNL     1     -10.456  18.256  68.025  1.00  0.00    -0.387 C  
HETATM   16  C   UNL     1     -10.527  15.839  67.374  1.00  0.00    -0.297 A  
HETATM   17  C   UNL     1     -10.819  14.519  67.692  1.00  0.00    -0.275 A  
ENDBRANCH   2   3
TORSDOF 1
ENDMDL
MODEL       20
REMARK 921   NORMALIZED FREE ENERGY PREDICTED BY IDOCK:   -5.63 KCAL/MOL
REMARK 922        TOTAL FREE ENERGY PREDICTED BY IDOCK:   -6.08 KCAL/MOL
REMARK 923 INTER-LIGAND FREE ENERGY PREDICTED BY IDOCK:   -5.96 KCAL/MOL
REMARK 924 INTRA-LIGAND FREE ENERGY PREDICTED BY IDOCK:   -0.12 KCAL/MOL
REMARK 927      BINDING AFFINITY PREDICTED BY RF-SCORE:    0.00 PKD
ROOT
HETATM    1  C   UNL     1     -10.258  10.895  66.489  1.00  0.00    -0.282 C  
HETATM    2  C   UNL     1     -11.091  10.797  67.759  1.00  0.00    -0.318 C  
ENDROOT
BRANCH   2   3
HETATM    3  N   UNL     1     -11.339  12.125  68.336  1.00  0.00    -0.260 NA 
HETATM    4  C   UNL     1     -11.019  13.307  67.691  1.00  0.00    -0.262 C  
HETATM    5  C   UNL     1     -11.197  14.541  68.187  1.00  0.00    -0.301 C  
HETATM    6  C   UNL     1     -10.804  15.715  67.383  1.00  0.00    -0.315 C  
HETATM    7  C   UNL     1     -11.788  14.634  69.540  1.00  0.00    -0.330 C  
HETATM    8  O   UNL     1     -10.336  15.632  66.256  1.00  0.00    -0.281 OA 
HETATM    9  O   UNL     1     -11.000  16.905  67.994  1.00  0.00    -0.354 OA 
HETATM   10  O   UNL     1     -11.927  15.732  70.076  1.00  0.00    -0.353 OA 
HETATM   11  C   UNL     1     -12.207  13.388  70.214  1.00  0.00    -0.405 A  
HETATM   12  C   UNL     1     -11.975  12.154  69.599  1.00  0.00    -0.284 A  
HETATM   13  N   UNL     1     -12.355  11.001  70.201  1.00  0.00    -0.317 NA 
HETATM   14  C   UNL     1     -12.963  11.057  71.412  1.00  0.00    -0.414 A  
HETATM   15  C   UNL     1     -13.368   9.754  72.036  1.00  0.00    -0.547 C  
HETATM   16  C   UNL     1     -13.221  12.254  72.069  1.00  0.00    -0.508 A  
HETATM   17  C   UNL     1     -12.832  13.441  71.461  1.00  0.00    -0.427 A  
ENDBRANCH   2   3
TORSDOF 1
ENDMDL
MODEL       21
REMARK 921   NORMALIZED FREE ENERGY PREDICTED BY IDOCK:   -5.61 KCAL/MOL
REMARK 922        TOTAL FREE ENERGY PREDICTED BY IDOCK:   -6.06 KCAL/MOL
REMARK 923 INTER-LIGAND FREE ENERGY PREDICTED BY IDOCK:   -5.97 KCAL/MOL
REMARK 924 INTRA-LIGAND FREE ENERGY PREDICTED BY IDOCK:   -0.10 KCAL/MOL
REMARK 927      BINDING AFFINITY PREDICTED BY RF-SCORE:    0.00 PKD
ROOT
HETATM    1  C   UNL     1     -10.715  10.500  69.090  1.00  0.00    -0.266 C  
HETATM    2  C   UNL     1     -11.976  11.184  68.582  1.00  0.00    -0.219 C  
ENDROOT
BRANCH   2   3
HETATM    3  N   UNL     1     -11.705  12.571  68.183  1.00  0.00    -0.336 NA 
HETATM    4  C   UNL     1     -11.251  12.925  66.924  1.00  0.00    -0.291 C  
HETATM    5  C   UNL     1     -10.960  14.171  66.520  1.00  0.00    -0.309 C  
HETATM    6  C   UNL     1     -10.480  14.399  65.142  1.00  0.00    -0.415 C  
HETATM    7  C   UNL     1     -11.145  15.251  67.513  1.00  0.00    -0.324 C  
HETATM    8  O   UNL     1     -10.349  13.504  64.319  1.00  0.00    -0.406 OA 
HETATM    9  O   UNL     1     -10.189  15.687  64.856  1.00  0.00    -0.418 OA 
HETATM   10  O   UNL     1     -10.845  16.409  67.226  1.00  0.00    -0.291 OA 
HETATM   11  C   UNL     1     -11.701  14.905  68.837  1.00  0.00    -0.343 A  
HETATM   12  C   UNL     1     -11.972  13.569  69.148  1.00  0.00    -0.333 A  
HETATM   13  N   UNL     1     -12.485  13.232  70.357  1.00  0.00    -0.267 NA 
HETATM   14  C   UNL     1     -12.731  14.209  71.265  1.00  0.00    -0.361 A  
HETATM   15  C   UNL     1     -13.302  13.786  72.586  1.00  0.00    -0.618 C  
HETATM   16  C   UNL     1     -12.484  15.552  71.010  1.00  0.00    -0.492 A  
HETATM   17  C   UNL     1     -11.956  15.906  69.776  1.00  0.00    -0.276 A  
ENDBRANCH   2   3
TORSDOF 1
ENDMDL
MODEL       22
REMARK 921   NORMALIZED FREE ENERGY PREDICTED BY IDOCK:   -5.61 KCAL/MOL
REMARK 922        TOTAL FREE ENERGY PREDICTED BY IDOCK:   -6.06 KCAL/MOL
REMARK 923 INTER-LIGAND FREE ENERGY PREDICTED BY IDOCK:   -5.94 KCAL/MOL
REMARK 924 INTRA-LIGAND FREE ENERGY PREDICTED BY IDOCK:   -0.12 KCAL/MOL
REMARK 927      BINDING AFFINITY PREDICTED BY RF-SCORE:    0.00 PKD
ROOT
HETATM    1  C   UNL     1      -9.492  17.121  68.409  1.00  0.00    -0.276 C  
HETATM    2  C   UNL     1     -10.674  16.769  69.302  1.00  0.00    -0.324 C  
ENDROOT
BRANCH   2   3
HETATM    3  N   UNL     1     -11.051  15.358  69.155  1.00  0.00    -0.249 NA 
HETATM    4  C   UNL     1     -10.735  14.598  68.042  1.00  0.00    -0.246 C  
HETATM    5  C   UNL     1     -11.082  13.317  67.847  1.00  0.00    -0.287 C  
HETATM    6  C   UNL     1     -10.676  12.631  66.603  1.00  0.00    -0.253 C  
HETATM    7  C   UNL     1     -11.868  12.671  68.920  1.00  0.00    -0.302 C  
HETATM    8  O   UNL     1     -10.008  13.165  65.729  1.00  0.00    -0.281 OA 
HETATM    9  O   UNL     1     -11.106  11.354  66.500  1.00  0.00    -0.292 OA 
HETATM   10  O   UNL     1     -12.266  11.515  68.780  1.00  0.00    -0.457 OA 
HETATM   11  C   UNL     1     -12.151  13.439  70.149  1.00  0.00    -0.415 A  
HETATM   12  C   UNL     1     -11.736  14.771  70.245  1.00  0.00    -0.298 A  
HETATM   13  N   UNL     1     -11.983  15.492  71.366  1.00  0.00    -0.352 NA 
HETATM   14  C   UNL     1     -12.642  14.906  72.396  1.00  0.00    -0.343 A  
HETATM   15  C   UNL     1     -12.888  15.744  73.616  1.00  0.00    -0.716 C  
HETATM   16  C   UNL     1     -13.075  13.586  72.357  1.00  0.00    -0.494 A  
HETATM   17  C   UNL     1     -12.829  12.841  71.212  1.00  0.00    -0.355 A  
ENDBRANCH   2   3
TORSDOF 1
ENDMDL
MODEL       23
REMARK 921   NORMALIZED FREE ENERGY PREDICTED BY IDOCK:   -5.54 KCAL/MOL
REMARK 922        TOTAL FREE ENERGY PREDICTED BY IDOCK:   -5.99 KCAL/MOL
REMARK 923 INTER-LIGAND FREE ENERGY PREDICTED BY IDOCK:   -5.85 KCAL/MOL
REMARK 924 INTRA-LIGAND FREE ENERGY PREDICTED BY IDOCK:   -0.14 KCAL/MOL
REMARK 927      BINDING AFFINITY PREDICTED BY RF-SCORE:    0.00 PKD
ROOT
HETATM    1  C   UNL     1     -12.339  12.244  63.332  1.00  0.00    -0.624 C  
HETATM    2  C   UNL     1     -12.707  12.540  64.780  1.00  0.00    -0.330 C  
ENDROOT
BRANCH   2   3
HETATM    3  N   UNL     1     -11.678  13.359  65.433  1.00  0.00    -0.319 NA 
HETATM    4  C   UNL     1     -11.502  14.708  65.175  1.00  0.00    -0.375 C  
HETATM    5  C   UNL     1     -10.560  15.491  65.722  1.00  0.00    -0.370 C  
HETATM    6  C   UNL     1     -10.490  16.919  65.348  1.00  0.00    -0.154 C  
HETATM    7  C   UNL     1      -9.637  14.849  66.682  1.00  0.00    -0.266 C  
HETATM    8  O   UNL     1     -11.270  17.449  64.570  1.00  0.00    -1.018 OA 
HETATM    9  O   UNL     1      -9.484  17.603  65.937  1.00  0.00    -0.514 OA 
HETATM   10  O   UNL     1      -8.716  15.496  67.177  1.00  0.00    -0.184 OA 
HETATM   11  C   UNL     1      -9.854  13.429  67.028  1.00  0.00    -0.250 A  
HETATM   12  C   UNL     1     -10.873  12.710  66.397  1.00  0.00    -0.269 A  
HETATM   13  N   UNL     1     -11.091  11.407  66.704  1.00  0.00    -0.293 NA 
HETATM   14  C   UNL     1     -10.304  10.808  67.632  1.00  0.00    -0.201 A  
HETATM   15  C   UNL     1     -10.586   9.367  67.940  1.00  0.00    -0.293 C  
HETATM   16  C   UNL     1      -9.279  11.474  68.293  1.00  0.00    -0.186 A  
HETATM   17  C   UNL     1      -9.047  12.807  67.983  1.00  0.00    -0.207 A  
ENDBRANCH   2   3
TORSDOF 1
ENDMDL
MODEL       24
REMARK 921   NORMALIZED FREE ENERGY PREDICTED BY IDOCK:   -5.53 KCAL/MOL
REMARK 922        TOTAL FREE ENERGY PREDICTED BY IDOCK:   -5.98 KCAL/MOL
REMARK 923 INTER-LIGAND FREE ENERGY PREDICTED BY IDOCK:   -5.85 KCAL/MOL
REMARK 924 INTRA-LIGAND FREE ENERGY PREDICTED BY IDOCK:   -0.13 KCAL/MOL
REMARK 927      BINDING AFFINITY PREDICTED BY RF-SCORE:    0.00 PKD
ROOT
HETATM    1  C   UNL     1     -10.379  15.617  67.426  1.00  0.00    -0.275 C  
HETATM    2  C   UNL     1     -11.604  15.359  68.292  1.00  0.00    -0.348 C  
ENDROOT
BRANCH   2   3
HETATM    3  N   UNL     1     -11.668  13.956  68.719  1.00  0.00    -0.334 NA 
HETATM    4  C   UNL     1     -11.148  12.910  67.976  1.00  0.00    -0.253 C  
HETATM    5  C   UNL     1     -11.207  11.611  68.308  1.00  0.00    -0.320 C  
HETATM    6  C   UNL     1     -10.609  10.600  67.412  1.00  0.00    -0.256 C  
HETATM    7  C   UNL     1     -11.887  11.280  69.578  1.00  0.00    -0.357 C  
HETATM    8  O   UNL     1     -10.029  10.882  66.373  1.00  0.00    -0.206 OA 
HETATM    9  O   UNL     1     -10.754   9.323  67.831  1.00  0.00    -0.242 OA 
HETATM   10  O   UNL     1     -12.025  10.105  69.915  1.00  0.00    -0.191 OA 
HETATM   11  C   UNL     1     -12.382  12.386  70.423  1.00  0.00    -0.307 A  
HETATM   12  C   UNL     1     -12.262  13.706  69.978  1.00  0.00    -0.329 A  
HETATM   13  N   UNL     1     -12.707  14.735  70.740  1.00  0.00    -0.343 NA 
HETATM   14  C   UNL     1     -13.274  14.468  71.943  1.00  0.00    -0.359 A  
HETATM   15  C   UNL     1     -13.747  15.640  72.751  1.00  0.00    -0.662 C  
HETATM   16  C   UNL     1     -13.417  13.178  72.438  1.00  0.00    -0.643 A  
HETATM   17  C   UNL     1     -12.966  12.117  71.662  1.00  0.00    -0.427 A  
ENDBRANCH   2   3
TORSDOF 1
ENDMDL
MODEL       25
REMARK 921   NORMALIZED FREE ENERGY PREDICTED BY IDOCK:   -5.52 KCAL/MOL
REMARK 922        TOTAL FREE ENERGY PREDICTED BY IDOCK:   -5.97 KCAL/MOL
REMARK 923 INTER-LIGAND FREE ENERGY PREDICTED BY IDOCK:   -5.85 KCAL/MOL
REMARK 924 INTRA-LIGAND FREE ENERGY PREDICTED BY IDOCK:   -0.12 KCAL/MOL
REMARK 927      BINDING AFFINITY PREDICTED BY RF-SCORE:    0.00 PKD
ROOT
HETATM    1  C   UNL     1     -10.839  10.032  68.153  1.00  0.00    -0.303 C  
HETATM    2  C   UNL     1     -10.382  11.467  67.930  1.00  0.00    -0.183 C  
ENDROOT
BRANCH   2   3
HETATM    3  N   UNL     1     -11.083  12.394  68.828  1.00  0.00    -0.249 NA 
HETATM    4  C   UNL     1     -11.823  11.980  69.922  1.00  0.00    -0.331 C  
HETATM    5  C   UNL     1     -12.505  12.783  70.753  1.00  0.00    -0.357 C  
HETATM    6  C   UNL     1     -13.257  12.198  71.882  1.00  0.00    -0.369 C  
HETATM    7  C   UNL     1     -12.454  14.233  70.466  1.00  0.00    -0.361 C  
HETATM    8  O   UNL     1     -13.277  11.000  72.126  1.00  0.00    -0.481 OA 
HETATM    9  O   UNL     1     -13.929  13.097  72.634  1.00  0.00    -0.708 OA 
HETATM   10  O   UNL     1     -13.101  15.020  71.156  1.00  0.00    -0.355 OA 
HETATM   11  C   UNL     1     -11.608  14.702  69.349  1.00  0.00    -0.342 A  
HETATM   12  C   UNL     1     -10.937  13.773  68.550  1.00  0.00    -0.262 A  
HETATM   13  N   UNL     1     -10.154  14.184  67.522  1.00  0.00    -0.235 NA 
HETATM   14  C   UNL     1     -10.031  15.512  67.277  1.00  0.00    -0.238 A  
HETATM   15  C   UNL     1      -9.151  15.917  66.132  1.00  0.00    -0.385 C  
HETATM   16  C   UNL     1     -10.672  16.480  68.039  1.00  0.00    -0.343 A  
HETATM   17  C   UNL     1     -11.479  16.068  69.092  1.00  0.00    -0.347 A  
ENDBRANCH   2   3
TORSDOF 1
ENDMDL
MODEL       26
REMARK 921   NORMALIZED FREE ENERGY PREDICTED BY IDOCK:   -5.52 KCAL/MOL
REMARK 922        TOTAL FREE ENERGY PREDICTED BY IDOCK:   -5.97 KCAL/MOL
REMARK 923 INTER-LIGAND FREE ENERGY PREDICTED BY IDOCK:   -5.83 KCAL/MOL
REMARK 924 INTRA-LIGAND FREE ENERGY PREDICTED BY IDOCK:   -0.13 KCAL/MOL
REMARK 927      BINDING AFFINITY PREDICTED BY RF-SCORE:    0.00 PKD
ROOT
HETATM    1  C   UNL     1     -11.533  12.004  65.112  1.00  0.00    -0.344 C  
HETATM    2  C   UNL     1     -10.933  11.885  66.507  1.00  0.00    -0.292 C  
ENDROOT
BRANCH   2   3
HETATM    3  N   UNL     1     -11.043  13.151  67.243  1.00  0.00    -0.271 NA 
HETATM    4  C   UNL     1     -10.753  14.384  66.684  1.00  0.00    -0.292 C  
HETATM    5  C   UNL     1     -10.809  15.563  67.321  1.00  0.00    -0.313 C  
HETATM    6  C   UNL     1     -10.466  16.803  66.595  1.00  0.00    -0.258 C  
HETATM    7  C   UNL     1     -11.217  15.531  68.742  1.00  0.00    -0.315 C  
HETATM    8  O   UNL     1     -10.150  16.825  65.414  1.00  0.00    -0.587 OA 
HETATM    9  O   UNL     1     -10.528  17.926  67.344  1.00  0.00    -0.369 OA 
HETATM   10  O   UNL     1     -11.235  16.570  69.401  1.00  0.00    -0.286 OA 
HETATM   11  C   UNL     1     -11.604  14.236  69.337  1.00  0.00    -0.354 A  
HETATM   12  C   UNL     1     -11.511  13.067  68.575  1.00  0.00    -0.304 A  
HETATM   13  N   UNL     1     -11.865  11.870  69.102  1.00  0.00    -0.311 NA 
HETATM   14  C   UNL     1     -12.309  11.817  70.382  1.00  0.00    -0.277 A  
HETATM   15  C   UNL     1     -12.692  10.469  70.918  1.00  0.00    -0.495 C  
HETATM   16  C   UNL     1     -12.425  12.945  71.185  1.00  0.00    -0.344 A  
HETATM   17  C   UNL     1     -12.062  14.176  70.654  1.00  0.00    -0.421 A  
ENDBRANCH   2   3
TORSDOF 1
ENDMDL
MODEL       27
REMARK 921   NORMALIZED FREE ENERGY PREDICTED BY IDOCK:   -5.50 KCAL/MOL
REMARK 922        TOTAL FREE ENERGY PREDICTED BY IDOCK:   -5.94 KCAL/MOL
REMARK 923 INTER-LIGAND FREE ENERGY PREDICTED BY IDOCK:   -5.80 KCAL/MOL
REMARK 924 INTRA-LIGAND FREE ENERGY PREDICTED BY IDOCK:   -0.14 KCAL/MOL
REMARK 927      BINDING AFFINITY PREDICTED BY RF-SCORE:    0.00 PKD
ROOT
HETATM    1  C   UNL     1      -8.883  16.089  69.245  1.00  0.00    -0.227 C  
HETATM    2  C   UNL     1      -8.495  14.973  68.285  1.00  0.00    -0.147 C  
ENDROOT
BRANCH   2   3
HETATM    3  N   UNL     1      -9.616  14.613  67.407  1.00  0.00    -0.212 NA 
HETATM    4  C   UNL     1     -10.137  15.466  66.450  1.00  0.00    -0.279 C  
HETATM    5  C   UNL     1     -11.177  15.197  65.646  1.00  0.00    -0.296 C  
HETATM    6  C   UNL     1     -11.628  16.210  64.670  1.00  0.00    -0.133 C  
HETATM    7  C   UNL     1     -11.812  13.871  65.804  1.00  0.00    -0.378 C  
HETATM    8  O   UNL     1     -11.085  17.296  64.530  1.00  0.00    -1.082 OA 
HETATM    9  O   UNL     1     -12.701  15.841  63.935  1.00  0.00    -0.672 OA 
HETATM   10  O   UNL     1     -12.804  13.580  65.137  1.00  0.00    -0.681 OA 
HETATM   11  C   UNL     1     -11.224  12.916  66.766  1.00  0.00    -0.337 A  
HETATM   12  C   UNL     1     -10.134  13.305  67.551  1.00  0.00    -0.223 A  
HETATM   13  N   UNL     1      -9.579  12.443  68.437  1.00  0.00    -0.208 NA 
HETATM   14  C   UNL     1     -10.095  11.195  68.555  1.00  0.00    -0.201 A  
HETATM   15  C   UNL     1      -9.444  10.276  69.546  1.00  0.00    -0.207 C  
HETATM   16  C   UNL     1     -11.175  10.752  67.801  1.00  0.00    -0.385 A  
HETATM   17  C   UNL     1     -11.752  11.630  66.892  1.00  0.00    -0.133 A  
ENDBRANCH   2   3
TORSDOF 1
ENDMDL
MODEL       28
REMARK 921   NORMALIZED FREE ENERGY PREDICTED BY IDOCK:   -5.48 KCAL/MOL
REMARK 922        TOTAL FREE ENERGY PREDICTED BY IDOCK:   -5.92 KCAL/MOL
REMARK 923 INTER-LIGAND FREE ENERGY PREDICTED BY IDOCK:   -5.84 KCAL/MOL
REMARK 924 INTRA-LIGAND FREE ENERGY PREDICTED BY IDOCK:   -0.08 KCAL/MOL
REMARK 927      BINDING AFFINITY PREDICTED BY RF-SCORE:    0.00 PKD
ROOT
HETATM    1  C   UNL     1     -10.434  11.405  67.993  1.00  0.00    -0.215 C  
HETATM    2  C   UNL     1     -11.620  12.326  67.743  1.00  0.00    -0.351 C  
ENDROOT
BRANCH   2   3
HETATM    3  N   UNL     1     -11.763  13.313  68.820  1.00  0.00    -0.308 NA 
HETATM    4  C   UNL     1     -12.393  13.041  70.022  1.00  0.00    -0.152 C  
HETATM    5  C   UNL     1     -12.577  13.915  71.024  1.00  0.00    -0.444 C  
HETATM    6  C   UNL     1     -13.273  13.483  72.253  1.00  0.00    -0.475 C  
HETATM    7  C   UNL     1     -12.055  15.283  70.815  1.00  0.00    -0.351 C  
HETATM    8  O   UNL     1     -13.683  12.345  72.428  1.00  0.00    -0.423 OA 
HETATM    9  O   UNL     1     -13.427  14.454  73.180  1.00  0.00    -0.625 OA 
HETATM   10  O   UNL     1     -12.238  16.149  71.670  1.00  0.00    -0.460 OA 
HETATM   11  C   UNL     1     -11.313  15.574  69.571  1.00  0.00    -0.317 A  
HETATM   12  C   UNL     1     -11.179  14.581  68.595  1.00  0.00    -0.261 A  
HETATM   13  N   UNL     1     -10.499  14.828  67.449  1.00  0.00    -0.254 NA 
HETATM   14  C   UNL     1      -9.949  16.052  67.258  1.00  0.00    -0.242 A  
HETATM   15  C   UNL     1      -9.203  16.275  65.976  1.00  0.00    -0.351 C  
HETATM   16  C   UNL     1     -10.047  17.075  68.193  1.00  0.00    -0.308 A  
HETATM   17  C   UNL     1     -10.745  16.833  69.369  1.00  0.00    -0.300 A  
ENDBRANCH   2   3
TORSDOF 1
ENDMDL
MODEL       29
REMARK 921   NORMALIZED FREE ENERGY PREDICTED BY IDOCK:   -5.47 KCAL/MOL
REMARK 922        TOTAL FREE ENERGY PREDICTED BY IDOCK:   -5.92 KCAL/MOL
REMARK 923 INTER-LIGAND FREE ENERGY PREDICTED BY IDOCK:   -5.79 KCAL/MOL
REMARK 924 INTRA-LIGAND FREE ENERGY PREDICTED BY IDOCK:   -0.13 KCAL/MOL
REMARK 927      BINDING AFFINITY PREDICTED BY RF-SCORE:    0.00 PKD
ROOT
HETATM    1  C   UNL     1     -11.661  15.724  71.548  1.00  0.00    -0.531 C  
HETATM    2  C   UNL     1     -12.282  15.503  70.175  1.00  0.00    -0.376 C  
ENDROOT
BRANCH   2   3
HETATM    3  N   UNL     1     -12.172  14.099  69.762  1.00  0.00    -0.341 NA 
HETATM    4  C   UNL     1     -12.485  13.035  70.589  1.00  0.00    -0.268 C  
HETATM    5  C   UNL     1     -12.373  11.737  70.270  1.00  0.00    -0.320 C  
HETATM    6  C   UNL     1     -12.743  10.705  71.261  1.00  0.00    -0.433 C  
HETATM    7  C   UNL     1     -11.871  11.428  68.913  1.00  0.00    -0.347 C  
HETATM    8  O   UNL     1     -13.177  10.968  72.373  1.00  0.00    -0.259 OA 
HETATM    9  O   UNL     1     -12.561   9.434  70.841  1.00  0.00    -0.249 OA 
HETATM   10  O   UNL     1     -11.693  10.259  68.575  1.00  0.00    -0.199 OA 
HETATM   11  C   UNL     1     -11.603  12.547  67.988  1.00  0.00    -0.395 A  
HETATM   12  C   UNL     1     -11.759  13.865  68.429  1.00  0.00    -0.356 A  
HETATM   13  N   UNL     1     -11.521  14.905  67.594  1.00  0.00    -0.345 NA 
HETATM   14  C   UNL     1     -11.126  14.653  66.321  1.00  0.00    -0.336 A  
HETATM   15  C   UNL     1     -10.879  15.837  65.434  1.00  0.00    -0.376 C  
HETATM   16  C   UNL     1     -10.958  13.365  65.827  1.00  0.00    -0.288 A  
HETATM   17  C   UNL     1     -11.197  12.293  66.677  1.00  0.00    -0.367 A  
ENDBRANCH   2   3
TORSDOF 1
ENDMDL
MODEL       30
REMARK 921   NORMALIZED FREE ENERGY PREDICTED BY IDOCK:   -5.47 KCAL/MOL
REMARK 922        TOTAL FREE ENERGY PREDICTED BY IDOCK:   -5.91 KCAL/MOL
REMARK 923 INTER-LIGAND FREE ENERGY PREDICTED BY IDOCK:   -5.79 KCAL/MOL
REMARK 924 INTRA-LIGAND FREE ENERGY PREDICTED BY IDOCK:   -0.12 KCAL/MOL
REMARK 927      BINDING AFFINITY PREDICTED BY RF-SCORE:    0.00 PKD
ROOT
HETATM    1  C   UNL     1     -10.356  10.311  67.175  1.00  0.00    -0.292 C  
HETATM    2  C   UNL     1     -10.605  11.756  67.583  1.00  0.00    -0.205 C  
ENDROOT
BRANCH   2   3
HETATM    3  N   UNL     1     -11.325  11.832  68.861  1.00  0.00    -0.242 NA 
HETATM    4  C   UNL     1     -11.695  10.717  69.593  1.00  0.00    -0.323 C  
HETATM    5  C   UNL     1     -12.378  10.732  70.748  1.00  0.00    -0.480 C  
HETATM    6  C   UNL     1     -12.706   9.457  71.419  1.00  0.00    -0.345 C  
HETATM    7  C   UNL     1     -12.763  12.059  71.274  1.00  0.00    -0.279 C  
HETATM    8  O   UNL     1     -12.366   8.365  70.989  1.00  0.00    -0.250 OA 
HETATM    9  O   UNL     1     -13.422   9.592  72.557  1.00  0.00    -0.426 OA 
HETATM   10  O   UNL     1     -13.438  12.142  72.300  1.00  0.00    -0.491 OA 
HETATM   11  C   UNL     1     -12.313  13.264  70.549  1.00  0.00    -0.389 A  
HETATM   12  C   UNL     1     -11.601  13.129  69.353  1.00  0.00    -0.300 A  
HETATM   13  N   UNL     1     -11.177  14.223  68.675  1.00  0.00    -0.250 NA 
HETATM   14  C   UNL     1     -11.455  15.455  69.169  1.00  0.00    -0.333 A  
HETATM   15  C   UNL     1     -10.961  16.634  68.383  1.00  0.00    -0.345 C  
HETATM   16  C   UNL     1     -12.156  15.650  70.352  1.00  0.00    -0.425 A  
HETATM   17  C   UNL     1     -12.597  14.535  71.053  1.00  0.00    -0.410 A  
ENDBRANCH   2   3
TORSDOF 1
ENDMDL
MODEL       31
REMARK 921   NORMALIZED FREE ENERGY PREDICTED BY IDOCK:   -5.40 KCAL/MOL
REMARK 922        TOTAL FREE ENERGY PREDICTED BY IDOCK:   -5.84 KCAL/MOL
REMARK 923 INTER-LIGAND FREE ENERGY PREDICTED BY IDOCK:   -5.71 KCAL/MOL
REMARK 924 INTRA-LIGAND FREE ENERGY PREDICTED BY IDOCK:   -0.13 KCAL/MOL
REMARK 927      BINDING AFFINITY PREDICTED BY RF-SCORE:    0.00 PKD
ROOT
HETATM    1  C   UNL     1     -11.740  12.212  69.367  1.00  0.00    -0.391 C  
HETATM    2  C   UNL     1     -11.380  10.946  68.602  1.00  0.00    -0.295 C  
ENDROOT
BRANCH   2   3
HETATM    3  N   UNL     1     -11.171  11.227  67.176  1.00  0.00    -0.361 NA 
HETATM    4  C   UNL     1     -11.836  12.231  66.493  1.00  0.00    -0.306 C  
HETATM    5  C   UNL     1     -11.704  12.507  65.187  1.00  0.00    -0.422 C  
HETATM    6  C   UNL     1     -12.483  13.612  64.591  1.00  0.00    -0.314 C  
HETATM    7  C   UNL     1     -10.764  11.660  64.421  1.00  0.00    -0.330 C  
HETATM    8  O   UNL     1     -13.242  14.322  65.235  1.00  0.00    -0.704 OA 
HETATM    9  O   UNL     1     -12.293  13.779  63.264  1.00  0.00    -0.756 OA 
HETATM   10  O   UNL     1     -10.636  11.824  63.208  1.00  0.00    -0.390 OA 
HETATM   11  C   UNL     1      -9.988  10.633  65.145  1.00  0.00    -0.366 A  
HETATM   12  C   UNL     1     -10.206  10.435  66.512  1.00  0.00    -0.229 A  
HETATM   13  N   UNL     1      -9.502   9.499  67.195  1.00  0.00    -0.145 NA 
HETATM   14  C   UNL     1      -8.582   8.753  66.534  1.00  0.00    -0.118 A  
HETATM   15  C   UNL     1      -7.826   7.734  67.334  1.00  0.00    -0.118 C  
HETATM   16  C   UNL     1      -8.322   8.908  65.178  1.00  0.00    -0.170 A  
HETATM   17  C   UNL     1      -9.040   9.862  64.470  1.00  0.00    -0.296 A  
ENDBRANCH   2   3
TORSDOF 1
ENDMDL
MODEL       32
REMARK 921   NORMALIZED FREE ENERGY PREDICTED BY IDOCK:   -5.36 KCAL/MOL
REMARK 922        TOTAL FREE ENERGY PREDICTED BY IDOCK:   -5.80 KCAL/MOL
REMARK 923 INTER-LIGAND FREE ENERGY PREDICTED BY IDOCK:   -5.66 KCAL/MOL
REMARK 924 INTRA-LIGAND FREE ENERGY PREDICTED BY IDOCK:   -0.14 KCAL/MOL
REMARK 927      BINDING AFFINITY PREDICTED BY RF-SCORE:    0.00 PKD
ROOT
HETATM    1  C   UNL     1      -8.588   9.444  65.585  1.00  0.00    -0.159 C  
HETATM    2  C   UNL     1      -9.978   9.277  66.184  1.00  0.00    -0.277 C  
ENDROOT
BRANCH   2   3
HETATM    3  N   UNL     1     -10.655  10.572  66.327  1.00  0.00    -0.178 NA 
HETATM    4  C   UNL     1     -10.965  11.391  65.255  1.00  0.00    -0.184 C  
HETATM    5  C   UNL     1     -11.554  12.594  65.335  1.00  0.00    -0.400 C  
HETATM    6  C   UNL     1     -11.821  13.360  64.101  1.00  0.00    -0.442 C  
HETATM    7  C   UNL     1     -11.899  13.075  66.690  1.00  0.00    -0.393 C  
HETATM    8  O   UNL     1     -11.553  12.947  62.982  1.00  0.00    -0.282 OA 
HETATM    9  O   UNL     1     -12.390  14.569  64.304  1.00  0.00    -0.597 OA 
HETATM   10  O   UNL     1     -12.392  14.192  66.839  1.00  0.00    -0.419 OA 
HETATM   11  C   UNL     1     -11.647  12.184  67.841  1.00  0.00    -0.413 A  
HETATM   12  C   UNL     1     -11.030  10.946  67.638  1.00  0.00    -0.293 A  
HETATM   13  N   UNL     1     -10.793  10.114  68.681  1.00  0.00    -0.227 NA 
HETATM   14  C   UNL     1     -11.161  10.498  69.929  1.00  0.00    -0.307 A  
HETATM   15  C   UNL     1     -10.881   9.540  71.049  1.00  0.00    -0.423 C  
HETATM   16  C   UNL     1     -11.780  11.714  70.190  1.00  0.00    -0.381 A  
HETATM   17  C   UNL     1     -12.024  12.574  69.127  1.00  0.00    -0.287 A  
ENDBRANCH   2   3
TORSDOF 1
ENDMDL
MODEL       33
REMARK 921   NORMALIZED FREE ENERGY PREDICTED BY IDOCK:   -5.33 KCAL/MOL
REMARK 922        TOTAL FREE ENERGY PREDICTED BY IDOCK:   -5.76 KCAL/MOL
REMARK 923 INTER-LIGAND FREE ENERGY PREDICTED BY IDOCK:   -5.63 KCAL/MOL
REMARK 924 INTRA-LIGAND FREE ENERGY PREDICTED BY IDOCK:   -0.13 KCAL/MOL
REMARK 927      BINDING AFFINITY PREDICTED BY RF-SCORE:    0.00 PKD
ROOT
HETATM    1  C   UNL     1      -9.551  10.479  65.327  1.00  0.00    -0.303 C  
HETATM    2  C   UNL     1      -9.413  11.338  66.576  1.00  0.00    -0.193 C  
ENDROOT
BRANCH   2   3
HETATM    3  N   UNL     1      -9.634  12.758  66.272  1.00  0.00    -0.258 NA 
HETATM    4  C   UNL     1     -10.611  13.206  65.401  1.00  0.00    -0.299 C  
HETATM    5  C   UNL     1     -10.833  14.487  65.068  1.00  0.00    -0.425 C  
HETATM    6  C   UNL     1     -11.914  14.818  64.117  1.00  0.00    -0.259 C  
HETATM    7  C   UNL     1      -9.952  15.497  65.692  1.00  0.00    -0.360 C  
HETATM    8  O   UNL     1     -12.653  13.980  63.621  1.00  0.00    -0.818 OA 
HETATM    9  O   UNL     1     -12.026  16.135  63.832  1.00  0.00    -0.947 OA 
HETATM   10  O   UNL     1     -10.065  16.684  65.388  1.00  0.00    -0.578 OA 
HETATM   11  C   UNL     1      -8.953  15.048  66.683  1.00  0.00    -0.313 A  
HETATM   12  C   UNL     1      -8.812  13.684  66.956  1.00  0.00    -0.223 A  
HETATM   13  N   UNL     1      -7.903  13.252  67.864  1.00  0.00    -0.136 NA 
HETATM   14  C   UNL     1      -7.128  14.161  68.505  1.00  0.00    -0.103 A  
HETATM   15  C   UNL     1      -6.139  13.634  69.503  1.00  0.00    -0.114 C  
HETATM   16  C   UNL     1      -7.225  15.528  68.276  1.00  0.00    -0.118 A  
HETATM   17  C   UNL     1      -8.152  15.979  67.345  1.00  0.00    -0.188 A  
ENDBRANCH   2   3
TORSDOF 1
ENDMDL
MODEL       34
REMARK 921   NORMALIZED FREE ENERGY PREDICTED BY IDOCK:   -5.31 KCAL/MOL
REMARK 922        TOTAL FREE ENERGY PREDICTED BY IDOCK:   -5.74 KCAL/MOL
REMARK 923 INTER-LIGAND FREE ENERGY PREDICTED BY IDOCK:   -5.60 KCAL/MOL
REMARK 924 INTRA-LIGAND FREE ENERGY PREDICTED BY IDOCK:   -0.14 KCAL/MOL
REMARK 927      BINDING AFFINITY PREDICTED BY RF-SCORE:    0.00 PKD
ROOT
HETATM    1  C   UNL     1      -8.574  11.083  68.743  1.00  0.00    -0.144 C  
HETATM    2  C   UNL     1     -10.010  10.658  68.470  1.00  0.00    -0.167 C  
ENDROOT
BRANCH   2   3
HETATM    3  N   UNL     1     -10.948  11.348  69.365  1.00  0.00    -0.230 NA 
HETATM    4  C   UNL     1     -11.171  12.714  69.328  1.00  0.00    -0.193 C  
HETATM    5  C   UNL     1     -11.992  13.394  70.142  1.00  0.00    -0.396 C  
HETATM    6  C   UNL     1     -12.128  14.857  69.987  1.00  0.00    -0.338 C  
HETATM    7  C   UNL     1     -12.717  12.607  71.162  1.00  0.00    -0.254 C  
HETATM    8  O   UNL     1     -11.542  15.499  69.127  1.00  0.00    -0.317 OA 
HETATM    9  O   UNL     1     -12.958  15.441  70.879  1.00  0.00    -0.437 OA 
HETATM   10  O   UNL     1     -13.444  13.176  71.976  1.00  0.00    -0.469 OA 
HETATM   11  C   UNL     1     -12.552  11.139  71.171  1.00  0.00    -0.513 A  
HETATM   12  C   UNL     1     -11.670  10.535  70.270  1.00  0.00    -0.332 A  
HETATM   13  N   UNL     1     -11.507   9.190  70.260  1.00  0.00    -0.201 NA 
HETATM   14  C   UNL     1     -12.211   8.433  71.138  1.00  0.00    -0.226 A  
HETATM   15  C   UNL     1     -12.000   6.949  71.086  1.00  0.00    -0.413 C  
HETATM   16  C   UNL     1     -13.104   8.978  72.053  1.00  0.00    -0.474 A  
HETATM   17  C   UNL     1     -13.274  10.356  72.073  1.00  0.00    -0.497 A  
ENDBRANCH   2   3
TORSDOF 1
ENDMDL
MODEL       35
REMARK 921   NORMALIZED FREE ENERGY PREDICTED BY IDOCK:   -5.31 KCAL/MOL
REMARK 922        TOTAL FREE ENERGY PREDICTED BY IDOCK:   -5.74 KCAL/MOL
REMARK 923 INTER-LIGAND FREE ENERGY PREDICTED BY IDOCK:   -5.60 KCAL/MOL
REMARK 924 INTRA-LIGAND FREE ENERGY PREDICTED BY IDOCK:   -0.14 KCAL/MOL
REMARK 927      BINDING AFFINITY PREDICTED BY RF-SCORE:    0.00 PKD
ROOT
HETATM    1  C   UNL     1     -11.487  14.738  66.977  1.00  0.00    -0.362 C  
HETATM    2  C   UNL     1     -12.199  13.472  66.523  1.00  0.00    -0.380 C  
ENDROOT
BRANCH   2   3
HETATM    3  N   UNL     1     -11.722  12.298  67.266  1.00  0.00    -0.488 NA 
HETATM    4  C   UNL     1     -12.024  12.065  68.596  1.00  0.00    -0.235 C  
HETATM    5  C   UNL     1     -11.589  11.026  69.326  1.00  0.00    -0.384 C  
HETATM    6  C   UNL     1     -11.992  10.909  70.742  1.00  0.00    -0.346 C  
HETATM    7  C   UNL     1     -10.714  10.052  68.639  1.00  0.00    -0.226 C  
HETATM    8  O   UNL     1     -12.733  11.706  71.298  1.00  0.00    -0.393 OA 
HETATM    9  O   UNL     1     -11.471   9.841  71.386  1.00  0.00    -0.371 OA 
HETATM   10  O   UNL     1     -10.236   9.107  69.264  1.00  0.00    -0.197 OA 
HETATM   11  C   UNL     1     -10.442  10.241  67.199  1.00  0.00    -0.311 A  
HETATM   12  C   UNL     1     -10.952  11.361  66.538  1.00  0.00    -0.272 A  
HETATM   13  N   UNL     1     -10.715  11.550  65.216  1.00  0.00    -0.286 NA 
HETATM   14  C   UNL     1      -9.973  10.637  64.542  1.00  0.00    -0.345 A  
HETATM   15  C   UNL     1      -9.743  10.888  63.081  1.00  0.00    -0.396 C  
HETATM   16  C   UNL     1      -9.443   9.504  65.146  1.00  0.00    -0.305 A  
HETATM   17  C   UNL     1      -9.678   9.304  66.500  1.00  0.00    -0.305 A  
ENDBRANCH   2   3
TORSDOF 1
ENDMDL
MODEL       36
REMARK 921   NORMALIZED FREE ENERGY PREDICTED BY IDOCK:   -5.29 KCAL/MOL
REMARK 922        TOTAL FREE ENERGY PREDICTED BY IDOCK:   -5.73 KCAL/MOL
REMARK 923 INTER-LIGAND FREE ENERGY PREDICTED BY IDOCK:   -5.77 KCAL/MOL
REMARK 924 INTRA-LIGAND FREE ENERGY PREDICTED BY IDOCK:    0.05 KCAL/MOL
REMARK 927      BINDING AFFINITY PREDICTED BY RF-SCORE:    0.00 PKD
ROOT
HETATM    1  C   UNL     1     -10.322  16.630  69.190  1.00  0.00    -0.326 C  
HETATM    2  C   UNL     1     -11.598  16.195  68.482  1.00  0.00    -0.265 C  
ENDROOT
BRANCH   2   3
HETATM    3  N   UNL     1     -11.577  14.757  68.185  1.00  0.00    -0.321 NA 
HETATM    4  C   UNL     1     -11.159  14.236  66.973  1.00  0.00    -0.312 C  
HETATM    5  C   UNL     1     -11.151  12.936  66.642  1.00  0.00    -0.316 C  
HETATM    6  C   UNL     1     -10.678  12.525  65.304  1.00  0.00    -0.286 C  
HETATM    7  C   UNL     1     -11.630  11.987  67.670  1.00  0.00    -0.321 C  
HETATM    8  O   UNL     1     -10.263  13.314  64.467  1.00  0.00    -0.382 OA 
HETATM    9  O   UNL     1     -10.742  11.196  65.071  1.00  0.00    -0.289 OA 
HETATM   10  O   UNL     1     -11.700  10.786  67.413  1.00  0.00    -0.462 OA 
HETATM   11  C   UNL     1     -12.009  12.514  68.997  1.00  0.00    -0.280 A  
HETATM   12  C   UNL     1     -11.975  13.892  69.231  1.00  0.00    -0.357 A  
HETATM   13  N   UNL     1     -12.316  14.395  70.443  1.00  0.00    -0.323 NA 
HETATM   14  C   UNL     1     -12.694  13.543  71.428  1.00  0.00    -0.336 A  
HETATM   15  C   UNL     1     -13.058  14.147  72.752  1.00  0.00    -0.573 C  
HETATM   16  C   UNL     1     -12.744  12.166  71.253  1.00  0.00    -0.363 A  
HETATM   17  C   UNL     1     -12.399  11.642  70.014  1.00  0.00    -0.261 A  
ENDBRANCH   2   3
TORSDOF 1
ENDMDL
MODEL       37
REMARK 921   NORMALIZED FREE ENERGY PREDICTED BY IDOCK:   -5.26 KCAL/MOL
REMARK 922        TOTAL FREE ENERGY PREDICTED BY IDOCK:   -5.70 KCAL/MOL
REMARK 923 INTER-LIGAND FREE ENERGY PREDICTED BY IDOCK:   -5.57 KCAL/MOL
REMARK 924 INTRA-LIGAND FREE ENERGY PREDICTED BY IDOCK:   -0.12 KCAL/MOL
REMARK 927      BINDING AFFINITY PREDICTED BY RF-SCORE:    0.00 PKD
ROOT
HETATM    1  C   UNL     1     -10.454  14.878  67.641  1.00  0.00    -0.249 C  
HETATM    2  C   UNL     1     -10.332  13.380  67.881  1.00  0.00    -0.238 C  
ENDROOT
BRANCH   2   3
HETATM    3  N   UNL     1     -11.162  12.952  69.014  1.00  0.00    -0.267 NA 
HETATM    4  C   UNL     1     -12.002  13.807  69.707  1.00  0.00    -0.344 C  
HETATM    5  C   UNL     1     -12.756  13.473  70.765  1.00  0.00    -0.316 C  
HETATM    6  C   UNL     1     -13.605  14.497  71.409  1.00  0.00    -0.381 C  
HETATM    7  C   UNL     1     -12.676  12.069  71.221  1.00  0.00    -0.279 C  
HETATM    8  O   UNL     1     -13.682  15.651  71.014  1.00  0.00    -0.582 OA 
HETATM    9  O   UNL     1     -14.297  14.056  72.483  1.00  0.00    -0.626 OA 
HETATM   10  O   UNL     1     -13.299  11.709  72.219  1.00  0.00    -0.443 OA 
HETATM   11  C   UNL     1     -11.845  11.122  70.449  1.00  0.00    -0.462 A  
HETATM   12  C   UNL     1     -11.103  11.582  69.358  1.00  0.00    -0.226 A  
HETATM   13  N   UNL     1     -10.336  10.728  68.635  1.00  0.00    -0.182 NA 
HETATM   14  C   UNL     1     -10.297   9.419  68.987  1.00  0.00    -0.210 A  
HETATM   15  C   UNL     1      -9.438   8.513  68.154  1.00  0.00    -0.152 C  
HETATM   16  C   UNL     1     -11.015   8.906  70.059  1.00  0.00    -0.217 A  
HETATM   17  C   UNL     1     -11.800   9.774  70.807  1.00  0.00    -0.400 A  
ENDBRANCH   2   3
TORSDOF 1
ENDMDL
MODEL       38
REMARK 921   NORMALIZED FREE ENERGY PREDICTED BY IDOCK:   -5.26 KCAL/MOL
REMARK 922        TOTAL FREE ENERGY PREDICTED BY IDOCK:   -5.69 KCAL/MOL
REMARK 923 INTER-LIGAND FREE ENERGY PREDICTED BY IDOCK:   -5.55 KCAL/MOL
REMARK 924 INTRA-LIGAND FREE ENERGY PREDICTED BY IDOCK:   -0.14 KCAL/MOL
REMARK 927      BINDING AFFINITY PREDICTED BY RF-SCORE:    0.00 PKD
ROOT
HETATM    1  C   UNL     1     -10.457  11.060  63.789  1.00  0.00    -0.408 C  
HETATM    2  C   UNL     1     -10.914  11.467  65.183  1.00  0.00    -0.234 C  
ENDROOT
BRANCH   2   3
HETATM    3  N   UNL     1     -10.483  12.834  65.506  1.00  0.00    -0.282 NA 
HETATM    4  C   UNL     1     -11.064  13.964  64.956  1.00  0.00    -0.353 C  
HETATM    5  C   UNL     1     -10.688  15.230  65.194  1.00  0.00    -0.455 C  
HETATM    6  C   UNL     1     -11.401  16.341  64.531  1.00  0.00    -0.202 C  
HETATM    7  C   UNL     1      -9.556  15.422  66.127  1.00  0.00    -0.329 C  
HETATM    8  O   UNL     1     -12.349  16.175  63.778  1.00  0.00    -0.864 OA 
HETATM    9  O   UNL     1     -10.918  17.569  64.821  1.00  0.00    -0.950 OA 
HETATM   10  O   UNL     1      -9.126  16.553  66.347  1.00  0.00    -0.252 OA 
HETATM   11  C   UNL     1      -8.972  14.234  66.783  1.00  0.00    -0.249 A  
HETATM   12  C   UNL     1      -9.448  12.960  66.461  1.00  0.00    -0.251 A  
HETATM   13  N   UNL     1      -8.927  11.858  67.054  1.00  0.00    -0.184 NA 
HETATM   14  C   UNL     1      -7.934  12.007  67.966  1.00  0.00    -0.149 A  
HETATM   15  C   UNL     1      -7.393  10.759  68.598  1.00  0.00    -0.097 C  
HETATM   16  C   UNL     1      -7.424  13.248  68.327  1.00  0.00    -0.126 A  
HETATM   17  C   UNL     1      -7.950  14.382  67.722  1.00  0.00    -0.166 A  
ENDBRANCH   2   3
TORSDOF 1
ENDMDL
MODEL       39
REMARK 921   NORMALIZED FREE ENERGY PREDICTED BY IDOCK:   -5.25 KCAL/MOL
REMARK 922        TOTAL FREE ENERGY PREDICTED BY IDOCK:   -5.68 KCAL/MOL
REMARK 923 INTER-LIGAND FREE ENERGY PREDICTED BY IDOCK:   -5.56 KCAL/MOL
REMARK 924 INTRA-LIGAND FREE ENERGY PREDICTED BY IDOCK:   -0.12 KCAL/MOL
REMARK 927      BINDING AFFINITY PREDICTED BY RF-SCORE:    0.00 PKD
ROOT
HETATM    1  C   UNL     1     -13.654   7.915  71.814  1.00  0.00    -0.396 C  
HETATM    2  C   UNL     1     -12.338   8.614  72.124  1.00  0.00    -0.386 C  
ENDROOT
BRANCH   2   3
HETATM    3  N   UNL     1     -12.220   9.878  71.385  1.00  0.00    -0.380 NA 
HETATM    4  C   UNL     1     -12.798  11.062  71.805  1.00  0.00    -0.391 C  
HETATM    5  C   UNL     1     -12.745  12.233  71.152  1.00  0.00    -0.340 C  
HETATM    6  C   UNL     1     -13.417  13.419  71.722  1.00  0.00    -0.370 C  
HETATM    7  C   UNL     1     -12.001  12.248  69.874  1.00  0.00    -0.306 C  
HETATM    8  O   UNL     1     -14.012  13.406  72.790  1.00  0.00    -0.724 OA 
HETATM    9  O   UNL     1     -13.323  14.535  70.965  1.00  0.00    -0.369 OA 
HETATM   10  O   UNL     1     -11.959  13.274  69.198  1.00  0.00    -0.309 OA 
HETATM   11  C   UNL     1     -11.311  11.014  69.445  1.00  0.00    -0.352 A  
HETATM   12  C   UNL     1     -11.433   9.850  70.210  1.00  0.00    -0.281 A  
HETATM   13  N   UNL     1     -10.805   8.708  69.834  1.00  0.00    -0.231 NA 
HETATM   14  C   UNL     1     -10.057   8.708  68.703  1.00  0.00    -0.190 A  
HETATM   15  C   UNL     1      -9.380   7.423  68.331  1.00  0.00    -0.144 C  
HETATM   16  C   UNL     1      -9.899   9.835  67.906  1.00  0.00    -0.176 A  
HETATM   17  C   UNL     1     -10.541  11.008  68.282  1.00  0.00    -0.220 A  
ENDBRANCH   2   3
TORSDOF 1
ENDMDL
MODEL       40
REMARK 921   NORMALIZED FREE ENERGY PREDICTED BY IDOCK:   -5.23 KCAL/MOL
REMARK 922        TOTAL FREE ENERGY PREDICTED BY IDOCK:   -5.66 KCAL/MOL
REMARK 923 INTER-LIGAND FREE ENERGY PREDICTED BY IDOCK:   -5.53 KCAL/MOL
REMARK 924 INTRA-LIGAND FREE ENERGY PREDICTED BY IDOCK:   -0.13 KCAL/MOL
REMARK 927      BINDING AFFINITY PREDICTED BY RF-SCORE:    0.00 PKD
ROOT
HETATM    1  C   UNL     1     -13.006   9.941  71.822  1.00  0.00    -0.549 C  
HETATM    2  C   UNL     1     -11.817  10.016  70.876  1.00  0.00    -0.368 C  
ENDROOT
BRANCH   2   3
HETATM    3  N   UNL     1     -11.808  11.282  70.131  1.00  0.00    -0.339 NA 
HETATM    4  C   UNL     1     -12.169  12.496  70.689  1.00  0.00    -0.276 C  
HETATM    5  C   UNL     1     -12.207  13.672  70.045  1.00  0.00    -0.395 C  
HETATM    6  C   UNL     1     -12.617  14.891  70.772  1.00  0.00    -0.354 C  
HETATM    7  C   UNL     1     -11.827  13.658  68.616  1.00  0.00    -0.374 C  
HETATM    8  O   UNL     1     -12.909  14.898  71.959  1.00  0.00    -0.300 OA 
HETATM    9  O   UNL     1     -12.647  16.011  70.016  1.00  0.00    -0.226 OA 
HETATM   10  O   UNL     1     -11.893  14.692  67.952  1.00  0.00    -0.348 OA 
HETATM   11  C   UNL     1     -11.366  12.388  68.020  1.00  0.00    -0.340 A  
HETATM   12  C   UNL     1     -11.364  11.221  68.790  1.00  0.00    -0.270 A  
HETATM   13  N   UNL     1     -10.941  10.046  68.261  1.00  0.00    -0.246 NA 
HETATM   14  C   UNL     1     -10.521  10.015  66.973  1.00  0.00    -0.238 A  
HETATM   15  C   UNL     1     -10.060   8.693  66.435  1.00  0.00    -0.294 C  
HETATM   16  C   UNL     1     -10.499  11.143  66.162  1.00  0.00    -0.307 A  
HETATM   17  C   UNL     1     -10.933  12.350  66.693  1.00  0.00    -0.309 A  
ENDBRANCH   2   3
TORSDOF 1
ENDMDL
MODEL       41
REMARK 921   NORMALIZED FREE ENERGY PREDICTED BY IDOCK:   -5.20 KCAL/MOL
REMARK 922        TOTAL FREE ENERGY PREDICTED BY IDOCK:   -5.63 KCAL/MOL
REMARK 923 INTER-LIGAND FREE ENERGY PREDICTED BY IDOCK:   -5.50 KCAL/MOL
REMARK 924 INTRA-LIGAND FREE ENERGY PREDICTED BY IDOCK:   -0.13 KCAL/MOL
REMARK 927      BINDING AFFINITY PREDICTED BY RF-SCORE:    0.00 PKD
ROOT
HETATM    1  C   UNL     1     -10.556   7.891  67.017  1.00  0.00    -0.381 C  
HETATM    2  C   UNL     1      -9.814   8.779  68.005  1.00  0.00    -0.169 C  
ENDROOT
BRANCH   2   3
HETATM    3  N   UNL     1     -10.492  10.071  68.174  1.00  0.00    -0.198 NA 
HETATM    4  C   UNL     1     -10.501  11.058  67.205  1.00  0.00    -0.232 C  
HETATM    5  C   UNL     1     -11.079  12.263  67.322  1.00  0.00    -0.326 C  
HETATM    6  C   UNL     1     -11.004  13.222  66.200  1.00  0.00    -0.279 C  
HETATM    7  C   UNL     1     -11.764  12.550  68.601  1.00  0.00    -0.325 C  
HETATM    8  O   UNL     1     -10.455  12.971  65.137  1.00  0.00    -0.301 OA 
HETATM    9  O   UNL     1     -11.595  14.413  66.441  1.00  0.00    -0.354 OA 
HETATM   10  O   UNL     1     -12.267  13.656  68.795  1.00  0.00    -0.339 OA 
HETATM   11  C   UNL     1     -11.832  11.483  69.619  1.00  0.00    -0.421 A  
HETATM   12  C   UNL     1     -11.195  10.260  69.387  1.00  0.00    -0.239 A  
HETATM   13  N   UNL     1     -11.249   9.267  70.309  1.00  0.00    -0.245 NA 
HETATM   14  C   UNL     1     -11.928   9.475  71.463  1.00  0.00    -0.399 A  
HETATM   15  C   UNL     1     -11.963   8.345  72.450  1.00  0.00    -0.451 C  
HETATM   16  C   UNL     1     -12.583  10.668  71.747  1.00  0.00    -0.411 A  
HETATM   17  C   UNL     1     -12.530  11.691  70.810  1.00  0.00    -0.425 A  
ENDBRANCH   2   3
TORSDOF 1
ENDMDL
MODEL       42
REMARK 921   NORMALIZED FREE ENERGY PREDICTED BY IDOCK:   -5.17 KCAL/MOL
REMARK 922        TOTAL FREE ENERGY PREDICTED BY IDOCK:   -5.60 KCAL/MOL
REMARK 923 INTER-LIGAND FREE ENERGY PREDICTED BY IDOCK:   -5.47 KCAL/MOL
REMARK 924 INTRA-LIGAND FREE ENERGY PREDICTED BY IDOCK:   -0.13 KCAL/MOL
REMARK 927      BINDING AFFINITY PREDICTED BY RF-SCORE:    0.00 PKD
ROOT
HETATM    1  C   UNL     1     -11.867  15.371  70.180  1.00  0.00    -0.362 C  
HETATM    2  C   UNL     1     -12.497  13.993  70.028  1.00  0.00    -0.281 C  
ENDROOT
BRANCH   2   3
HETATM    3  N   UNL     1     -12.008  13.315  68.821  1.00  0.00    -0.328 NA 
HETATM    4  C   UNL     1     -11.869  13.945  67.597  1.00  0.00    -0.386 C  
HETATM    5  C   UNL     1     -11.457  13.363  66.460  1.00  0.00    -0.372 C  
HETATM    6  C   UNL     1     -11.360  14.164  65.223  1.00  0.00    -0.328 C  
HETATM    7  C   UNL     1     -11.124  11.925  66.534  1.00  0.00    -0.306 C  
HETATM    8  O   UNL     1     -11.617  15.358  65.173  1.00  0.00    -0.252 OA 
HETATM    9  O   UNL     1     -10.964  13.468  64.134  1.00  0.00    -0.367 OA 
HETATM   10  O   UNL     1     -10.792  11.317  65.517  1.00  0.00    -0.253 OA 
HETATM   11  C   UNL     1     -11.191  11.251  67.847  1.00  0.00    -0.353 A  
HETATM   12  C   UNL     1     -11.632  11.959  68.968  1.00  0.00    -0.317 A  
HETATM   13  N   UNL     1     -11.699  11.359  70.182  1.00  0.00    -0.331 NA 
HETATM   14  C   UNL     1     -11.333  10.058  70.295  1.00  0.00    -0.308 A  
HETATM   15  C   UNL     1     -11.420   9.440  71.660  1.00  0.00    -0.463 C  
HETATM   16  C   UNL     1     -10.885   9.306  69.217  1.00  0.00    -0.170 A  
HETATM   17  C   UNL     1     -10.817   9.912  67.969  1.00  0.00    -0.294 A  
ENDBRANCH   2   3
TORSDOF 1
ENDMDL
MODEL       43
REMARK 921   NORMALIZED FREE ENERGY PREDICTED BY IDOCK:   -5.15 KCAL/MOL
REMARK 922        TOTAL FREE ENERGY PREDICTED BY IDOCK:   -5.58 KCAL/MOL
REMARK 923 INTER-LIGAND FREE ENERGY PREDICTED BY IDOCK:   -5.45 KCAL/MOL
REMARK 924 INTRA-LIGAND FREE ENERGY PREDICTED BY IDOCK:   -0.12 KCAL/MOL
REMARK 927      BINDING AFFINITY PREDICTED BY RF-SCORE:    0.00 PKD
ROOT
HETATM    1  C   UNL     1     -10.359  15.720  65.866  1.00  0.00    -0.372 C  
HETATM    2  C   UNL     1     -11.274  15.202  66.967  1.00  0.00    -0.308 C  
ENDROOT
BRANCH   2   3
HETATM    3  N   UNL     1     -11.170  13.744  67.104  1.00  0.00    -0.302 NA 
HETATM    4  C   UNL     1     -10.656  12.922  66.117  1.00  0.00    -0.271 C  
HETATM    5  C   UNL     1     -10.568  11.584  66.180  1.00  0.00    -0.314 C  
HETATM    6  C   UNL     1      -9.997  10.834  65.043  1.00  0.00    -0.300 C  
HETATM    7  C   UNL     1     -11.065  10.945  67.418  1.00  0.00    -0.307 C  
HETATM    8  O   UNL     1      -9.568  11.371  64.032  1.00  0.00    -0.232 OA 
HETATM    9  O   UNL     1      -9.986   9.493  65.206  1.00  0.00    -0.247 OA 
HETATM   10  O   UNL     1     -11.065   9.719  67.520  1.00  0.00    -0.234 OA 
HETATM   11  C   UNL     1     -11.548  11.809  68.514  1.00  0.00    -0.380 A  
HETATM   12  C   UNL     1     -11.591  13.195  68.338  1.00  0.00    -0.337 A  
HETATM   13  N   UNL     1     -12.027  14.004  69.333  1.00  0.00    -0.325 NA 
HETATM   14  C   UNL     1     -12.425  13.452  70.506  1.00  0.00    -0.279 A  
HETATM   15  C   UNL     1     -12.896  14.390  71.579  1.00  0.00    -0.411 C  
HETATM   16  C   UNL     1     -12.402  12.083  70.739  1.00  0.00    -0.403 A  
HETATM   17  C   UNL     1     -11.959  11.246  69.724  1.00  0.00    -0.431 A  
ENDBRANCH   2   3
TORSDOF 1
ENDMDL
MODEL       44
REMARK 921   NORMALIZED FREE ENERGY PREDICTED BY IDOCK:   -5.12 KCAL/MOL
REMARK 922        TOTAL FREE ENERGY PREDICTED BY IDOCK:   -5.54 KCAL/MOL
REMARK 923 INTER-LIGAND FREE ENERGY PREDICTED BY IDOCK:   -5.42 KCAL/MOL
REMARK 924 INTRA-LIGAND FREE ENERGY PREDICTED BY IDOCK:   -0.12 KCAL/MOL
REMARK 927      BINDING AFFINITY PREDICTED BY RF-SCORE:    0.00 PKD
ROOT
HETATM    1  C   UNL     1     -10.391   7.820  68.325  1.00  0.00    -0.239 C  
HETATM    2  C   UNL     1     -10.432   8.764  67.131  1.00  0.00    -0.283 C  
ENDROOT
BRANCH   2   3
HETATM    3  N   UNL     1     -10.872  10.107  67.528  1.00  0.00    -0.296 NA 
HETATM    4  C   UNL     1     -11.316  10.416  68.802  1.00  0.00    -0.214 C  
HETATM    5  C   UNL     1     -11.756  11.617  69.206  1.00  0.00    -0.396 C  
HETATM    6  C   UNL     1     -12.204  11.800  70.602  1.00  0.00    -0.349 C  
HETATM    7  C   UNL     1     -11.762  12.697  68.195  1.00  0.00    -0.347 C  
HETATM    8  O   UNL     1     -12.176  10.909  71.438  1.00  0.00    -0.315 OA 
HETATM    9  O   UNL     1     -12.654  13.042  70.888  1.00  0.00    -0.343 OA 
HETATM   10  O   UNL     1     -12.205  13.808  68.484  1.00  0.00    -0.348 OA 
HETATM   11  C   UNL     1     -11.221  12.408  66.851  1.00  0.00    -0.359 A  
HETATM   12  C   UNL     1     -10.785  11.117  66.542  1.00  0.00    -0.260 A  
HETATM   13  N   UNL     1     -10.283  10.833  65.315  1.00  0.00    -0.284 NA 
HETATM   14  C   UNL     1     -10.211  11.819  64.387  1.00  0.00    -0.289 A  
HETATM   15  C   UNL     1      -9.644  11.457  63.046  1.00  0.00    -0.397 C  
HETATM   16  C   UNL     1     -10.627  13.121  64.639  1.00  0.00    -0.410 A  
HETATM   17  C   UNL     1     -11.145  13.420  65.892  1.00  0.00    -0.293 A  
ENDBRANCH   2   3
TORSDOF 1
ENDMDL
MODEL       45
REMARK 921   NORMALIZED FREE ENERGY PREDICTED BY IDOCK:   -5.07 KCAL/MOL
REMARK 922        TOTAL FREE ENERGY PREDICTED BY IDOCK:   -5.49 KCAL/MOL
REMARK 923 INTER-LIGAND FREE ENERGY PREDICTED BY IDOCK:   -5.37 KCAL/MOL
REMARK 924 INTRA-LIGAND FREE ENERGY PREDICTED BY IDOCK:   -0.12 KCAL/MOL
REMARK 927      BINDING AFFINITY PREDICTED BY RF-SCORE:    0.00 PKD
ROOT
HETATM    1  C   UNL     1     -10.096   8.621  66.574  1.00  0.00    -0.339 C  
HETATM    2  C   UNL     1     -10.274  10.121  66.382  1.00  0.00    -0.221 C  
ENDROOT
BRANCH   2   3
HETATM    3  N   UNL     1     -10.854  10.746  67.577  1.00  0.00    -0.267 NA 
HETATM    4  C   UNL     1     -11.156  10.045  68.732  1.00  0.00    -0.173 C  
HETATM    5  C   UNL     1     -11.713  10.562  69.837  1.00  0.00    -0.372 C  
HETATM    6  C   UNL     1     -11.982   9.689  70.998  1.00  0.00    -0.343 C  
HETATM    7  C   UNL     1     -12.028  12.007  69.808  1.00  0.00    -0.300 C  
HETATM    8  O   UNL     1     -11.700   8.499  71.023  1.00  0.00    -0.282 OA 
HETATM    9  O   UNL     1     -12.573  10.310  72.042  1.00  0.00    -0.371 OA 
HETATM   10  O   UNL     1     -12.590  12.534  70.767  1.00  0.00    -0.304 OA 
HETATM   11  C   UNL     1     -11.645  12.789  68.615  1.00  0.00    -0.352 A  
HETATM   12  C   UNL     1     -11.063  12.143  67.520  1.00  0.00    -0.275 A  
HETATM   13  N   UNL     1     -10.702  12.844  66.417  1.00  0.00    -0.268 NA 
HETATM   14  C   UNL     1     -10.914  14.183  66.387  1.00  0.00    -0.311 A  
HETATM   15  C   UNL     1     -10.494  14.915  65.147  1.00  0.00    -0.442 C  
HETATM   16  C   UNL     1     -11.485  14.878  67.446  1.00  0.00    -0.354 A  
HETATM   17  C   UNL     1     -11.861  14.167  68.579  1.00  0.00    -0.390 A  
ENDBRANCH   2   3
TORSDOF 1
ENDMDL
MODEL       46
REMARK 921   NORMALIZED FREE ENERGY PREDICTED BY IDOCK:   -5.04 KCAL/MOL
REMARK 922        TOTAL FREE ENERGY PREDICTED BY IDOCK:   -5.46 KCAL/MOL
REMARK 923 INTER-LIGAND FREE ENERGY PREDICTED BY IDOCK:   -5.32 KCAL/MOL
REMARK 924 INTRA-LIGAND FREE ENERGY PREDICTED BY IDOCK:   -0.14 KCAL/MOL
REMARK 927      BINDING AFFINITY PREDICTED BY RF-SCORE:    0.00 PKD
ROOT
HETATM    1  C   UNL     1     -10.973   6.900  67.007  1.00  0.00    -0.404 C  
HETATM    2  C   UNL     1     -10.103   7.956  67.675  1.00  0.00    -0.203 C  
ENDROOT
BRANCH   2   3
HETATM    3  N   UNL     1     -10.308   9.277  67.067  1.00  0.00    -0.256 NA 
HETATM    4  C   UNL     1     -10.028   9.557  65.741  1.00  0.00    -0.245 C  
HETATM    5  C   UNL     1     -10.169  10.752  65.148  1.00  0.00    -0.365 C  
HETATM    6  C   UNL     1      -9.826  10.903  63.719  1.00  0.00    -0.337 C  
HETATM    7  C   UNL     1     -10.670  11.857  65.993  1.00  0.00    -0.285 C  
HETATM    8  O   UNL     1      -9.433   9.980  63.021  1.00  0.00    -0.297 OA 
HETATM    9  O   UNL     1      -9.979  12.156  63.236  1.00  0.00    -0.396 OA 
HETATM   10  O   UNL     1     -10.771  12.991  65.526  1.00  0.00    -0.274 OA 
HETATM   11  C   UNL     1     -11.047  11.563  67.390  1.00  0.00    -0.339 A  
HETATM   12  C   UNL     1     -10.860  10.276  67.903  1.00  0.00    -0.284 A  
HETATM   13  N   UNL     1     -11.203   9.986  69.182  1.00  0.00    -0.190 NA 
HETATM   14  C   UNL     1     -11.730  10.962  69.961  1.00  0.00    -0.345 A  
HETATM   15  C   UNL     1     -12.097  10.590  71.368  1.00  0.00    -0.380 C  
HETATM   16  C   UNL     1     -11.941  12.257  69.505  1.00  0.00    -0.333 A  
HETATM   17  C   UNL     1     -11.590  12.564  68.197  1.00  0.00    -0.390 A  
ENDBRANCH   2   3
TORSDOF 1
ENDMDL
MODEL       47
REMARK 921   NORMALIZED FREE ENERGY PREDICTED BY IDOCK:   -4.93 KCAL/MOL
REMARK 922        TOTAL FREE ENERGY PREDICTED BY IDOCK:   -5.34 KCAL/MOL
REMARK 923 INTER-LIGAND FREE ENERGY PREDICTED BY IDOCK:   -5.21 KCAL/MOL
REMARK 924 INTRA-LIGAND FREE ENERGY PREDICTED BY IDOCK:   -0.14 KCAL/MOL
REMARK 927      BINDING AFFINITY PREDICTED BY RF-SCORE:    0.00 PKD
ROOT
HETATM    1  C   UNL     1      -9.378   8.825  68.535  1.00  0.00    -0.142 C  
HETATM    2  C   UNL     1     -10.289   8.978  67.325  1.00  0.00    -0.273 C  
ENDROOT
BRANCH   2   3
HETATM    3  N   UNL     1     -10.626  10.387  67.087  1.00  0.00    -0.256 NA 
HETATM    4  C   UNL     1     -11.082  11.238  68.079  1.00  0.00    -0.266 C  
HETATM    5  C   UNL     1     -11.431  12.522  67.907  1.00  0.00    -0.369 C  
HETATM    6  C   UNL     1     -11.906  13.312  69.062  1.00  0.00    -0.321 C  
HETATM    7  C   UNL     1     -11.315  13.064  66.536  1.00  0.00    -0.320 C  
HETATM    8  O   UNL     1     -11.980  12.863  70.197  1.00  0.00    -0.341 OA 
HETATM    9  O   UNL     1     -12.258  14.582  68.766  1.00  0.00    -0.251 OA 
HETATM   10  O   UNL     1     -11.670  14.218  66.298  1.00  0.00    -0.367 OA 
HETATM   11  C   UNL     1     -10.758  12.196  65.479  1.00  0.00    -0.321 A  
HETATM   12  C   UNL     1     -10.423  10.871  65.774  1.00  0.00    -0.210 A  
HETATM   13  N   UNL     1      -9.909  10.059  64.818  1.00  0.00    -0.309 NA 
HETATM   14  C   UNL     1      -9.725  10.548  63.567  1.00  0.00    -0.319 A  
HETATM   15  C   UNL     1      -9.149   9.613  62.545  1.00  0.00    -0.283 C  
HETATM   16  C   UNL     1     -10.037  11.856  63.216  1.00  0.00    -0.427 A  
HETATM   17  C   UNL     1     -10.567  12.694  64.189  1.00  0.00    -0.434 A  
ENDBRANCH   2   3
TORSDOF 1
ENDMDL
MODEL       48
REMARK 921   NORMALIZED FREE ENERGY PREDICTED BY IDOCK:   -4.90 KCAL/MOL
REMARK 922        TOTAL FREE ENERGY PREDICTED BY IDOCK:   -5.31 KCAL/MOL
REMARK 923 INTER-LIGAND FREE ENERGY PREDICTED BY IDOCK:   -5.18 KCAL/MOL
REMARK 924 INTRA-LIGAND FREE ENERGY PREDICTED BY IDOCK:   -0.14 KCAL/MOL
REMARK 927      BINDING AFFINITY PREDICTED BY RF-SCORE:    0.00 PKD
ROOT
HETATM    1  C   UNL     1      -9.461  17.009  66.194  1.00  0.00    -0.253 C  
HETATM    2  C   UNL     1     -10.517  16.069  65.629  1.00  0.00    -0.397 C  
ENDROOT
BRANCH   2   3
HETATM    3  N   UNL     1     -10.834  14.994  66.578  1.00  0.00    -0.316 NA 
HETATM    4  C   UNL     1     -11.325  15.223  67.852  1.00  0.00    -0.334 C  
HETATM    5  C   UNL     1     -11.601  14.280  68.764  1.00  0.00    -0.357 C  
HETATM    6  C   UNL     1     -12.118  14.674  70.090  1.00  0.00    -0.327 C  
HETATM    7  C   UNL     1     -11.358  12.877  68.363  1.00  0.00    -0.294 C  
HETATM    8  O   UNL     1     -12.337  15.834  70.408  1.00  0.00    -0.398 OA 
HETATM    9  O   UNL     1     -12.332  13.644  70.938  1.00  0.00    -0.351 OA 
HETATM   10  O   UNL     1     -11.538  11.966  69.170  1.00  0.00    -0.262 OA 
HETATM   11  C   UNL     1     -10.907  12.605  66.983  1.00  0.00    -0.282 A  
HETATM   12  C   UNL     1     -10.654  13.671  66.114  1.00  0.00    -0.291 A  
HETATM   13  N   UNL     1     -10.242  13.441  64.842  1.00  0.00    -0.342 NA 
HETATM   14  C   UNL     1     -10.077  12.163  64.423  1.00  0.00    -0.274 A  
HETATM   15  C   UNL     1      -9.624  11.961  63.007  1.00  0.00    -0.038 C  
HETATM   16  C   UNL     1     -10.316  11.066  65.241  1.00  0.00    -0.338 A  
HETATM   17  C   UNL     1     -10.735  11.291  66.546  1.00  0.00    -0.323 A  
ENDBRANCH   2   3
TORSDOF 1
ENDMDL
MODEL       49
REMARK 921   NORMALIZED FREE ENERGY PREDICTED BY IDOCK:   -4.89 KCAL/MOL
REMARK 922        TOTAL FREE ENERGY PREDICTED BY IDOCK:   -5.30 KCAL/MOL
REMARK 923 INTER-LIGAND FREE ENERGY PREDICTED BY IDOCK:   -5.18 KCAL/MOL
REMARK 924 INTRA-LIGAND FREE ENERGY PREDICTED BY IDOCK:   -0.12 KCAL/MOL
REMARK 927      BINDING AFFINITY PREDICTED BY RF-SCORE:    0.00 PKD
ROOT
HETATM    1  C   UNL     1      -7.178  14.605  68.584  1.00  0.00    -0.122 C  
HETATM    2  C   UNL     1      -8.005  14.090  67.414  1.00  0.00    -0.175 C  
ENDROOT
BRANCH   2   3
HETATM    3  N   UNL     1      -8.768  15.175  66.784  1.00  0.00    -0.260 NA 
HETATM    4  C   UNL     1      -8.489  16.517  66.981  1.00  0.00    -0.197 C  
HETATM    5  C   UNL     1      -9.173  17.543  66.455  1.00  0.00    -0.267 C  
HETATM    6  C   UNL     1      -8.759  18.929  66.757  1.00  0.00    -0.301 C  
HETATM    7  C   UNL     1     -10.322  17.201  65.590  1.00  0.00    -0.183 C  
HETATM    8  O   UNL     1      -7.795  19.205  67.456  1.00  0.00    -0.242 OA 
HETATM    9  O   UNL     1      -9.539  19.881  66.197  1.00  0.00    -0.398 OA 
HETATM   10  O   UNL     1     -11.026  18.093  65.119  1.00  0.00    -0.637 OA 
HETATM   11  C   UNL     1     -10.592  15.777  65.305  1.00  0.00    -0.446 A  
HETATM   12  C   UNL     1      -9.808  14.788  65.907  1.00  0.00    -0.334 A  
HETATM   13  N   UNL     1     -10.038  13.476  65.656  1.00  0.00    -0.293 NA 
HETATM   14  C   UNL     1     -11.042  13.132  64.812  1.00  0.00    -0.330 A  
HETATM   15  C   UNL     1     -11.254  11.668  64.563  1.00  0.00    -0.335 C  
HETATM   16  C   UNL     1     -11.851  14.070  64.183  1.00  0.00    -0.393 A  
HETATM   17  C   UNL     1     -11.624  15.417  64.437  1.00  0.00    -0.265 A  
ENDBRANCH   2   3
TORSDOF 1
ENDMDL
MODEL       50
REMARK 921   NORMALIZED FREE ENERGY PREDICTED BY IDOCK:   -4.85 KCAL/MOL
REMARK 922        TOTAL FREE ENERGY PREDICTED BY IDOCK:   -5.26 KCAL/MOL
REMARK 923 INTER-LIGAND FREE ENERGY PREDICTED BY IDOCK:   -5.12 KCAL/MOL
REMARK 924 INTRA-LIGAND FREE ENERGY PREDICTED BY IDOCK:   -0.14 KCAL/MOL
REMARK 927      BINDING AFFINITY PREDICTED BY RF-SCORE:    0.00 PKD
ROOT
HETATM    1  C   UNL     1     -12.901   9.350  72.008  1.00  0.00    -0.496 C  
HETATM    2  C   UNL     1     -11.451   9.554  71.591  1.00  0.00    -0.363 C  
ENDROOT
BRANCH   2   3
HETATM    3  N   UNL     1     -11.360  10.121  70.240  1.00  0.00    -0.293 NA 
HETATM    4  C   UNL     1     -11.674  11.436  69.944  1.00  0.00    -0.346 C  
HETATM    5  C   UNL     1     -11.637  11.992  68.723  1.00  0.00    -0.366 C  
HETATM    6  C   UNL     1     -12.004  13.414  68.557  1.00  0.00    -0.328 C  
HETATM    7  C   UNL     1     -11.222  11.116  67.607  1.00  0.00    -0.297 C  
HETATM    8  O   UNL     1     -12.325  14.138  69.487  1.00  0.00    -0.328 OA 
HETATM    9  O   UNL     1     -11.959  13.858  67.281  1.00  0.00    -0.389 OA 
HETATM   10  O   UNL     1     -11.218  11.548  66.455  1.00  0.00    -0.306 OA 
HETATM   11  C   UNL     1     -10.809   9.731  67.912  1.00  0.00    -0.298 A  
HETATM   12  C   UNL     1     -10.885   9.258  69.225  1.00  0.00    -0.152 A  
HETATM   13  N   UNL     1     -10.508   7.991  69.525  1.00  0.00    -0.225 NA 
HETATM   14  C   UNL     1     -10.057   7.184  68.533  1.00  0.00    -0.168 A  
HETATM   15  C   UNL     1      -9.649   5.792  68.916  1.00  0.00    -0.163 C  
HETATM   16  C   UNL     1      -9.958   7.601  67.211  1.00  0.00    -0.273 A  
HETATM   17  C   UNL     1     -10.344   8.896  66.894  1.00  0.00    -0.332 A  
ENDBRANCH   2   3
TORSDOF 1
ENDMDL
MODEL       51
REMARK 921   NORMALIZED FREE ENERGY PREDICTED BY IDOCK:   -4.84 KCAL/MOL
REMARK 922        TOTAL FREE ENERGY PREDICTED BY IDOCK:   -5.25 KCAL/MOL
REMARK 923 INTER-LIGAND FREE ENERGY PREDICTED BY IDOCK:   -5.12 KCAL/MOL
REMARK 924 INTRA-LIGAND FREE ENERGY PREDICTED BY IDOCK:   -0.13 KCAL/MOL
REMARK 927      BINDING AFFINITY PREDICTED BY RF-SCORE:    0.00 PKD
ROOT
HETATM    1  C   UNL     1     -14.293   7.750  72.316  1.00  0.00    -0.281 C  
HETATM    2  C   UNL     1     -13.767   9.160  72.547  1.00  0.00    -0.435 C  
ENDROOT
BRANCH   2   3
HETATM    3  N   UNL     1     -12.747   9.517  71.553  1.00  0.00    -0.348 NA 
HETATM    4  C   UNL     1     -11.986   8.582  70.874  1.00  0.00    -0.181 C  
HETATM    5  C   UNL     1     -11.023   8.857  69.981  1.00  0.00    -0.217 C  
HETATM    6  C   UNL     1     -10.288   7.751  69.334  1.00  0.00    -0.219 C  
HETATM    7  C   UNL     1     -10.762  10.287  69.706  1.00  0.00    -0.285 C  
HETATM    8  O   UNL     1     -10.524   6.571  69.550  1.00  0.00    -0.193 OA 
HETATM    9  O   UNL     1      -9.322   8.147  68.476  1.00  0.00    -0.139 OA 
HETATM   10  O   UNL     1      -9.856  10.610  68.939  1.00  0.00    -0.185 OA 
HETATM   11  C   UNL     1     -11.614  11.299  70.363  1.00  0.00    -0.319 A  
HETATM   12  C   UNL     1     -12.593  10.895  71.275  1.00  0.00    -0.421 A  
HETATM   13  N   UNL     1     -13.387  11.809  71.886  1.00  0.00    -0.401 NA 
HETATM   14  C   UNL     1     -13.218  13.124  71.602  1.00  0.00    -0.346 A  
HETATM   15  C   UNL     1     -14.123  14.097  72.300  1.00  0.00    -0.630 C  
HETATM   16  C   UNL     1     -12.264  13.583  70.702  1.00  0.00    -0.434 A  
HETATM   17  C   UNL     1     -11.445  12.654  70.074  1.00  0.00    -0.090 A  
ENDBRANCH   2   3
TORSDOF 1
ENDMDL
MODEL       52
REMARK 921   NORMALIZED FREE ENERGY PREDICTED BY IDOCK:   -4.78 KCAL/MOL
REMARK 922        TOTAL FREE ENERGY PREDICTED BY IDOCK:   -5.18 KCAL/MOL
REMARK 923 INTER-LIGAND FREE ENERGY PREDICTED BY IDOCK:   -5.25 KCAL/MOL
REMARK 924 INTRA-LIGAND FREE ENERGY PREDICTED BY IDOCK:    0.07 KCAL/MOL
REMARK 927      BINDING AFFINITY PREDICTED BY RF-SCORE:    0.00 PKD
ROOT
HETATM    1  C   UNL     1     -10.955   6.781  67.063  1.00  0.00    -0.439 C  
HETATM    2  C   UNL     1      -9.896   7.781  67.509  1.00  0.00    -0.171 C  
ENDROOT
BRANCH   2   3
HETATM    3  N   UNL     1     -10.495   8.887  68.267  1.00  0.00    -0.213 NA 
HETATM    4  C   UNL     1     -10.833  10.104  67.699  1.00  0.00    -0.290 C  
HETATM    5  C   UNL     1     -11.353  11.154  68.353  1.00  0.00    -0.357 C  
HETATM    6  C   UNL     1     -11.662  12.395  67.613  1.00  0.00    -0.346 C  
HETATM    7  C   UNL     1     -11.581  10.985  69.804  1.00  0.00    -0.325 C  
HETATM    8  O   UNL     1     -11.490  12.520  66.409  1.00  0.00    -0.323 OA 
HETATM    9  O   UNL     1     -12.152  13.395  68.378  1.00  0.00    -0.343 OA 
HETATM   10  O   UNL     1     -12.004  11.927  70.474  1.00  0.00    -0.354 OA 
HETATM   11  C   UNL     1     -11.299   9.670  70.415  1.00  0.00    -0.337 A  
HETATM   12  C   UNL     1     -10.761   8.643  69.634  1.00  0.00    -0.200 A  
HETATM   13  N   UNL     1     -10.498   7.429  70.176  1.00  0.00    -0.215 NA 
HETATM   14  C   UNL     1     -10.762   7.222  71.490  1.00  0.00    -0.219 A  
HETATM   15  C   UNL     1     -10.457   5.861  72.042  1.00  0.00    -0.259 C  
HETATM   16  C   UNL     1     -11.299   8.204  72.314  1.00  0.00    -0.429 A  
HETATM   17  C   UNL     1     -11.568   9.452  71.767  1.00  0.00    -0.433 A  
ENDBRANCH   2   3
TORSDOF 1
ENDMDL
MODEL       53
REMARK 921   NORMALIZED FREE ENERGY PREDICTED BY IDOCK:   -4.76 KCAL/MOL
REMARK 922        TOTAL FREE ENERGY PREDICTED BY IDOCK:   -5.16 KCAL/MOL
REMARK 923 INTER-LIGAND FREE ENERGY PREDICTED BY IDOCK:   -5.03 KCAL/MOL
REMARK 924 INTRA-LIGAND FREE ENERGY PREDICTED BY IDOCK:   -0.13 KCAL/MOL
REMARK 927      BINDING AFFINITY PREDICTED BY RF-SCORE:    0.00 PKD
ROOT
HETATM    1  C   UNL     1      -9.199  12.131  68.002  1.00  0.00    -0.194 C  
HETATM    2  C   UNL     1     -10.048  10.868  68.008  1.00  0.00    -0.177 C  
ENDROOT
BRANCH   2   3
HETATM    3  N   UNL     1     -10.952  10.840  69.165  1.00  0.00    -0.225 NA 
HETATM    4  C   UNL     1     -11.578  11.966  69.669  1.00  0.00    -0.317 C  
HETATM    5  C   UNL     1     -12.387  11.998  70.739  1.00  0.00    -0.403 C  
HETATM    6  C   UNL     1     -12.985  13.280  71.165  1.00  0.00    -0.216 C  
HETATM    7  C   UNL     1     -12.623  10.713  71.431  1.00  0.00    -0.421 C  
HETATM    8  O   UNL     1     -12.803  14.335  70.576  1.00  0.00    -0.345 OA 
HETATM    9  O   UNL     1     -13.757  13.197  72.272  1.00  0.00    -0.550 OA 
HETATM   10  O   UNL     1     -13.310  10.680  72.451  1.00  0.00    -0.283 OA 
HETATM   11  C   UNL     1     -12.026   9.486  70.865  1.00  0.00    -0.372 A  
HETATM   12  C   UNL     1     -11.200   9.572  69.740  1.00  0.00    -0.144 A  
HETATM   13  N   UNL     1     -10.645   8.457  69.205  1.00  0.00    -0.199 NA 
HETATM   14  C   UNL     1     -10.899   7.254  69.776  1.00  0.00    -0.235 A  
HETATM   15  C   UNL     1     -10.265   6.049  69.145  1.00  0.00    -0.258 C  
HETATM   16  C   UNL     1     -11.713   7.108  70.893  1.00  0.00    -0.367 A  
HETATM   17  C   UNL     1     -12.283   8.245  71.450  1.00  0.00    -0.328 A  
ENDBRANCH   2   3
TORSDOF 1
ENDMDL
MODEL       54
REMARK 921   NORMALIZED FREE ENERGY PREDICTED BY IDOCK:   -4.75 KCAL/MOL
REMARK 922        TOTAL FREE ENERGY PREDICTED BY IDOCK:   -5.16 KCAL/MOL
REMARK 923 INTER-LIGAND FREE ENERGY PREDICTED BY IDOCK:   -5.03 KCAL/MOL
REMARK 924 INTRA-LIGAND FREE ENERGY PREDICTED BY IDOCK:   -0.12 KCAL/MOL
REMARK 927      BINDING AFFINITY PREDICTED BY RF-SCORE:    0.00 PKD
ROOT
HETATM    1  C   UNL     1     -12.509  13.193  70.973  1.00  0.00    -0.406 C  
HETATM    2  C   UNL     1     -12.311  11.712  70.679  1.00  0.00    -0.344 C  
ENDROOT
BRANCH   2   3
HETATM    3  N   UNL     1     -11.797  11.504  69.319  1.00  0.00    -0.329 NA 
HETATM    4  C   UNL     1     -11.771  12.497  68.355  1.00  0.00    -0.328 C  
HETATM    5  C   UNL     1     -11.340  12.350  67.093  1.00  0.00    -0.390 C  
HETATM    6  C   UNL     1     -11.374  13.503  66.170  1.00  0.00    -0.308 C  
HETATM    7  C   UNL     1     -10.853  11.007  66.710  1.00  0.00    -0.251 C  
HETATM    8  O   UNL     1     -11.758  14.616  66.499  1.00  0.00    -0.369 OA 
HETATM    9  O   UNL     1     -10.945  13.231  64.918  1.00  0.00    -0.302 OA 
HETATM   10  O   UNL     1     -10.495  10.789  65.554  1.00  0.00    -0.252 OA 
HETATM   11  C   UNL     1     -10.801   9.953  67.744  1.00  0.00    -0.321 A  
HETATM   12  C   UNL     1     -11.274  10.222  69.032  1.00  0.00    -0.208 A  
HETATM   13  N   UNL     1     -11.233   9.269  69.995  1.00  0.00    -0.210 NA 
HETATM   14  C   UNL     1     -10.727   8.047  69.694  1.00  0.00    -0.207 A  
HETATM   15  C   UNL     1     -10.699   7.028  70.795  1.00  0.00    -0.252 C  
HETATM   16  C   UNL     1     -10.241   7.725  68.433  1.00  0.00    -0.230 A  
HETATM   17  C   UNL     1     -10.282   8.694  67.439  1.00  0.00    -0.329 A  
ENDBRANCH   2   3
TORSDOF 1
ENDMDL
MODEL       55
REMARK 921   NORMALIZED FREE ENERGY PREDICTED BY IDOCK:   -4.74 KCAL/MOL
REMARK 922        TOTAL FREE ENERGY PREDICTED BY IDOCK:   -5.15 KCAL/MOL
REMARK 923 INTER-LIGAND FREE ENERGY PREDICTED BY IDOCK:   -5.02 KCAL/MOL
REMARK 924 INTRA-LIGAND FREE ENERGY PREDICTED BY IDOCK:   -0.13 KCAL/MOL
REMARK 927      BINDING AFFINITY PREDICTED BY RF-SCORE:    0.00 PKD
ROOT
HETATM    1  C   UNL     1     -10.346   6.662  66.915  1.00  0.00    -0.324 C  
HETATM    2  C   UNL     1      -9.971   8.130  67.068  1.00  0.00    -0.259 C  
ENDROOT
BRANCH   2   3
HETATM    3  N   UNL     1     -10.517   8.691  68.310  1.00  0.00    -0.209 NA 
HETATM    4  C   UNL     1     -10.574   7.990  69.502  1.00  0.00    -0.214 C  
HETATM    5  C   UNL     1     -11.090   8.446  70.653  1.00  0.00    -0.278 C  
HETATM    6  C   UNL     1     -11.086   7.581  71.850  1.00  0.00    -0.239 C  
HETATM    7  C   UNL     1     -11.642   9.818  70.636  1.00  0.00    -0.313 C  
HETATM    8  O   UNL     1     -10.609   6.455  71.863  1.00  0.00    -0.207 OA 
HETATM    9  O   UNL     1     -11.657   8.133  72.943  1.00  0.00    -0.386 OA 
HETATM   10  O   UNL     1     -12.179  10.278  71.642  1.00  0.00    -0.372 OA 
HETATM   11  C   UNL     1     -11.522  10.612  69.395  1.00  0.00    -0.356 A  
HETATM   12  C   UNL     1     -10.961  10.033  68.253  1.00  0.00    -0.227 A  
HETATM   13  N   UNL     1     -10.840  10.746  67.107  1.00  0.00    -0.280 NA 
HETATM   14  C   UNL     1     -11.274  12.030  67.079  1.00  0.00    -0.320 A  
HETATM   15  C   UNL     1     -11.115  12.778  65.788  1.00  0.00    -0.316 C  
HETATM   16  C   UNL     1     -11.837  12.658  68.183  1.00  0.00    -0.366 A  
HETATM   17  C   UNL     1     -11.967  11.934  69.362  1.00  0.00    -0.350 A  
ENDBRANCH   2   3
TORSDOF 1
ENDMDL
MODEL       56
REMARK 921   NORMALIZED FREE ENERGY PREDICTED BY IDOCK:   -4.73 KCAL/MOL
REMARK 922        TOTAL FREE ENERGY PREDICTED BY IDOCK:   -5.13 KCAL/MOL
REMARK 923 INTER-LIGAND FREE ENERGY PREDICTED BY IDOCK:   -5.01 KCAL/MOL
REMARK 924 INTRA-LIGAND FREE ENERGY PREDICTED BY IDOCK:   -0.12 KCAL/MOL
REMARK 927      BINDING AFFINITY PREDICTED BY RF-SCORE:    0.00 PKD
ROOT
HETATM    1  C   UNL     1     -11.375  10.065  70.539  1.00  0.00    -0.409 C  
HETATM    2  C   UNL     1     -11.575  10.889  69.275  1.00  0.00    -0.318 C  
ENDROOT
BRANCH   2   3
HETATM    3  N   UNL     1     -10.848  10.308  68.140  1.00  0.00    -0.246 NA 
HETATM    4  C   UNL     1     -10.113   9.138  68.225  1.00  0.00    -0.191 C  
HETATM    5  C   UNL     1      -9.408   8.583  67.228  1.00  0.00    -0.184 C  
HETATM    6  C   UNL     1      -8.667   7.328  67.467  1.00  0.00    -0.121 C  
HETATM    7  C   UNL     1      -9.426   9.290  65.929  1.00  0.00    -0.259 C  
HETATM    8  O   UNL     1      -8.674   6.737  68.537  1.00  0.00    -0.125 OA 
HETATM    9  O   UNL     1      -7.969   6.877  66.401  1.00  0.00    -0.101 OA 
HETATM   10  O   UNL     1      -8.757   8.865  64.988  1.00  0.00    -0.182 OA 
HETATM   11  C   UNL     1     -10.264  10.498  65.794  1.00  0.00    -0.310 A  
HETATM   12  C   UNL     1     -10.962  10.986  66.904  1.00  0.00    -0.249 A  
HETATM   13  N   UNL     1     -11.739  12.092  66.799  1.00  0.00    -0.580 NA 
HETATM   14  C   UNL     1     -11.831  12.723  65.603  1.00  0.00    -0.425 A  
HETATM   15  C   UNL     1     -12.706  13.940  65.537  1.00  0.00    -0.536 C  
HETATM   16  C   UNL     1     -11.163  12.283  64.467  1.00  0.00    -0.378 A  
HETATM   17  C   UNL     1     -10.362  11.153  64.565  1.00  0.00    -0.400 A  
ENDBRANCH   2   3
TORSDOF 1
ENDMDL
MODEL       57
REMARK 921   NORMALIZED FREE ENERGY PREDICTED BY IDOCK:   -4.73 KCAL/MOL
REMARK 922        TOTAL FREE ENERGY PREDICTED BY IDOCK:   -5.13 KCAL/MOL
REMARK 923 INTER-LIGAND FREE ENERGY PREDICTED BY IDOCK:   -5.01 KCAL/MOL
REMARK 924 INTRA-LIGAND FREE ENERGY PREDICTED BY IDOCK:   -0.12 KCAL/MOL
REMARK 927      BINDING AFFINITY PREDICTED BY RF-SCORE:    0.00 PKD
ROOT
HETATM    1  C   UNL     1     -12.207  13.711  64.064  1.00  0.00    -0.443 C  
HETATM    2  C   UNL     1     -11.674  15.054  64.542  1.00  0.00    -0.368 C  
ENDROOT
BRANCH   2   3
HETATM    3  N   UNL     1     -10.637  14.881  65.567  1.00  0.00    -0.330 NA 
HETATM    4  C   UNL     1     -10.160  13.645  65.965  1.00  0.00    -0.312 C  
HETATM    5  C   UNL     1      -9.238  13.432  66.916  1.00  0.00    -0.251 C  
HETATM    6  C   UNL     1      -8.826  12.051  67.240  1.00  0.00    -0.183 C  
HETATM    7  C   UNL     1      -8.689  14.630  67.588  1.00  0.00    -0.177 C  
HETATM    8  O   UNL     1      -9.268  11.066  66.665  1.00  0.00    -0.161 OA 
HETATM    9  O   UNL     1      -7.915  11.956  68.233  1.00  0.00    -0.134 OA 
HETATM   10  O   UNL     1      -7.881  14.504  68.507  1.00  0.00    -0.123 OA 
HETATM   11  C   UNL     1      -9.128  15.962  67.126  1.00  0.00    -0.226 A  
HETATM   12  C   UNL     1     -10.095  16.064  66.121  1.00  0.00    -0.327 A  
HETATM   13  N   UNL     1     -10.508  17.278  65.681  1.00  0.00    -0.590 NA 
HETATM   14  C   UNL     1      -9.973  18.396  66.230  1.00  0.00    -0.366 A  
HETATM   15  C   UNL     1     -10.460  19.715  65.707  1.00  0.00    -0.540 C  
HETATM   16  C   UNL     1      -9.008  18.356  67.229  1.00  0.00    -0.265 A  
HETATM   17  C   UNL     1      -8.580  17.117  67.687  1.00  0.00    -0.214 A  
ENDBRANCH   2   3
TORSDOF 1
ENDMDL
MODEL       58
REMARK 921   NORMALIZED FREE ENERGY PREDICTED BY IDOCK:   -4.71 KCAL/MOL
REMARK 922        TOTAL FREE ENERGY PREDICTED BY IDOCK:   -5.10 KCAL/MOL
REMARK 923 INTER-LIGAND FREE ENERGY PREDICTED BY IDOCK:   -4.98 KCAL/MOL
REMARK 924 INTRA-LIGAND FREE ENERGY PREDICTED BY IDOCK:   -0.13 KCAL/MOL
REMARK 927      BINDING AFFINITY PREDICTED BY RF-SCORE:    0.00 PKD
ROOT
HETATM    1  C   UNL     1     -10.210  10.174  66.547  1.00  0.00    -0.288 C  
HETATM    2  C   UNL     1     -10.288  11.007  67.819  1.00  0.00    -0.188 C  
ENDROOT
BRANCH   2   3
HETATM    3  N   UNL     1     -10.831  10.223  68.935  1.00  0.00    -0.217 NA 
HETATM    4  C   UNL     1     -10.578   8.874  69.112  1.00  0.00    -0.195 C  
HETATM    5  C   UNL     1     -11.073   8.108  70.096  1.00  0.00    -0.187 C  
HETATM    6  C   UNL     1     -10.718   6.675  70.157  1.00  0.00    -0.239 C  
HETATM    7  C   UNL     1     -11.964   8.774  71.071  1.00  0.00    -0.251 C  
HETATM    8  O   UNL     1      -9.964   6.136  69.360  1.00  0.00    -0.154 OA 
HETATM    9  O   UNL     1     -11.298   5.996  71.171  1.00  0.00    -0.292 OA 
HETATM   10  O   UNL     1     -12.496   8.118  71.966  1.00  0.00    -0.311 OA 
HETATM   11  C   UNL     1     -12.186  10.229  70.945  1.00  0.00    -0.465 A  
HETATM   12  C   UNL     1     -11.614  10.928  69.879  1.00  0.00    -0.331 A  
HETATM   13  N   UNL     1     -11.804  12.264  69.748  1.00  0.00    -0.329 NA 
HETATM   14  C   UNL     1     -12.560  12.916  70.666  1.00  0.00    -0.177 A  
HETATM   15  C   UNL     1     -12.737  14.394  70.481  1.00  0.00    -0.401 C  
HETATM   16  C   UNL     1     -13.150  12.274  71.747  1.00  0.00    -0.449 A  
HETATM   17  C   UNL     1     -12.963  10.905  71.887  1.00  0.00    -0.502 A  
ENDBRANCH   2   3
TORSDOF 1
ENDMDL
MODEL       59
REMARK 921   NORMALIZED FREE ENERGY PREDICTED BY IDOCK:   -4.68 KCAL/MOL
REMARK 922        TOTAL FREE ENERGY PREDICTED BY IDOCK:   -5.08 KCAL/MOL
REMARK 923 INTER-LIGAND FREE ENERGY PREDICTED BY IDOCK:   -4.95 KCAL/MOL
REMARK 924 INTRA-LIGAND FREE ENERGY PREDICTED BY IDOCK:   -0.13 KCAL/MOL
REMARK 927      BINDING AFFINITY PREDICTED BY RF-SCORE:    0.00 PKD
ROOT
HETATM    1  C   UNL     1     -10.324  16.919  67.490  1.00  0.00    -0.318 C  
HETATM    2  C   UNL     1      -9.291  16.275  66.577  1.00  0.00    -0.271 C  
ENDROOT
BRANCH   2   3
HETATM    3  N   UNL     1      -9.665  14.896  66.239  1.00  0.00    -0.279 NA 
HETATM    4  C   UNL     1     -10.630  14.578  65.299  1.00  0.00    -0.383 C  
HETATM    5  C   UNL     1     -11.029  13.338  64.977  1.00  0.00    -0.328 C  
HETATM    6  C   UNL     1     -12.075  13.150  63.951  1.00  0.00    -0.470 C  
HETATM    7  C   UNL     1     -10.374  12.223  65.694  1.00  0.00    -0.257 C  
HETATM    8  O   UNL     1     -12.598  14.076  63.347  1.00  0.00    -0.845 OA 
HETATM    9  O   UNL     1     -12.419  11.862  63.730  1.00  0.00    -0.464 OA 
HETATM   10  O   UNL     1     -10.731  11.064  65.486  1.00  0.00    -0.232 OA 
HETATM   11  C   UNL     1      -9.289  12.536  66.646  1.00  0.00    -0.236 A  
HETATM   12  C   UNL     1      -8.953  13.869  66.901  1.00  0.00    -0.222 A  
HETATM   13  N   UNL     1      -7.959  14.176  67.769  1.00  0.00    -0.154 NA 
HETATM   14  C   UNL     1      -7.292  13.172  68.391  1.00  0.00    -0.116 A  
HETATM   15  C   UNL     1      -6.197  13.563  69.340  1.00  0.00    -0.107 C  
HETATM   16  C   UNL     1      -7.580  11.830  68.175  1.00  0.00    -0.117 A  
HETATM   17  C   UNL     1      -8.600  11.506  67.289  1.00  0.00    -0.150 A  
ENDBRANCH   2   3
TORSDOF 1
ENDMDL
MODEL       60
REMARK 921   NORMALIZED FREE ENERGY PREDICTED BY IDOCK:   -4.65 KCAL/MOL
REMARK 922        TOTAL FREE ENERGY PREDICTED BY IDOCK:   -5.04 KCAL/MOL
REMARK 923 INTER-LIGAND FREE ENERGY PREDICTED BY IDOCK:   -4.92 KCAL/MOL
REMARK 924 INTRA-LIGAND FREE ENERGY PREDICTED BY IDOCK:   -0.12 KCAL/MOL
REMARK 927      BINDING AFFINITY PREDICTED BY RF-SCORE:    0.00 PKD
ROOT
HETATM    1  C   UNL     1     -10.815   8.598  71.902  1.00  0.00    -0.419 C  
HETATM    2  C   UNL     1     -10.976   8.537  70.390  1.00  0.00    -0.238 C  
ENDROOT
BRANCH   2   3
HETATM    3  N   UNL     1     -11.241   9.868  69.829  1.00  0.00    -0.248 NA 
HETATM    4  C   UNL     1     -11.768  10.914  70.567  1.00  0.00    -0.342 C  
HETATM    5  C   UNL     1     -12.056  12.136  70.095  1.00  0.00    -0.368 C  
HETATM    6  C   UNL     1     -12.620  13.156  71.002  1.00  0.00    -0.312 C  
HETATM    7  C   UNL     1     -11.780  12.377  68.662  1.00  0.00    -0.326 C  
HETATM    8  O   UNL     1     -12.826  12.957  72.191  1.00  0.00    -0.234 OA 
HETATM    9  O   UNL     1     -12.898  14.339  70.412  1.00  0.00    -0.336 OA 
HETATM   10  O   UNL     1     -12.071  13.458  68.152  1.00  0.00    -0.335 OA 
HETATM   11  C   UNL     1     -11.146  11.299  67.874  1.00  0.00    -0.325 A  
HETATM   12  C   UNL     1     -10.887  10.063  68.474  1.00  0.00    -0.231 A  
HETATM   13  N   UNL     1     -10.303   9.063  67.768  1.00  0.00    -0.233 NA 
HETATM   14  C   UNL     1      -9.975   9.276  66.470  1.00  0.00    -0.274 A  
HETATM   15  C   UNL     1      -9.328   8.140  65.733  1.00  0.00    -0.053 C  
HETATM   16  C   UNL     1     -10.206  10.484  65.824  1.00  0.00    -0.310 A  
HETATM   17  C   UNL     1     -10.806  11.513  66.538  1.00  0.00    -0.335 A  
ENDBRANCH   2   3
TORSDOF 1
ENDMDL
MODEL       61
REMARK 921   NORMALIZED FREE ENERGY PREDICTED BY IDOCK:   -4.64 KCAL/MOL
REMARK 922        TOTAL FREE ENERGY PREDICTED BY IDOCK:   -5.04 KCAL/MOL
REMARK 923 INTER-LIGAND FREE ENERGY PREDICTED BY IDOCK:   -4.92 KCAL/MOL
REMARK 924 INTRA-LIGAND FREE ENERGY PREDICTED BY IDOCK:   -0.12 KCAL/MOL
REMARK 927      BINDING AFFINITY PREDICTED BY RF-SCORE:    0.00 PKD
ROOT
HETATM    1  C   UNL     1     -13.176  11.890  72.014  1.00  0.00    -0.461 C  
HETATM    2  C   UNL     1     -13.098  10.664  71.116  1.00  0.00    -0.322 C  
ENDROOT
BRANCH   2   3
HETATM    3  N   UNL     1     -11.954  10.747  70.199  1.00  0.00    -0.319 NA 
HETATM    4  C   UNL     1     -11.946  11.537  69.062  1.00  0.00    -0.311 C  
HETATM    5  C   UNL     1     -10.940  11.625  68.179  1.00  0.00    -0.275 C  
HETATM    6  C   UNL     1     -11.074  12.511  67.004  1.00  0.00    -0.281 C  
HETATM    7  C   UNL     1      -9.741  10.803  68.454  1.00  0.00    -0.174 C  
HETATM    8  O   UNL     1     -12.059  13.204  66.794  1.00  0.00    -0.382 OA 
HETATM    9  O   UNL     1     -10.012  12.496  66.168  1.00  0.00    -0.246 OA 
HETATM   10  O   UNL     1      -8.805  10.794  67.656  1.00  0.00    -0.131 OA 
HETATM   11  C   UNL     1      -9.699  10.012  69.701  1.00  0.00    -0.255 A  
HETATM   12  C   UNL     1     -10.807   9.999  70.552  1.00  0.00    -0.314 A  
HETATM   13  N   UNL     1     -10.786   9.281  71.702  1.00  0.00    -0.372 NA 
HETATM   14  C   UNL     1      -9.674   8.572  72.017  1.00  0.00    -0.307 A  
HETATM   15  C   UNL     1      -9.698   7.797  73.301  1.00  0.00    -0.357 C  
HETATM   16  C   UNL     1      -8.543   8.550  71.211  1.00  0.00    -0.219 A  
HETATM   17  C   UNL     1      -8.557   9.280  70.029  1.00  0.00    -0.193 A  
ENDBRANCH   2   3
TORSDOF 1
ENDMDL
MODEL       62
REMARK 921   NORMALIZED FREE ENERGY PREDICTED BY IDOCK:   -4.63 KCAL/MOL
REMARK 922        TOTAL FREE ENERGY PREDICTED BY IDOCK:   -5.03 KCAL/MOL
REMARK 923 INTER-LIGAND FREE ENERGY PREDICTED BY IDOCK:   -4.89 KCAL/MOL
REMARK 924 INTRA-LIGAND FREE ENERGY PREDICTED BY IDOCK:   -0.13 KCAL/MOL
REMARK 927      BINDING AFFINITY PREDICTED BY RF-SCORE:    0.00 PKD
ROOT
HETATM    1  C   UNL     1     -11.255  11.685  63.764  1.00  0.00    -0.498 C  
HETATM    2  C   UNL     1     -10.217  11.072  64.692  1.00  0.00    -0.330 C  
ENDROOT
BRANCH   2   3
HETATM    3  N   UNL     1     -10.611  11.215  66.100  1.00  0.00    -0.260 NA 
HETATM    4  C   UNL     1     -11.112  12.389  66.634  1.00  0.00    -0.289 C  
HETATM    5  C   UNL     1     -11.457  12.579  67.917  1.00  0.00    -0.369 C  
HETATM    6  C   UNL     1     -11.978  13.893  68.346  1.00  0.00    -0.356 C  
HETATM    7  C   UNL     1     -11.283  11.428  68.829  1.00  0.00    -0.247 C  
HETATM    8  O   UNL     1     -12.140  14.834  67.582  1.00  0.00    -0.299 OA 
HETATM    9  O   UNL     1     -12.264  13.979  69.664  1.00  0.00    -0.334 OA 
HETATM   10  O   UNL     1     -11.529  11.551  70.028  1.00  0.00    -0.282 OA 
HETATM   11  C   UNL     1     -10.821  10.144  68.264  1.00  0.00    -0.297 A  
HETATM   12  C   UNL     1     -10.494  10.060  66.908  1.00  0.00    -0.218 A  
HETATM   13  N   UNL     1     -10.071   8.889  66.371  1.00  0.00    -0.291 NA 
HETATM   14  C   UNL     1      -9.967   7.797  67.168  1.00  0.00    -0.230 A  
HETATM   15  C   UNL     1      -9.498   6.524  66.526  1.00  0.00    -0.190 C  
HETATM   16  C   UNL     1     -10.281   7.821  68.521  1.00  0.00    -0.227 A  
HETATM   17  C   UNL     1     -10.713   9.016  69.080  1.00  0.00    -0.176 A  
ENDBRANCH   2   3
TORSDOF 1
ENDMDL
MODEL       63
REMARK 921   NORMALIZED FREE ENERGY PREDICTED BY IDOCK:   -4.62 KCAL/MOL
REMARK 922        TOTAL FREE ENERGY PREDICTED BY IDOCK:   -5.02 KCAL/MOL
REMARK 923 INTER-LIGAND FREE ENERGY PREDICTED BY IDOCK:   -4.89 KCAL/MOL
REMARK 924 INTRA-LIGAND FREE ENERGY PREDICTED BY IDOCK:   -0.13 KCAL/MOL
REMARK 927      BINDING AFFINITY PREDICTED BY RF-SCORE:    0.00 PKD
ROOT
HETATM    1  C   UNL     1      -6.294  10.904  68.744  1.00  0.00    -0.048 C  
HETATM    2  C   UNL     1      -7.189   9.756  69.189  1.00  0.00    -0.073 C  
ENDROOT
BRANCH   2   3
HETATM    3  N   UNL     1      -8.608  10.093  69.023  1.00  0.00    -0.145 NA 
HETATM    4  C   UNL     1      -9.113  10.732  67.904  1.00  0.00    -0.150 C  
HETATM    5  C   UNL     1     -10.394  11.087  67.718  1.00  0.00    -0.218 C  
HETATM    6  C   UNL     1     -10.788  11.769  66.468  1.00  0.00    -0.282 C  
HETATM    7  C   UNL     1     -11.338  10.763  68.809  1.00  0.00    -0.288 C  
HETATM    8  O   UNL     1     -10.007  12.016  65.562  1.00  0.00    -0.236 OA 
HETATM    9  O   UNL     1     -12.095  12.107  66.403  1.00  0.00    -0.630 OA 
HETATM   10  O   UNL     1     -12.515  11.110  68.727  1.00  0.00    -0.468 OA 
HETATM   11  C   UNL     1     -10.835  10.014  69.978  1.00  0.00    -0.352 A  
HETATM   12  C   UNL     1      -9.478   9.691  70.064  1.00  0.00    -0.240 A  
HETATM   13  N   UNL     1      -8.998   9.002  71.128  1.00  0.00    -0.237 NA 
HETATM   14  C   UNL     1      -9.853   8.629  72.113  1.00  0.00    -0.317 A  
HETATM   15  C   UNL     1      -9.275   7.864  73.267  1.00  0.00    -0.346 C  
HETATM   16  C   UNL     1     -11.211   8.919  72.080  1.00  0.00    -0.422 A  
HETATM   17  C   UNL     1     -11.711   9.628  70.995  1.00  0.00    -0.433 A  
ENDBRANCH   2   3
TORSDOF 1
ENDMDL
MODEL       64
REMARK 921   NORMALIZED FREE ENERGY PREDICTED BY IDOCK:   -4.62 KCAL/MOL
REMARK 922        TOTAL FREE ENERGY PREDICTED BY IDOCK:   -5.01 KCAL/MOL
REMARK 923 INTER-LIGAND FREE ENERGY PREDICTED BY IDOCK:   -4.88 KCAL/MOL
REMARK 924 INTRA-LIGAND FREE ENERGY PREDICTED BY IDOCK:   -0.14 KCAL/MOL
REMARK 927      BINDING AFFINITY PREDICTED BY RF-SCORE:    0.00 PKD
ROOT
HETATM    1  C   UNL     1     -10.654  10.823  67.084  1.00  0.00    -0.306 C  
HETATM    2  C   UNL     1     -10.327  10.952  68.565  1.00  0.00    -0.187 C  
ENDROOT
BRANCH   2   3
HETATM    3  N   UNL     1     -10.753   9.760  69.309  1.00  0.00    -0.218 NA 
HETATM    4  C   UNL     1     -10.268   8.489  69.053  1.00  0.00    -0.207 C  
HETATM    5  C   UNL     1     -10.647   7.366  69.683  1.00  0.00    -0.243 C  
HETATM    6  C   UNL     1     -10.043   6.074  69.300  1.00  0.00    -0.185 C  
HETATM    7  C   UNL     1     -11.671   7.512  70.741  1.00  0.00    -0.256 C  
HETATM    8  O   UNL     1      -9.181   5.964  68.440  1.00  0.00    -0.118 OA 
HETATM    9  O   UNL     1     -10.521   5.008  69.980  1.00  0.00    -0.276 OA 
HETATM   10  O   UNL     1     -12.103   6.516  71.320  1.00  0.00    -0.343 OA 
HETATM   11  C   UNL     1     -12.146   8.868  71.082  1.00  0.00    -0.326 A  
HETATM   12  C   UNL     1     -11.677   9.969  70.359  1.00  0.00    -0.286 A  
HETATM   13  N   UNL     1     -12.099  11.222  70.659  1.00  0.00    -0.377 NA 
HETATM   14  C   UNL     1     -12.986  11.395  71.671  1.00  0.00    -0.418 A  
HETATM   15  C   UNL     1     -13.419  12.801  71.967  1.00  0.00    -0.540 C  
HETATM   16  C   UNL     1     -13.483  10.339  72.424  1.00  0.00    -0.094 A  
HETATM   17  C   UNL     1     -13.059   9.052  72.122  1.00  0.00    -0.496 A  
ENDBRANCH   2   3
TORSDOF 1
ENDMDL
MODEL       65
REMARK 921   NORMALIZED FREE ENERGY PREDICTED BY IDOCK:   -4.62 KCAL/MOL
REMARK 922        TOTAL FREE ENERGY PREDICTED BY IDOCK:   -5.01 KCAL/MOL
REMARK 923 INTER-LIGAND FREE ENERGY PREDICTED BY IDOCK:   -4.88 KCAL/MOL
REMARK 924 INTRA-LIGAND FREE ENERGY PREDICTED BY IDOCK:   -0.13 KCAL/MOL
REMARK 927      BINDING AFFINITY PREDICTED BY RF-SCORE:    0.00 PKD
ROOT
HETATM    1  C   UNL     1      -9.640  14.248  68.003  1.00  0.00    -0.223 C  
HETATM    2  C   UNL     1     -11.076  13.745  67.955  1.00  0.00    -0.264 C  
ENDROOT
BRANCH   2   3
HETATM    3  N   UNL     1     -11.219  12.475  68.678  1.00  0.00    -0.258 NA 
HETATM    4  C   UNL     1     -10.708  11.274  68.217  1.00  0.00    -0.194 C  
HETATM    5  C   UNL     1     -10.838  10.085  68.824  1.00  0.00    -0.252 C  
HETATM    6  C   UNL     1     -10.240   8.882  68.209  1.00  0.00    -0.201 C  
HETATM    7  C   UNL     1     -11.593  10.067  70.095  1.00  0.00    -0.252 C  
HETATM    8  O   UNL     1      -9.599   8.907  67.169  1.00  0.00    -0.155 OA 
HETATM    9  O   UNL     1     -10.459   7.736  68.892  1.00  0.00    -0.213 OA 
HETATM   10  O   UNL     1     -11.796   9.002  70.676  1.00  0.00    -0.255 OA 
HETATM   11  C   UNL     1     -12.081  11.349  70.645  1.00  0.00    -0.469 A  
HETATM   12  C   UNL     1     -11.884  12.531  69.925  1.00  0.00    -0.303 A  
HETATM   13  N   UNL     1     -12.322  13.717  70.414  1.00  0.00    -0.351 NA 
HETATM   14  C   UNL     1     -12.957  13.744  71.612  1.00  0.00    -0.364 A  
HETATM   15  C   UNL     1     -13.419  15.081  72.112  1.00  0.00    -0.508 C  
HETATM   16  C   UNL     1     -13.178  12.601  72.371  1.00  0.00    -0.348 A  
HETATM   17  C   UNL     1     -12.735  11.381  71.877  1.00  0.00    -0.266 A  
ENDBRANCH   2   3
TORSDOF 1
ENDMDL
MODEL       66
REMARK 921   NORMALIZED FREE ENERGY PREDICTED BY IDOCK:   -4.61 KCAL/MOL
REMARK 922        TOTAL FREE ENERGY PREDICTED BY IDOCK:   -5.01 KCAL/MOL
REMARK 923 INTER-LIGAND FREE ENERGY PREDICTED BY IDOCK:   -4.87 KCAL/MOL
REMARK 924 INTRA-LIGAND FREE ENERGY PREDICTED BY IDOCK:   -0.14 KCAL/MOL
REMARK 927      BINDING AFFINITY PREDICTED BY RF-SCORE:    0.00 PKD
ROOT
HETATM    1  C   UNL     1      -8.918  11.502  68.525  1.00  0.00    -0.146 C  
HETATM    2  C   UNL     1      -8.786  12.017  67.099  1.00  0.00    -0.188 C  
ENDROOT
BRANCH   2   3
HETATM    3  N   UNL     1      -9.171  13.431  67.006  1.00  0.00    -0.235 NA 
HETATM    4  C   UNL     1      -8.581  14.432  67.758  1.00  0.00    -0.171 C  
HETATM    5  C   UNL     1      -8.916  15.730  67.732  1.00  0.00    -0.176 C  
HETATM    6  C   UNL     1      -8.197  16.688  68.597  1.00  0.00    -0.245 C  
HETATM    7  C   UNL     1     -10.012  16.115  66.817  1.00  0.00    -0.258 C  
HETATM    8  O   UNL     1      -7.278  16.367  69.336  1.00  0.00    -0.228 OA 
HETATM    9  O   UNL     1      -8.640  17.962  68.511  1.00  0.00    -0.293 OA 
HETATM   10  O   UNL     1     -10.407  17.280  66.784  1.00  0.00    -0.316 OA 
HETATM   11  C   UNL     1     -10.604  15.076  65.949  1.00  0.00    -0.338 A  
HETATM   12  C   UNL     1     -10.172  13.751  66.059  1.00  0.00    -0.308 A  
HETATM   13  N   UNL     1     -10.701  12.785  65.270  1.00  0.00    -0.287 NA 
HETATM   14  C   UNL     1     -11.660  13.118  64.371  1.00  0.00    -0.377 A  
HETATM   15  C   UNL     1     -12.212  12.014  63.518  1.00  0.00    -0.653 C  
HETATM   16  C   UNL     1     -12.126  14.418  64.216  1.00  0.00    -0.461 A  
HETATM   17  C   UNL     1     -11.592  15.414  65.022  1.00  0.00    -0.189 A  
ENDBRANCH   2   3
TORSDOF 1
ENDMDL
MODEL       67
REMARK 921   NORMALIZED FREE ENERGY PREDICTED BY IDOCK:   -4.59 KCAL/MOL
REMARK 922        TOTAL FREE ENERGY PREDICTED BY IDOCK:   -4.99 KCAL/MOL
REMARK 923 INTER-LIGAND FREE ENERGY PREDICTED BY IDOCK:   -4.85 KCAL/MOL
REMARK 924 INTRA-LIGAND FREE ENERGY PREDICTED BY IDOCK:   -0.14 KCAL/MOL
REMARK 927      BINDING AFFINITY PREDICTED BY RF-SCORE:    0.00 PKD
ROOT
HETATM    1  C   UNL     1     -12.118  12.333  63.491  1.00  0.00    -0.649 C  
HETATM    2  C   UNL     1     -10.732  12.665  64.026  1.00  0.00    -0.425 C  
ENDROOT
BRANCH   2   3
HETATM    3  N   UNL     1     -10.614  12.319  65.448  1.00  0.00    -0.265 NA 
HETATM    4  C   UNL     1     -10.554  11.016  65.912  1.00  0.00    -0.206 C  
HETATM    5  C   UNL     1     -10.477  10.648  67.200  1.00  0.00    -0.295 C  
HETATM    6  C   UNL     1     -10.422   9.214  67.548  1.00  0.00    -0.270 C  
HETATM    7  C   UNL     1     -10.453  11.736  68.202  1.00  0.00    -0.201 C  
HETATM    8  O   UNL     1     -10.421   8.319  66.715  1.00  0.00    -0.318 OA 
HETATM    9  O   UNL     1     -10.377   8.960  68.875  1.00  0.00    -0.206 OA 
HETATM   10  O   UNL     1     -10.438  11.468  69.402  1.00  0.00    -0.108 OA 
HETATM   11  C   UNL     1     -10.439  13.134  67.725  1.00  0.00    -0.232 A  
HETATM   12  C   UNL     1     -10.519  13.401  66.355  1.00  0.00    -0.286 A  
HETATM   13  N   UNL     1     -10.505  14.677  65.897  1.00  0.00    -0.299 NA 
HETATM   14  C   UNL     1     -10.415  15.696  66.788  1.00  0.00    -0.297 A  
HETATM   15  C   UNL     1     -10.399  17.089  66.232  1.00  0.00    -0.309 C  
HETATM   16  C   UNL     1     -10.330  15.491  68.159  1.00  0.00    -0.237 A  
HETATM   17  C   UNL     1     -10.347  14.187  68.637  1.00  0.00    -0.243 A  
ENDBRANCH   2   3
TORSDOF 1
ENDMDL
MODEL       68
REMARK 921   NORMALIZED FREE ENERGY PREDICTED BY IDOCK:   -4.57 KCAL/MOL
REMARK 922        TOTAL FREE ENERGY PREDICTED BY IDOCK:   -4.96 KCAL/MOL
REMARK 923 INTER-LIGAND FREE ENERGY PREDICTED BY IDOCK:   -4.82 KCAL/MOL
REMARK 924 INTRA-LIGAND FREE ENERGY PREDICTED BY IDOCK:   -0.14 KCAL/MOL
REMARK 927      BINDING AFFINITY PREDICTED BY RF-SCORE:    0.00 PKD
ROOT
HETATM    1  C   UNL     1      -8.994   6.826  66.605  1.00  0.00    -0.154 C  
HETATM    2  C   UNL     1      -8.379   8.218  66.631  1.00  0.00    -0.111 C  
ENDROOT
BRANCH   2   3
HETATM    3  N   UNL     1      -9.355   9.222  67.073  1.00  0.00    -0.140 NA 
HETATM    4  C   UNL     1      -9.785   9.339  68.383  1.00  0.00    -0.154 C  
HETATM    5  C   UNL     1     -10.695  10.218  68.831  1.00  0.00    -0.256 C  
HETATM    6  C   UNL     1     -11.061  10.225  70.262  1.00  0.00    -0.319 C  
HETATM    7  C   UNL     1     -11.281  11.136  67.831  1.00  0.00    -0.302 C  
HETATM    8  O   UNL     1     -10.558   9.477  71.088  1.00  0.00    -0.319 OA 
HETATM    9  O   UNL     1     -12.008  11.130  70.594  1.00  0.00    -0.343 OA 
HETATM   10  O   UNL     1     -12.160  11.929  68.164  1.00  0.00    -0.516 OA 
HETATM   11  C   UNL     1     -10.780  11.079  66.442  1.00  0.00    -0.286 A  
HETATM   12  C   UNL     1      -9.824  10.123  66.088  1.00  0.00    -0.237 A  
HETATM   13  N   UNL     1      -9.349  10.057  64.820  1.00  0.00    -0.251 NA 
HETATM   14  C   UNL     1      -9.816  10.932  63.895  1.00  0.00    -0.331 A  
HETATM   15  C   UNL     1      -9.258  10.822  62.507  1.00  0.00    -0.334 C  
HETATM   16  C   UNL     1     -10.763  11.905  64.190  1.00  0.00    -0.402 A  
HETATM   17  C   UNL     1     -11.257  11.977  65.486  1.00  0.00    -0.372 A  
ENDBRANCH   2   3
TORSDOF 1
ENDMDL
MODEL       69
REMARK 921   NORMALIZED FREE ENERGY PREDICTED BY IDOCK:   -4.55 KCAL/MOL
REMARK 922        TOTAL FREE ENERGY PREDICTED BY IDOCK:   -4.95 KCAL/MOL
REMARK 923 INTER-LIGAND FREE ENERGY PREDICTED BY IDOCK:   -4.82 KCAL/MOL
REMARK 924 INTRA-LIGAND FREE ENERGY PREDICTED BY IDOCK:   -0.12 KCAL/MOL
REMARK 927      BINDING AFFINITY PREDICTED BY RF-SCORE:    0.00 PKD
ROOT
HETATM    1  C   UNL     1     -12.184  15.045  64.400  1.00  0.00    -0.353 C  
HETATM    2  C   UNL     1     -11.017  15.814  65.004  1.00  0.00    -0.417 C  
ENDROOT
BRANCH   2   3
HETATM    3  N   UNL     1     -10.248  14.974  65.930  1.00  0.00    -0.293 NA 
HETATM    4  C   UNL     1     -10.675  13.730  66.362  1.00  0.00    -0.281 C  
HETATM    5  C   UNL     1     -10.025  12.938  67.230  1.00  0.00    -0.224 C  
HETATM    6  C   UNL     1     -10.606  11.632  67.603  1.00  0.00    -0.203 C  
HETATM    7  C   UNL     1      -8.744  13.449  67.763  1.00  0.00    -0.197 C  
HETATM    8  O   UNL     1     -11.655  11.207  67.142  1.00  0.00    -0.495 OA 
HETATM    9  O   UNL     1      -9.881  10.934  68.505  1.00  0.00    -0.170 OA 
HETATM   10  O   UNL     1      -8.125  12.799  68.604  1.00  0.00    -0.110 OA 
HETATM   11  C   UNL     1      -8.233  14.739  67.257  1.00  0.00    -0.237 A  
HETATM   12  C   UNL     1      -8.995  15.479  66.348  1.00  0.00    -0.324 A  
HETATM   13  N   UNL     1      -8.542  16.664  65.871  1.00  0.00    -0.474 NA 
HETATM   14  C   UNL     1      -7.338  17.126  66.288  1.00  0.00    -0.291 A  
HETATM   15  C   UNL     1      -6.878  18.440  65.728  1.00  0.00    -0.310 C  
HETATM   16  C   UNL     1      -6.536  16.434  67.187  1.00  0.00    -0.234 A  
HETATM   17  C   UNL     1      -6.994  15.220  67.684  1.00  0.00    -0.209 A  
ENDBRANCH   2   3
TORSDOF 1
ENDMDL
MODEL       70
REMARK 921   NORMALIZED FREE ENERGY PREDICTED BY IDOCK:   -4.52 KCAL/MOL
REMARK 922        TOTAL FREE ENERGY PREDICTED BY IDOCK:   -4.91 KCAL/MOL
REMARK 923 INTER-LIGAND FREE ENERGY PREDICTED BY IDOCK:   -4.80 KCAL/MOL
REMARK 924 INTRA-LIGAND FREE ENERGY PREDICTED BY IDOCK:   -0.11 KCAL/MOL
REMARK 927      BINDING AFFINITY PREDICTED BY RF-SCORE:    0.00 PKD
ROOT
HETATM    1  C   UNL     1     -10.222   8.527  66.861  1.00  0.00    -0.375 C  
HETATM    2  C   UNL     1      -9.316   9.341  65.947  1.00  0.00    -0.236 C  
ENDROOT
BRANCH   2   3
HETATM    3  N   UNL     1      -9.757  10.739  65.868  1.00  0.00    -0.213 NA 
HETATM    4  C   UNL     1     -10.822  11.158  65.090  1.00  0.00    -0.159 C  
HETATM    5  C   UNL     1     -11.245  12.425  64.961  1.00  0.00    -0.354 C  
HETATM    6  C   UNL     1     -12.399  12.725  64.088  1.00  0.00    -0.407 C  
HETATM    7  C   UNL     1     -10.502  13.454  65.720  1.00  0.00    -0.290 C  
HETATM    8  O   UNL     1     -13.022  11.867  63.480  1.00  0.00    -0.724 OA 
HETATM    9  O   UNL     1     -12.717  14.036  64.010  1.00  0.00    -0.654 OA 
HETATM   10  O   UNL     1     -10.802  14.641  65.603  1.00  0.00    -0.303 OA 
HETATM   11  C   UNL     1      -9.410  13.019  66.615  1.00  0.00    -0.242 A  
HETATM   12  C   UNL     1      -9.058  11.668  66.674  1.00  0.00    -0.194 A  
HETATM   13  N   UNL     1      -8.061  11.249  67.492  1.00  0.00    -0.121 NA 
HETATM   14  C   UNL     1      -7.406  12.160  68.253  1.00  0.00    -0.100 A  
HETATM   15  C   UNL     1      -6.313  11.648  69.144  1.00  0.00    -0.084 C  
HETATM   16  C   UNL     1      -7.715  13.515  68.238  1.00  0.00    -0.137 A  
HETATM   17  C   UNL     1      -8.733  13.953  67.401  1.00  0.00    -0.208 A  
ENDBRANCH   2   3
TORSDOF 1
ENDMDL
MODEL       71
REMARK 921   NORMALIZED FREE ENERGY PREDICTED BY IDOCK:   -4.52 KCAL/MOL
REMARK 922        TOTAL FREE ENERGY PREDICTED BY IDOCK:   -4.91 KCAL/MOL
REMARK 923 INTER-LIGAND FREE ENERGY PREDICTED BY IDOCK:   -4.77 KCAL/MOL
REMARK 924 INTRA-LIGAND FREE ENERGY PREDICTED BY IDOCK:   -0.14 KCAL/MOL
REMARK 927      BINDING AFFINITY PREDICTED BY RF-SCORE:    0.00 PKD
ROOT
HETATM    1  C   UNL     1      -7.109   9.608  70.506  1.00  0.00    -0.137 C  
HETATM    2  C   UNL     1      -8.155   9.436  69.413  1.00  0.00    -0.105 C  
ENDROOT
BRANCH   2   3
HETATM    3  N   UNL     1      -9.498   9.763  69.906  1.00  0.00    -0.222 NA 
HETATM    4  C   UNL     1     -10.103   9.103  70.962  1.00  0.00    -0.303 C  
HETATM    5  C   UNL     1     -11.337   9.343  71.430  1.00  0.00    -0.451 C  
HETATM    6  C   UNL     1     -11.855   8.554  72.566  1.00  0.00    -0.328 C  
HETATM    7  C   UNL     1     -12.108  10.408  70.753  1.00  0.00    -0.364 C  
HETATM    8  O   UNL     1     -11.204   7.690  73.136  1.00  0.00    -0.391 OA 
HETATM    9  O   UNL     1     -13.119   8.861  72.933  1.00  0.00    -0.339 OA 
HETATM   10  O   UNL     1     -13.266  10.642  71.096  1.00  0.00    -0.345 OA 
HETATM   11  C   UNL     1     -11.454  11.176  69.674  1.00  0.00    -0.383 A  
HETATM   12  C   UNL     1     -10.159  10.840  69.270  1.00  0.00    -0.177 A  
HETATM   13  N   UNL     1      -9.541  11.535  68.284  1.00  0.00    -0.184 NA 
HETATM   14  C   UNL     1     -10.196  12.563  67.690  1.00  0.00    -0.219 A  
HETATM   15  C   UNL     1      -9.469  13.304  66.608  1.00  0.00    -0.262 C  
HETATM   16  C   UNL     1     -11.483  12.943  68.052  1.00  0.00    -0.361 A  
HETATM   17  C   UNL     1     -12.125  12.235  69.059  1.00  0.00    -0.197 A  
ENDBRANCH   2   3
TORSDOF 1
ENDMDL
MODEL       72
REMARK 921   NORMALIZED FREE ENERGY PREDICTED BY IDOCK:   -4.50 KCAL/MOL
REMARK 922        TOTAL FREE ENERGY PREDICTED BY IDOCK:   -4.89 KCAL/MOL
REMARK 923 INTER-LIGAND FREE ENERGY PREDICTED BY IDOCK:   -4.75 KCAL/MOL
REMARK 924 INTRA-LIGAND FREE ENERGY PREDICTED BY IDOCK:   -0.14 KCAL/MOL
REMARK 927      BINDING AFFINITY PREDICTED BY RF-SCORE:    0.00 PKD
ROOT
HETATM    1  C   UNL     1      -8.902  10.435  68.762  1.00  0.00    -0.157 C  
HETATM    2  C   UNL     1      -8.268  11.218  67.621  1.00  0.00    -0.120 C  
ENDROOT
BRANCH   2   3
HETATM    3  N   UNL     1      -9.233  11.459  66.540  1.00  0.00    -0.184 NA 
HETATM    4  C   UNL     1     -10.296  12.338  66.651  1.00  0.00    -0.215 C  
HETATM    5  C   UNL     1     -11.220  12.571  65.707  1.00  0.00    -0.356 C  
HETATM    6  C   UNL     1     -12.305  13.539  65.968  1.00  0.00    -0.433 C  
HETATM    7  C   UNL     1     -11.081  11.817  64.442  1.00  0.00    -0.334 C  
HETATM    8  O   UNL     1     -12.402  14.174  67.008  1.00  0.00    -0.396 OA 
HETATM    9  O   UNL     1     -13.194  13.670  64.959  1.00  0.00    -0.729 OA 
HETATM   10  O   UNL     1     -11.925  11.941  63.556  1.00  0.00    -0.489 OA 
HETATM   11  C   UNL     1      -9.911  10.931  64.274  1.00  0.00    -0.392 A  
HETATM   12  C   UNL     1      -9.007  10.768  65.327  1.00  0.00    -0.194 A  
HETATM   13  N   UNL     1      -7.926   9.961  65.191  1.00  0.00    -0.132 NA 
HETATM   14  C   UNL     1      -7.733   9.309  64.017  1.00  0.00    -0.117 A  
HETATM   15  C   UNL     1      -6.521   8.432  63.914  1.00  0.00    -0.072 C  
HETATM   16  C   UNL     1      -8.596   9.435  62.936  1.00  0.00    -0.222 A  
HETATM   17  C   UNL     1      -9.708  10.257  63.068  1.00  0.00    -0.212 A  
ENDBRANCH   2   3
TORSDOF 1
ENDMDL
MODEL       73
REMARK 921   NORMALIZED FREE ENERGY PREDICTED BY IDOCK:   -4.49 KCAL/MOL
REMARK 922        TOTAL FREE ENERGY PREDICTED BY IDOCK:   -4.88 KCAL/MOL
REMARK 923 INTER-LIGAND FREE ENERGY PREDICTED BY IDOCK:   -4.76 KCAL/MOL
REMARK 924 INTRA-LIGAND FREE ENERGY PREDICTED BY IDOCK:   -0.12 KCAL/MOL
REMARK 927      BINDING AFFINITY PREDICTED BY RF-SCORE:    0.00 PKD
ROOT
HETATM    1  C   UNL     1     -10.865   8.105  72.490  1.00  0.00    -0.431 C  
HETATM    2  C   UNL     1     -11.572   9.230  71.747  1.00  0.00    -0.388 C  
ENDROOT
BRANCH   2   3
HETATM    3  N   UNL     1     -11.238   9.216  70.317  1.00  0.00    -0.240 NA 
HETATM    4  C   UNL     1     -10.854   8.074  69.637  1.00  0.00    -0.169 C  
HETATM    5  C   UNL     1     -10.510   8.014  68.341  1.00  0.00    -0.205 C  
HETATM    6  C   UNL     1     -10.118   6.720  67.748  1.00  0.00    -0.154 C  
HETATM    7  C   UNL     1     -10.548   9.285  67.585  1.00  0.00    -0.261 C  
HETATM    8  O   UNL     1     -10.109   5.669  68.373  1.00  0.00    -0.149 OA 
HETATM    9  O   UNL     1      -9.763   6.785  66.445  1.00  0.00    -0.151 OA 
HETATM   10  O   UNL     1     -10.192   9.311  66.408  1.00  0.00    -0.273 OA 
HETATM   11  C   UNL     1     -11.028  10.501  68.273  1.00  0.00    -0.314 A  
HETATM   12  C   UNL     1     -11.365  10.444  69.628  1.00  0.00    -0.272 A  
HETATM   13  N   UNL     1     -11.809  11.549  70.276  1.00  0.00    -0.350 NA 
HETATM   14  C   UNL     1     -11.921  12.715  69.592  1.00  0.00    -0.286 A  
HETATM   15  C   UNL     1     -12.421  13.908  70.351  1.00  0.00    -0.404 C  
HETATM   16  C   UNL     1     -11.604  12.830  68.244  1.00  0.00    -0.375 A  
HETATM   17  C   UNL     1     -11.145  11.703  67.573  1.00  0.00    -0.333 A  
ENDBRANCH   2   3
TORSDOF 1
ENDMDL
MODEL       74
REMARK 921   NORMALIZED FREE ENERGY PREDICTED BY IDOCK:   -4.49 KCAL/MOL
REMARK 922        TOTAL FREE ENERGY PREDICTED BY IDOCK:   -4.88 KCAL/MOL
REMARK 923 INTER-LIGAND FREE ENERGY PREDICTED BY IDOCK:   -4.75 KCAL/MOL
REMARK 924 INTRA-LIGAND FREE ENERGY PREDICTED BY IDOCK:   -0.12 KCAL/MOL
REMARK 927      BINDING AFFINITY PREDICTED BY RF-SCORE:    0.00 PKD
ROOT
HETATM    1  C   UNL     1     -12.125  14.145  71.568  1.00  0.00    -0.252 C  
HETATM    2  C   UNL     1     -13.058  13.305  70.707  1.00  0.00     0.076 C  
ENDROOT
BRANCH   2   3
HETATM    3  N   UNL     1     -12.389  12.089  70.228  1.00  0.00    -0.240 NA 
HETATM    4  C   UNL     1     -12.252  10.944  70.993  1.00  0.00    -0.358 C  
HETATM    5  C   UNL     1     -11.624   9.820  70.613  1.00  0.00    -0.389 C  
HETATM    6  C   UNL     1     -11.554   8.673  71.540  1.00  0.00    -0.302 C  
HETATM    7  C   UNL     1     -11.032   9.817  69.258  1.00  0.00    -0.193 C  
HETATM    8  O   UNL     1     -12.064   8.675  72.651  1.00  0.00    -0.351 OA 
HETATM    9  O   UNL     1     -10.872   7.608  71.064  1.00  0.00    -0.236 OA 
HETATM   10  O   UNL     1     -10.395   8.839  68.867  1.00  0.00    -0.207 OA 
HETATM   11  C   UNL     1     -11.232  11.000  68.396  1.00  0.00    -0.337 A  
HETATM   12  C   UNL     1     -11.908  12.116  68.898  1.00  0.00    -0.304 A  
HETATM   13  N   UNL     1     -12.104  13.210  68.122  1.00  0.00    -0.269 NA 
HETATM   14  C   UNL     1     -11.633  13.211  66.850  1.00  0.00    -0.368 A  
HETATM   15  C   UNL     1     -11.878  14.443  66.030  1.00  0.00    -0.379 C  
HETATM   16  C   UNL     1     -10.957  12.130  66.298  1.00  0.00    -0.332 A  
HETATM   17  C   UNL     1     -10.749  11.006  67.087  1.00  0.00    -0.313 A  
ENDBRANCH   2   3
TORSDOF 1
ENDMDL
MODEL       75
REMARK 921   NORMALIZED FREE ENERGY PREDICTED BY IDOCK:   -4.48 KCAL/MOL
REMARK 922        TOTAL FREE ENERGY PREDICTED BY IDOCK:   -4.87 KCAL/MOL
REMARK 923 INTER-LIGAND FREE ENERGY PREDICTED BY IDOCK:   -4.75 KCAL/MOL
REMARK 924 INTRA-LIGAND FREE ENERGY PREDICTED BY IDOCK:   -0.12 KCAL/MOL
REMARK 927      BINDING AFFINITY PREDICTED BY RF-SCORE:    0.00 PKD
ROOT
HETATM    1  C   UNL     1      -7.503   7.447  68.021  1.00  0.00    -0.105 C  
HETATM    2  C   UNL     1      -8.988   7.182  67.820  1.00  0.00    -0.122 C  
ENDROOT
BRANCH   2   3
HETATM    3  N   UNL     1      -9.733   8.434  67.642  1.00  0.00    -0.153 NA 
HETATM    4  C   UNL     1      -9.809   9.109  66.435  1.00  0.00    -0.280 C  
HETATM    5  C   UNL     1     -10.450  10.270  66.228  1.00  0.00    -0.214 C  
HETATM    6  C   UNL     1     -10.444  10.878  64.882  1.00  0.00    -0.282 C  
HETATM    7  C   UNL     1     -11.131  10.870  67.396  1.00  0.00    -0.307 C  
HETATM    8  O   UNL     1      -9.897  10.366  63.916  1.00  0.00    -0.312 OA 
HETATM    9  O   UNL     1     -11.094  12.059  64.798  1.00  0.00    -0.301 OA 
HETATM   10  O   UNL     1     -11.690  11.960  67.288  1.00  0.00    -0.518 OA 
HETATM   11  C   UNL     1     -11.126  10.129  68.674  1.00  0.00    -0.254 A  
HETATM   12  C   UNL     1     -10.427   8.922  68.773  1.00  0.00    -0.200 A  
HETATM   13  N   UNL     1     -10.414   8.226  69.936  1.00  0.00    -0.219 NA 
HETATM   14  C   UNL     1     -11.087   8.716  71.006  1.00  0.00    -0.264 A  
HETATM   15  C   UNL     1     -11.046   7.908  72.269  1.00  0.00    -0.376 C  
HETATM   16  C   UNL     1     -11.801   9.907  70.965  1.00  0.00    -0.463 A  
HETATM   17  C   UNL     1     -11.818  10.629  69.778  1.00  0.00    -0.377 A  
ENDBRANCH   2   3
TORSDOF 1
ENDMDL
MODEL       76
REMARK 921   NORMALIZED FREE ENERGY PREDICTED BY IDOCK:   -4.46 KCAL/MOL
REMARK 922        TOTAL FREE ENERGY PREDICTED BY IDOCK:   -4.85 KCAL/MOL
REMARK 923 INTER-LIGAND FREE ENERGY PREDICTED BY IDOCK:   -4.77 KCAL/MOL
REMARK 924 INTRA-LIGAND FREE ENERGY PREDICTED BY IDOCK:   -0.08 KCAL/MOL
REMARK 927      BINDING AFFINITY PREDICTED BY RF-SCORE:    0.00 PKD
ROOT
HETATM    1  C   UNL     1      -9.081  10.436  68.513  1.00  0.00    -0.145 C  
HETATM    2  C   UNL     1      -8.825   9.888  69.910  1.00  0.00    -0.195 C  
ENDROOT
BRANCH   2   3
HETATM    3  N   UNL     1      -9.966   9.099  70.390  1.00  0.00    -0.201 NA 
HETATM    4  C   UNL     1     -11.091   9.661  70.969  1.00  0.00    -0.368 C  
HETATM    5  C   UNL     1     -12.144   8.983  71.450  1.00  0.00    -0.392 C  
HETATM    6  C   UNL     1     -13.277   9.720  72.046  1.00  0.00    -0.460 C  
HETATM    7  C   UNL     1     -12.089   7.509  71.346  1.00  0.00    -0.327 C  
HETATM    8  O   UNL     1     -13.326  10.940  72.110  1.00  0.00    -0.443 OA 
HETATM    9  O   UNL     1     -14.267   8.935  72.524  1.00  0.00    -0.527 OA 
HETATM   10  O   UNL     1     -12.996   6.825  71.816  1.00  0.00    -0.349 OA 
HETATM   11  C   UNL     1     -10.933   6.893  70.663  1.00  0.00    -0.304 A  
HETATM   12  C   UNL     1      -9.891   7.700  70.196  1.00  0.00    -0.184 A  
HETATM   13  N   UNL     1      -8.824   7.153  69.565  1.00  0.00    -0.137 NA 
HETATM   14  C   UNL     1      -8.777   5.809  69.392  1.00  0.00    -0.111 A  
HETATM   15  C   UNL     1      -7.577   5.252  68.684  1.00  0.00    -0.082 C  
HETATM   16  C   UNL     1      -9.783   4.958  69.832  1.00  0.00    -0.276 A  
HETATM   17  C   UNL     1     -10.879   5.510  70.483  1.00  0.00    -0.266 A  
ENDBRANCH   2   3
TORSDOF 1
ENDMDL
MODEL       77
REMARK 921   NORMALIZED FREE ENERGY PREDICTED BY IDOCK:   -4.38 KCAL/MOL
REMARK 922        TOTAL FREE ENERGY PREDICTED BY IDOCK:   -4.76 KCAL/MOL
REMARK 923 INTER-LIGAND FREE ENERGY PREDICTED BY IDOCK:   -4.63 KCAL/MOL
REMARK 924 INTRA-LIGAND FREE ENERGY PREDICTED BY IDOCK:   -0.13 KCAL/MOL
REMARK 927      BINDING AFFINITY PREDICTED BY RF-SCORE:    0.00 PKD
ROOT
HETATM    1  C   UNL     1     -11.199  13.352  68.098  1.00  0.00    -0.304 C  
HETATM    2  C   UNL     1     -11.399  12.036  67.359  1.00  0.00    -0.327 C  
ENDROOT
BRANCH   2   3
HETATM    3  N   UNL     1     -11.316  10.893  68.276  1.00  0.00    -0.290 NA 
HETATM    4  C   UNL     1     -11.934  10.863  69.514  1.00  0.00    -0.330 C  
HETATM    5  C   UNL     1     -11.863   9.858  70.400  1.00  0.00    -0.310 C  
HETATM    6  C   UNL     1     -12.575   9.968  71.689  1.00  0.00    -0.427 C  
HETATM    7  C   UNL     1     -11.053   8.684  70.008  1.00  0.00    -0.157 C  
HETATM    8  O   UNL     1     -13.261  10.932  71.998  1.00  0.00    -0.492 OA 
HETATM    9  O   UNL     1     -12.409   8.910  72.513  1.00  0.00    -0.349 OA 
HETATM   10  O   UNL     1     -10.901   7.751  70.795  1.00  0.00    -0.230 OA 
HETATM   11  C   UNL     1     -10.448   8.662  68.660  1.00  0.00    -0.208 A  
HETATM   12  C   UNL     1     -10.591   9.768  67.818  1.00  0.00    -0.266 A  
HETATM   13  N   UNL     1     -10.045   9.766  66.577  1.00  0.00    -0.236 NA 
HETATM   14  C   UNL     1      -9.355   8.675  66.162  1.00  0.00    -0.226 A  
HETATM   15  C   UNL     1      -8.773   8.719  64.779  1.00  0.00    -0.133 C  
HETATM   16  C   UNL     1      -9.182   7.547  66.955  1.00  0.00    -0.181 A  
HETATM   17  C   UNL     1      -9.736   7.542  68.228  1.00  0.00    -0.163 A  
ENDBRANCH   2   3
TORSDOF 1
ENDMDL
MODEL       78
REMARK 921   NORMALIZED FREE ENERGY PREDICTED BY IDOCK:   -4.37 KCAL/MOL
REMARK 922        TOTAL FREE ENERGY PREDICTED BY IDOCK:   -4.75 KCAL/MOL
REMARK 923 INTER-LIGAND FREE ENERGY PREDICTED BY IDOCK:   -4.69 KCAL/MOL
REMARK 924 INTRA-LIGAND FREE ENERGY PREDICTED BY IDOCK:   -0.06 KCAL/MOL
REMARK 927      BINDING AFFINITY PREDICTED BY RF-SCORE:    0.00 PKD
ROOT
HETATM    1  C   UNL     1      -7.582  12.508  68.365  1.00  0.00    -0.129 C  
HETATM    2  C   UNL     1      -8.724  12.880  67.429  1.00  0.00    -0.197 C  
ENDROOT
BRANCH   2   3
HETATM    3  N   UNL     1      -9.190  14.250  67.676  1.00  0.00    -0.189 NA 
HETATM    4  C   UNL     1      -8.680  15.357  67.022  1.00  0.00    -0.229 C  
HETATM    5  C   UNL     1      -9.050  16.630  67.233  1.00  0.00    -0.225 C  
HETATM    6  C   UNL     1      -8.413  17.714  66.459  1.00  0.00    -0.264 C  
HETATM    7  C   UNL     1     -10.094  16.856  68.255  1.00  0.00    -0.302 C  
HETATM    8  O   UNL     1      -7.565  17.518  65.600  1.00  0.00    -0.480 OA 
HETATM    9  O   UNL     1      -8.841  18.956  66.776  1.00  0.00    -0.288 OA 
HETATM   10  O   UNL     1     -10.441  18.002  68.537  1.00  0.00    -0.357 OA 
HETATM   11  C   UNL     1     -10.707  15.683  68.911  1.00  0.00    -0.238 A  
HETATM   12  C   UNL     1     -10.244  14.399  68.608  1.00  0.00    -0.245 A  
HETATM   13  N   UNL     1     -10.795  13.310  69.198  1.00  0.00    -0.163 NA 
HETATM   14  C   UNL     1     -11.803  13.481  70.089  1.00  0.00    -0.278 A  
HETATM   15  C   UNL     1     -12.382  12.245  70.711  1.00  0.00    -0.383 C  
HETATM   16  C   UNL     1     -12.305  14.731  70.425  1.00  0.00    -0.402 A  
HETATM   17  C   UNL     1     -11.745  15.853  69.829  1.00  0.00    -0.323 A  
ENDBRANCH   2   3
TORSDOF 1
ENDMDL
MODEL       79
REMARK 921   NORMALIZED FREE ENERGY PREDICTED BY IDOCK:   -4.35 KCAL/MOL
REMARK 922        TOTAL FREE ENERGY PREDICTED BY IDOCK:   -4.73 KCAL/MOL
REMARK 923 INTER-LIGAND FREE ENERGY PREDICTED BY IDOCK:   -4.65 KCAL/MOL
REMARK 924 INTRA-LIGAND FREE ENERGY PREDICTED BY IDOCK:   -0.08 KCAL/MOL
REMARK 927      BINDING AFFINITY PREDICTED BY RF-SCORE:    0.00 PKD
ROOT
HETATM    1  C   UNL     1      -6.221  14.043  69.207  1.00  0.00    -0.105 C  
HETATM    2  C   UNL     1      -6.609  14.485  67.803  1.00  0.00    -0.172 C  
ENDROOT
BRANCH   2   3
HETATM    3  N   UNL     1      -8.068  14.489  67.631  1.00  0.00    -0.164 NA 
HETATM    4  C   UNL     1      -8.802  13.355  67.331  1.00  0.00    -0.214 C  
HETATM    5  C   UNL     1     -10.129  13.313  67.135  1.00  0.00    -0.239 C  
HETATM    6  C   UNL     1     -10.780  12.025  66.816  1.00  0.00    -0.243 C  
HETATM    7  C   UNL     1     -10.859  14.593  67.253  1.00  0.00    -0.305 C  
HETATM    8  O   UNL     1     -10.173  10.967  66.741  1.00  0.00    -0.214 OA 
HETATM    9  O   UNL     1     -12.113  12.107  66.610  1.00  0.00    -0.622 OA 
HETATM   10  O   UNL     1     -12.068  14.635  67.031  1.00  0.00    -0.357 OA 
HETATM   11  C   UNL     1     -10.106  15.802  67.647  1.00  0.00    -0.247 A  
HETATM   12  C   UNL     1      -8.722  15.727  67.830  1.00  0.00    -0.170 A  
HETATM   13  N   UNL     1      -8.014  16.824  68.195  1.00  0.00    -0.175 NA 
HETATM   14  C   UNL     1      -8.666  17.999  68.379  1.00  0.00    -0.293 A  
HETATM   15  C   UNL     1      -7.839  19.183  68.786  1.00  0.00    -0.383 C  
HETATM   16  C   UNL     1     -10.039  18.132  68.214  1.00  0.00    -0.398 A  
HETATM   17  C   UNL     1     -10.772  17.014  67.838  1.00  0.00    -0.348 A  
ENDBRANCH   2   3
TORSDOF 1
ENDMDL
MODEL       80
REMARK 921   NORMALIZED FREE ENERGY PREDICTED BY IDOCK:   -4.31 KCAL/MOL
REMARK 922        TOTAL FREE ENERGY PREDICTED BY IDOCK:   -4.68 KCAL/MOL
REMARK 923 INTER-LIGAND FREE ENERGY PREDICTED BY IDOCK:   -4.56 KCAL/MOL
REMARK 924 INTRA-LIGAND FREE ENERGY PREDICTED BY IDOCK:   -0.12 KCAL/MOL
REMARK 927      BINDING AFFINITY PREDICTED BY RF-SCORE:    0.00 PKD
ROOT
HETATM    1  C   UNL     1      -8.954  10.841  62.567  1.00  0.00    -0.344 C  
HETATM    2  C   UNL     1      -9.829  11.450  63.653  1.00  0.00    -0.348 C  
ENDROOT
BRANCH   2   3
HETATM    3  N   UNL     1      -9.836  10.615  64.861  1.00  0.00    -0.276 NA 
HETATM    4  C   UNL     1      -9.205   9.386  64.941  1.00  0.00    -0.183 C  
HETATM    5  C   UNL     1      -9.207   8.574  66.009  1.00  0.00    -0.262 C  
HETATM    6  C   UNL     1      -8.489   7.284  65.948  1.00  0.00    -0.144 C  
HETATM    7  C   UNL     1      -9.949   9.044  67.198  1.00  0.00    -0.224 C  
HETATM    8  O   UNL     1      -7.859   6.912  64.968  1.00  0.00    -0.108 OA 
HETATM    9  O   UNL     1      -8.584   6.536  67.069  1.00  0.00    -0.112 OA 
HETATM   10  O   UNL     1     -10.037   8.324  68.192  1.00  0.00    -0.185 OA 
HETATM   11  C   UNL     1     -10.566  10.385  67.162  1.00  0.00    -0.319 A  
HETATM   12  C   UNL     1     -10.497  11.148  65.992  1.00  0.00    -0.256 A  
HETATM   13  N   UNL     1     -11.054  12.383  65.940  1.00  0.00    -0.300 NA 
HETATM   14  C   UNL     1     -11.683  12.871  67.038  1.00  0.00    -0.385 A  
HETATM   15  C   UNL     1     -12.280  14.243  66.932  1.00  0.00    -0.366 C  
HETATM   16  C   UNL     1     -11.780  12.159  68.227  1.00  0.00    -0.401 A  
HETATM   17  C   UNL     1     -11.214  10.892  68.289  1.00  0.00    -0.347 A  
ENDBRANCH   2   3
TORSDOF 1
ENDMDL
MODEL       81
REMARK 921   NORMALIZED FREE ENERGY PREDICTED BY IDOCK:   -4.23 KCAL/MOL
REMARK 922        TOTAL FREE ENERGY PREDICTED BY IDOCK:   -4.61 KCAL/MOL
REMARK 923 INTER-LIGAND FREE ENERGY PREDICTED BY IDOCK:   -4.47 KCAL/MOL
REMARK 924 INTRA-LIGAND FREE ENERGY PREDICTED BY IDOCK:   -0.13 KCAL/MOL
REMARK 927      BINDING AFFINITY PREDICTED BY RF-SCORE:    0.00 PKD
ROOT
HETATM    1  C   UNL     1     -11.568  15.003  68.729  1.00  0.00    -0.357 C  
HETATM    2  C   UNL     1     -10.147  14.922  68.189  1.00  0.00    -0.222 C  
ENDROOT
BRANCH   2   3
HETATM    3  N   UNL     1      -9.474  16.225  68.265  1.00  0.00    -0.211 NA 
HETATM    4  C   UNL     1     -10.064  17.411  67.862  1.00  0.00    -0.326 C  
HETATM    5  C   UNL     1      -9.482  18.620  67.883  1.00  0.00    -0.331 C  
HETATM    6  C   UNL     1     -10.235  19.802  67.416  1.00  0.00    -0.440 C  
HETATM    7  C   UNL     1      -8.091  18.678  68.383  1.00  0.00    -0.333 C  
HETATM    8  O   UNL     1     -11.391  19.749  67.024  1.00  0.00    -0.141 OA 
HETATM    9  O   UNL     1      -9.540  20.960  67.454  1.00  0.00    -0.433 OA 
HETATM   10  O   UNL     1      -7.480  19.746  68.378  1.00  0.00    -0.314 OA 
HETATM   11  C   UNL     1      -7.470  17.438  68.890  1.00  0.00    -0.235 A  
HETATM   12  C   UNL     1      -8.174  16.232  68.822  1.00  0.00    -0.227 A  
HETATM   13  N   UNL     1      -7.622  15.083  69.285  1.00  0.00    -0.176 NA 
HETATM   14  C   UNL     1      -6.374  15.117  69.814  1.00  0.00    -0.154 A  
HETATM   15  C   UNL     1      -5.809  13.821  70.315  1.00  0.00    -0.152 C  
HETATM   16  C   UNL     1      -5.629  16.286  69.909  1.00  0.00    -0.170 A  
HETATM   17  C   UNL     1      -6.185  17.467  69.435  1.00  0.00    -0.250 A  
ENDBRANCH   2   3
TORSDOF 1
ENDMDL
MODEL       82
REMARK 921   NORMALIZED FREE ENERGY PREDICTED BY IDOCK:   -4.20 KCAL/MOL
REMARK 922        TOTAL FREE ENERGY PREDICTED BY IDOCK:   -4.56 KCAL/MOL
REMARK 923 INTER-LIGAND FREE ENERGY PREDICTED BY IDOCK:   -4.60 KCAL/MOL
REMARK 924 INTRA-LIGAND FREE ENERGY PREDICTED BY IDOCK:    0.04 KCAL/MOL
REMARK 927      BINDING AFFINITY PREDICTED BY RF-SCORE:    0.00 PKD
ROOT
HETATM    1  C   UNL     1     -11.388  14.688  69.310  1.00  0.00    -0.313 C  
HETATM    2  C   UNL     1     -12.266  13.472  69.049  1.00  0.00    -0.186 C  
ENDROOT
BRANCH   2   3
HETATM    3  N   UNL     1     -11.494  12.378  68.446  1.00  0.00    -0.285 NA 
HETATM    4  C   UNL     1     -11.007  11.302  69.168  1.00  0.00    -0.240 C  
HETATM    5  C   UNL     1     -10.273  10.296  68.670  1.00  0.00    -0.196 C  
HETATM    6  C   UNL     1      -9.818   9.211  69.565  1.00  0.00    -0.178 C  
HETATM    7  C   UNL     1      -9.964  10.350  67.225  1.00  0.00    -0.188 C  
HETATM    8  O   UNL     1     -10.095   9.161  70.754  1.00  0.00    -0.224 OA 
HETATM    9  O   UNL     1      -9.061   8.268  68.962  1.00  0.00    -0.147 OA 
HETATM   10  O   UNL     1      -9.249   9.488  66.716  1.00  0.00    -0.142 OA 
HETATM   11  C   UNL     1     -10.537  11.449  66.422  1.00  0.00    -0.311 A  
HETATM   12  C   UNL     1     -11.294  12.445  67.048  1.00  0.00    -0.327 A  
HETATM   13  N   UNL     1     -11.831  13.459  66.327  1.00  0.00    -0.374 NA 
HETATM   14  C   UNL     1     -11.623  13.500  64.987  1.00  0.00    -0.327 A  
HETATM   15  C   UNL     1     -12.241  14.640  64.233  1.00  0.00    -0.432 C  
HETATM   16  C   UNL     1     -10.883  12.537  64.312  1.00  0.00    -0.400 A  
HETATM   17  C   UNL     1     -10.326  11.496  65.043  1.00  0.00    -0.333 A  
ENDBRANCH   2   3
TORSDOF 1
ENDMDL
MODEL       83
REMARK 921   NORMALIZED FREE ENERGY PREDICTED BY IDOCK:   -4.19 KCAL/MOL
REMARK 922        TOTAL FREE ENERGY PREDICTED BY IDOCK:   -4.56 KCAL/MOL
REMARK 923 INTER-LIGAND FREE ENERGY PREDICTED BY IDOCK:   -4.43 KCAL/MOL
REMARK 924 INTRA-LIGAND FREE ENERGY PREDICTED BY IDOCK:   -0.12 KCAL/MOL
REMARK 927      BINDING AFFINITY PREDICTED BY RF-SCORE:    0.00 PKD
ROOT
HETATM    1  C   UNL     1      -9.718   6.758  67.289  1.00  0.00    -0.175 C  
HETATM    2  C   UNL     1      -9.008   8.033  67.724  1.00  0.00    -0.132 C  
ENDROOT
BRANCH   2   3
HETATM    3  N   UNL     1      -9.938   8.964  68.376  1.00  0.00    -0.172 NA 
HETATM    4  C   UNL     1     -10.327   8.850  69.699  1.00  0.00    -0.212 C  
HETATM    5  C   UNL     1     -11.195   9.654  70.331  1.00  0.00    -0.342 C  
HETATM    6  C   UNL     1     -11.519   9.408  71.751  1.00  0.00    -0.343 C  
HETATM    7  C   UNL     1     -11.780  10.755  69.536  1.00  0.00    -0.312 C  
HETATM    8  O   UNL     1     -11.015   8.509  72.409  1.00  0.00    -0.357 OA 
HETATM    9  O   UNL     1     -12.426  10.261  72.275  1.00  0.00    -0.128 OA 
HETATM   10  O   UNL     1     -12.624  11.496  70.038  1.00  0.00    -0.148 OA 
HETATM   11  C   UNL     1     -11.322  10.941  68.144  1.00  0.00    -0.383 A  
HETATM   12  C   UNL     1     -10.407  10.041  67.588  1.00  0.00    -0.224 A  
HETATM   13  N   UNL     1      -9.973  10.197  66.314  1.00  0.00    -0.229 NA 
HETATM   14  C   UNL     1     -10.439  11.238  65.580  1.00  0.00    -0.261 A  
HETATM   15  C   UNL     1      -9.925  11.370  64.177  1.00  0.00    -0.335 C  
HETATM   16  C   UNL     1     -11.346  12.164  66.080  1.00  0.00    -0.414 A  
HETATM   17  C   UNL     1     -11.799  12.011  67.384  1.00  0.00    -0.268 A  
ENDBRANCH   2   3
TORSDOF 1
ENDMDL
MODEL       84
REMARK 921   NORMALIZED FREE ENERGY PREDICTED BY IDOCK:   -4.18 KCAL/MOL
REMARK 922        TOTAL FREE ENERGY PREDICTED BY IDOCK:   -4.55 KCAL/MOL
REMARK 923 INTER-LIGAND FREE ENERGY PREDICTED BY IDOCK:   -4.43 KCAL/MOL
REMARK 924 INTRA-LIGAND FREE ENERGY PREDICTED BY IDOCK:   -0.12 KCAL/MOL
REMARK 927      BINDING AFFINITY PREDICTED BY RF-SCORE:    0.00 PKD
ROOT
HETATM    1  C   UNL     1      -9.745  10.161  64.743  1.00  0.00    -0.389 C  
HETATM    2  C   UNL     1     -10.392  11.014  65.825  1.00  0.00    -0.257 C  
ENDROOT
BRANCH   2   3
HETATM    3  N   UNL     1     -10.576  10.252  67.066  1.00  0.00    -0.251 NA 
HETATM    4  C   UNL     1     -10.251   8.912  67.191  1.00  0.00    -0.269 C  
HETATM    5  C   UNL     1     -10.428   8.164  68.291  1.00  0.00    -0.210 C  
HETATM    6  C   UNL     1     -10.036   6.740  68.278  1.00  0.00    -0.146 C  
HETATM    7  C   UNL     1     -11.020   8.841  69.465  1.00  0.00    -0.068 C  
HETATM    8  O   UNL     1      -9.527   6.193  67.310  1.00  0.00    -0.113 OA 
HETATM    9  O   UNL     1     -10.287   6.079  69.429  1.00  0.00    -0.192 OA 
HETATM   10  O   UNL     1     -11.259   8.201  70.488  1.00  0.00    -0.264 OA 
HETATM   11  C   UNL     1     -11.303  10.288  69.378  1.00  0.00    -0.279 A  
HETATM   12  C   UNL     1     -11.075  10.968  68.179  1.00  0.00    -0.270 A  
HETATM   13  N   UNL     1     -11.326  12.297  68.080  1.00  0.00    -0.270 NA 
HETATM   14  C   UNL     1     -11.804  12.960  69.161  1.00  0.00    -0.303 A  
HETATM   15  C   UNL     1     -12.062  14.429  69.004  1.00  0.00    -0.298 C  
HETATM   16  C   UNL     1     -12.047  12.337  70.379  1.00  0.00    -0.385 A  
HETATM   17  C   UNL     1     -11.796  10.975  70.489  1.00  0.00    -0.464 A  
ENDBRANCH   2   3
TORSDOF 1
ENDMDL
MODEL       85
REMARK 921   NORMALIZED FREE ENERGY PREDICTED BY IDOCK:   -4.17 KCAL/MOL
REMARK 922        TOTAL FREE ENERGY PREDICTED BY IDOCK:   -4.54 KCAL/MOL
REMARK 923 INTER-LIGAND FREE ENERGY PREDICTED BY IDOCK:   -4.73 KCAL/MOL
REMARK 924 INTRA-LIGAND FREE ENERGY PREDICTED BY IDOCK:    0.18 KCAL/MOL
REMARK 927      BINDING AFFINITY PREDICTED BY RF-SCORE:    0.00 PKD
ROOT
HETATM    1  C   UNL     1     -12.079  13.224  63.493  1.00  0.00    -0.550 C  
HETATM    2  C   UNL     1     -12.505  12.720  64.864  1.00  0.00    -0.497 C  
ENDROOT
BRANCH   2   3
HETATM    3  N   UNL     1     -11.490  13.021  65.881  1.00  0.00    -0.323 NA 
HETATM    4  C   UNL     1     -11.663  13.972  66.872  1.00  0.00    -0.410 C  
HETATM    5  C   UNL     1     -10.756  14.305  67.803  1.00  0.00    -0.253 C  
HETATM    6  C   UNL     1     -11.081  15.345  68.800  1.00  0.00    -0.283 C  
HETATM    7  C   UNL     1      -9.464  13.586  67.758  1.00  0.00    -0.216 C  
HETATM    8  O   UNL     1     -12.159  15.920  68.845  1.00  0.00    -0.315 OA 
HETATM    9  O   UNL     1     -10.083  15.619  69.669  1.00  0.00    -0.262 OA 
HETATM   10  O   UNL     1      -8.569  13.881  68.549  1.00  0.00    -0.172 OA 
HETATM   11  C   UNL     1      -9.287  12.515  66.757  1.00  0.00    -0.230 A  
HETATM   12  C   UNL     1     -10.305  12.251  65.836  1.00  0.00    -0.252 A  
HETATM   13  N   UNL     1     -10.162  11.269  64.912  1.00  0.00    -0.267 NA 
HETATM   14  C   UNL     1      -9.015  10.546  64.890  1.00  0.00    -0.199 A  
HETATM   15  C   UNL     1      -8.906   9.469  63.851  1.00  0.00    -0.240 C  
HETATM   16  C   UNL     1      -7.972  10.762  65.781  1.00  0.00    -0.122 A  
HETATM   17  C   UNL     1      -8.109  11.767  66.730  1.00  0.00    -0.133 A  
ENDBRANCH   2   3
TORSDOF 1
ENDMDL
MODEL       86
REMARK 921   NORMALIZED FREE ENERGY PREDICTED BY IDOCK:   -4.17 KCAL/MOL
REMARK 922        TOTAL FREE ENERGY PREDICTED BY IDOCK:   -4.54 KCAL/MOL
REMARK 923 INTER-LIGAND FREE ENERGY PREDICTED BY IDOCK:   -4.40 KCAL/MOL
REMARK 924 INTRA-LIGAND FREE ENERGY PREDICTED BY IDOCK:   -0.14 KCAL/MOL
REMARK 927      BINDING AFFINITY PREDICTED BY RF-SCORE:    0.00 PKD
ROOT
HETATM    1  C   UNL     1      -5.392  16.150  68.771  1.00  0.00    -0.111 C  
HETATM    2  C   UNL     1      -6.103  15.837  67.462  1.00  0.00    -0.133 C  
ENDROOT
BRANCH   2   3
HETATM    3  N   UNL     1      -7.366  16.578  67.352  1.00  0.00    -0.135 NA 
HETATM    4  C   UNL     1      -7.440  17.960  67.359  1.00  0.00    -0.201 C  
HETATM    5  C   UNL     1      -8.569  18.683  67.292  1.00  0.00    -0.276 C  
HETATM    6  C   UNL     1      -8.495  20.158  67.313  1.00  0.00    -0.342 C  
HETATM    7  C   UNL     1      -9.836  17.926  67.202  1.00  0.00    -0.308 C  
HETATM    8  O   UNL     1      -7.442  20.777  67.366  1.00  0.00    -0.344 OA 
HETATM    9  O   UNL     1      -9.694  20.780  67.271  1.00  0.00    -0.479 OA 
HETATM   10  O   UNL     1     -10.911  18.526  67.193  1.00  0.00    -0.391 OA 
HETATM   11  C   UNL     1      -9.775  16.453  67.116  1.00  0.00    -0.241 A  
HETATM   12  C   UNL     1      -8.539  15.805  67.192  1.00  0.00    -0.201 A  
HETATM   13  N   UNL     1      -8.462  14.454  67.113  1.00  0.00    -0.213 NA 
HETATM   14  C   UNL     1      -9.602  13.736  66.960  1.00  0.00    -0.251 A  
HETATM   15  C   UNL     1      -9.465  12.244  66.873  1.00  0.00    -0.217 C  
HETATM   16  C   UNL     1     -10.857  14.326  66.876  1.00  0.00    -0.298 A  
HETATM   17  C   UNL     1     -10.946  15.709  66.960  1.00  0.00    -0.261 A  
ENDBRANCH   2   3
TORSDOF 1
ENDMDL
MODEL       87
REMARK 921   NORMALIZED FREE ENERGY PREDICTED BY IDOCK:   -4.17 KCAL/MOL
REMARK 922        TOTAL FREE ENERGY PREDICTED BY IDOCK:   -4.54 KCAL/MOL
REMARK 923 INTER-LIGAND FREE ENERGY PREDICTED BY IDOCK:   -4.46 KCAL/MOL
REMARK 924 INTRA-LIGAND FREE ENERGY PREDICTED BY IDOCK:   -0.08 KCAL/MOL
REMARK 927      BINDING AFFINITY PREDICTED BY RF-SCORE:    0.00 PKD
ROOT
HETATM    1  C   UNL     1      -7.061   9.506  64.721  1.00  0.00    -0.108 C  
HETATM    2  C   UNL     1      -8.479   8.963  64.611  1.00  0.00    -0.168 C  
ENDROOT
BRANCH   2   3
HETATM    3  N   UNL     1      -9.415   9.749  65.425  1.00  0.00    -0.250 NA 
HETATM    4  C   UNL     1     -10.075  10.872  64.955  1.00  0.00    -0.312 C  
HETATM    5  C   UNL     1     -10.914  11.640  65.666  1.00  0.00    -0.322 C  
HETATM    6  C   UNL     1     -11.546  12.814  65.030  1.00  0.00    -0.337 C  
HETATM    7  C   UNL     1     -11.147  11.244  67.071  1.00  0.00    -0.293 C  
HETATM    8  O   UNL     1     -11.365  13.124  63.862  1.00  0.00    -0.396 OA 
HETATM    9  O   UNL     1     -12.347  13.531  65.849  1.00  0.00    -0.438 OA 
HETATM   10  O   UNL     1     -11.862  11.935  67.795  1.00  0.00    -0.518 OA 
HETATM   11  C   UNL     1     -10.513  10.007  67.571  1.00  0.00    -0.307 A  
HETATM   12  C   UNL     1      -9.657   9.280  66.737  1.00  0.00    -0.183 A  
HETATM   13  N   UNL     1      -9.068   8.141  67.176  1.00  0.00    -0.136 NA 
HETATM   14  C   UNL     1      -9.317   7.714  68.438  1.00  0.00    -0.146 A  
HETATM   15  C   UNL     1      -8.645   6.446  68.876  1.00  0.00    -0.123 C  
HETATM   16  C   UNL     1     -10.160   8.393  69.310  1.00  0.00    -0.202 A  
HETATM   17  C   UNL     1     -10.765   9.562  68.870  1.00  0.00    -0.220 A  
ENDBRANCH   2   3
TORSDOF 1
ENDMDL
MODEL       88
REMARK 921   NORMALIZED FREE ENERGY PREDICTED BY IDOCK:   -4.16 KCAL/MOL
REMARK 922        TOTAL FREE ENERGY PREDICTED BY IDOCK:   -4.53 KCAL/MOL
REMARK 923 INTER-LIGAND FREE ENERGY PREDICTED BY IDOCK:   -4.40 KCAL/MOL
REMARK 924 INTRA-LIGAND FREE ENERGY PREDICTED BY IDOCK:   -0.12 KCAL/MOL
REMARK 927      BINDING AFFINITY PREDICTED BY RF-SCORE:    0.00 PKD
ROOT
HETATM    1  C   UNL     1      -8.866   6.032  66.974  1.00  0.00    -0.113 C  
HETATM    2  C   UNL     1      -9.807   6.015  68.171  1.00  0.00    -0.131 C  
ENDROOT
BRANCH   2   3
HETATM    3  N   UNL     1     -10.232   7.372  68.533  1.00  0.00    -0.179 NA 
HETATM    4  C   UNL     1     -10.255   8.427  67.637  1.00  0.00    -0.236 C  
HETATM    5  C   UNL     1     -10.606   9.690  67.925  1.00  0.00    -0.308 C  
HETATM    6  C   UNL     1     -10.579  10.716  66.863  1.00  0.00    -0.254 C  
HETATM    7  C   UNL     1     -11.001   9.967  69.323  1.00  0.00    -0.211 C  
HETATM    8  O   UNL     1     -10.272  10.476  65.704  1.00  0.00    -0.262 OA 
HETATM    9  O   UNL     1     -10.922  11.957  67.273  1.00  0.00    -0.239 OA 
HETATM   10  O   UNL     1     -11.282  11.114  69.667  1.00  0.00    -0.250 OA 
HETATM   11  C   UNL     1     -11.057   8.840  70.277  1.00  0.00    -0.240 A  
HETATM   12  C   UNL     1     -10.672   7.562  69.864  1.00  0.00    -0.246 A  
HETATM   13  N   UNL     1     -10.719   6.515  70.724  1.00  0.00    -0.230 NA 
HETATM   14  C   UNL     1     -11.144   6.724  71.995  1.00  0.00    -0.250 A  
HETATM   15  C   UNL     1     -11.182   5.534  72.907  1.00  0.00    -0.358 C  
HETATM   16  C   UNL     1     -11.541   7.971  72.460  1.00  0.00    -0.464 A  
HETATM   17  C   UNL     1     -11.494   9.050  71.586  1.00  0.00    -0.431 A  
ENDBRANCH   2   3
TORSDOF 1
ENDMDL
MODEL       89
REMARK 921   NORMALIZED FREE ENERGY PREDICTED BY IDOCK:   -4.15 KCAL/MOL
REMARK 922        TOTAL FREE ENERGY PREDICTED BY IDOCK:   -4.52 KCAL/MOL
REMARK 923 INTER-LIGAND FREE ENERGY PREDICTED BY IDOCK:   -4.40 KCAL/MOL
REMARK 924 INTRA-LIGAND FREE ENERGY PREDICTED BY IDOCK:   -0.12 KCAL/MOL
REMARK 927      BINDING AFFINITY PREDICTED BY RF-SCORE:    0.00 PKD
ROOT
HETATM    1  C   UNL     1      -8.847   7.123  70.664  1.00  0.00    -0.149 C  
HETATM    2  C   UNL     1     -10.009   7.390  69.718  1.00  0.00    -0.188 C  
ENDROOT
BRANCH   2   3
HETATM    3  N   UNL     1     -10.104   8.816  69.381  1.00  0.00    -0.197 NA 
HETATM    4  C   UNL     1      -9.340   9.418  68.396  1.00  0.00    -0.134 C  
HETATM    5  C   UNL     1      -9.367  10.719  68.072  1.00  0.00    -0.152 C  
HETATM    6  C   UNL     1      -8.488  11.223  66.997  1.00  0.00    -0.150 C  
HETATM    7  C   UNL     1     -10.299  11.575  68.837  1.00  0.00    -0.169 C  
HETATM    8  O   UNL     1      -7.735  10.506  66.353  1.00  0.00    -0.122 OA 
HETATM    9  O   UNL     1      -8.578  12.553  66.776  1.00  0.00    -0.183 OA 
HETATM   10  O   UNL     1     -10.335  12.787  68.628  1.00  0.00    -0.232 OA 
HETATM   11  C   UNL     1     -11.179  10.940  69.839  1.00  0.00    -0.355 A  
HETATM   12  C   UNL     1     -11.066   9.570  70.093  1.00  0.00    -0.255 A  
HETATM   13  N   UNL     1     -11.867   8.969  71.007  1.00  0.00    -0.287 NA 
HETATM   14  C   UNL     1     -12.780   9.714  71.676  1.00  0.00    -0.407 A  
HETATM   15  C   UNL     1     -13.645   9.003  72.674  1.00  0.00    -0.411 C  
HETATM   16  C   UNL     1     -12.939  11.078  71.464  1.00  0.00    -0.553 A  
HETATM   17  C   UNL     1     -12.121  11.703  70.531  1.00  0.00    -0.458 A  
ENDBRANCH   2   3
TORSDOF 1
ENDMDL
MODEL       90
REMARK 921   NORMALIZED FREE ENERGY PREDICTED BY IDOCK:   -4.13 KCAL/MOL
REMARK 922        TOTAL FREE ENERGY PREDICTED BY IDOCK:   -4.50 KCAL/MOL
REMARK 923 INTER-LIGAND FREE ENERGY PREDICTED BY IDOCK:   -4.38 KCAL/MOL
REMARK 924 INTRA-LIGAND FREE ENERGY PREDICTED BY IDOCK:   -0.12 KCAL/MOL
REMARK 927      BINDING AFFINITY PREDICTED BY RF-SCORE:    0.00 PKD
ROOT
HETATM    1  C   UNL     1      -7.360   7.923  66.244  1.00  0.00    -0.075 C  
HETATM    2  C   UNL     1      -8.561   8.718  65.753  1.00  0.00    -0.164 C  
ENDROOT
BRANCH   2   3
HETATM    3  N   UNL     1      -9.317   9.288  66.875  1.00  0.00    -0.145 NA 
HETATM    4  C   UNL     1      -9.208   8.830  68.177  1.00  0.00    -0.140 C  
HETATM    5  C   UNL     1      -9.897   9.296  69.229  1.00  0.00    -0.172 C  
HETATM    6  C   UNL     1      -9.678   8.706  70.566  1.00  0.00    -0.180 C  
HETATM    7  C   UNL     1     -10.852  10.394  68.965  1.00  0.00    -0.234 C  
HETATM    8  O   UNL     1      -8.871   7.813  70.781  1.00  0.00    -0.137 OA 
HETATM    9  O   UNL     1     -10.447   9.232  71.544  1.00  0.00    -0.334 OA 
HETATM   10  O   UNL     1     -11.556  10.830  69.875  1.00  0.00    -0.274 OA 
HETATM   11  C   UNL     1     -10.929  10.949  67.598  1.00  0.00    -0.350 A  
HETATM   12  C   UNL     1     -10.158  10.385  66.576  1.00  0.00    -0.228 A  
HETATM   13  N   UNL     1     -10.213  10.882  65.316  1.00  0.00    -0.279 NA 
HETATM   14  C   UNL     1     -11.028  11.934  65.057  1.00  0.00    -0.312 A  
HETATM   15  C   UNL     1     -11.050  12.451  63.648  1.00  0.00    -0.535 C  
HETATM   16  C   UNL     1     -11.813  12.536  66.032  1.00  0.00    -0.478 A  
HETATM   17  C   UNL     1     -11.766  12.031  67.325  1.00  0.00    -0.339 A  
ENDBRANCH   2   3
TORSDOF 1
ENDMDL
MODEL       91
REMARK 921   NORMALIZED FREE ENERGY PREDICTED BY IDOCK:   -4.12 KCAL/MOL
REMARK 922        TOTAL FREE ENERGY PREDICTED BY IDOCK:   -4.49 KCAL/MOL
REMARK 923 INTER-LIGAND FREE ENERGY PREDICTED BY IDOCK:   -4.46 KCAL/MOL
REMARK 924 INTRA-LIGAND FREE ENERGY PREDICTED BY IDOCK:   -0.03 KCAL/MOL
REMARK 927      BINDING AFFINITY PREDICTED BY RF-SCORE:    0.00 PKD
ROOT
HETATM    1  C   UNL     1      -8.901   9.528  68.682  1.00  0.00    -0.132 C  
HETATM    2  C   UNL     1      -8.678   9.438  70.185  1.00  0.00    -0.221 C  
ENDROOT
BRANCH   2   3
HETATM    3  N   UNL     1      -9.564   8.440  70.796  1.00  0.00    -0.167 NA 
HETATM    4  C   UNL     1      -9.192   7.125  71.017  1.00  0.00    -0.158 C  
HETATM    5  C   UNL     1      -9.974   6.170  71.543  1.00  0.00    -0.211 C  
HETATM    6  C   UNL     1      -9.440   4.803  71.718  1.00  0.00    -0.149 C  
HETATM    7  C   UNL     1     -11.349   6.567  71.915  1.00  0.00    -0.285 C  
HETATM    8  O   UNL     1      -8.295   4.487  71.427  1.00  0.00    -0.096 OA 
HETATM    9  O   UNL     1     -10.324   3.917  72.227  1.00  0.00    -0.171 OA 
HETATM   10  O   UNL     1     -12.135   5.727  72.351  1.00  0.00    -0.249 OA 
HETATM   11  C   UNL     1     -11.742   7.982  71.759  1.00  0.00    -0.335 A  
HETATM   12  C   UNL     1     -10.841   8.894  71.202  1.00  0.00    -0.281 A  
HETATM   13  N   UNL     1     -11.182  10.198  71.052  1.00  0.00    -0.315 NA 
HETATM   14  C   UNL     1     -12.412  10.607  71.449  1.00  0.00    -0.390 A  
HETATM   15  C   UNL     1     -12.741  12.060  71.267  1.00  0.00    -0.382 C  
HETATM   16  C   UNL     1     -13.347   9.747  72.011  1.00  0.00    -0.547 A  
HETATM   17  C   UNL     1     -13.007   8.409  72.165  1.00  0.00    -0.370 A  
ENDBRANCH   2   3
TORSDOF 1
ENDMDL
MODEL       92
REMARK 921   NORMALIZED FREE ENERGY PREDICTED BY IDOCK:   -4.12 KCAL/MOL
REMARK 922        TOTAL FREE ENERGY PREDICTED BY IDOCK:   -4.48 KCAL/MOL
REMARK 923 INTER-LIGAND FREE ENERGY PREDICTED BY IDOCK:   -4.36 KCAL/MOL
REMARK 924 INTRA-LIGAND FREE ENERGY PREDICTED BY IDOCK:   -0.13 KCAL/MOL
REMARK 927      BINDING AFFINITY PREDICTED BY RF-SCORE:    0.00 PKD
ROOT
HETATM    1  C   UNL     1      -8.326   9.343  69.239  1.00  0.00    -0.131 C  
HETATM    2  C   UNL     1      -8.804  10.766  68.986  1.00  0.00    -0.127 C  
ENDROOT
BRANCH   2   3
HETATM    3  N   UNL     1      -9.314  10.921  67.618  1.00  0.00    -0.155 NA 
HETATM    4  C   UNL     1      -8.890  10.142  66.555  1.00  0.00    -0.140 C  
HETATM    5  C   UNL     1      -9.301  10.263  65.284  1.00  0.00    -0.267 C  
HETATM    6  C   UNL     1      -8.756   9.359  64.250  1.00  0.00    -0.197 C  
HETATM    7  C   UNL     1     -10.294  11.323  65.006  1.00  0.00    -0.301 C  
HETATM    8  O   UNL     1      -7.952   8.471  64.490  1.00  0.00    -0.130 OA 
HETATM    9  O   UNL     1      -9.219   9.592  63.002  1.00  0.00    -0.258 OA 
HETATM   10  O   UNL     1     -10.673  11.524  63.853  1.00  0.00    -0.336 OA 
HETATM   11  C   UNL     1     -10.817  12.115  66.138  1.00  0.00    -0.317 A  
HETATM   12  C   UNL     1     -10.317  11.899  67.425  1.00  0.00    -0.207 A  
HETATM   13  N   UNL     1     -10.786  12.613  68.477  1.00  0.00    -0.244 NA 
HETATM   14  C   UNL     1     -11.748  13.546  68.265  1.00  0.00    -0.359 A  
HETATM   15  C   UNL     1     -12.237  14.308  69.461  1.00  0.00    -0.341 C  
HETATM   16  C   UNL     1     -12.283  13.802  67.009  1.00  0.00    -0.381 A  
HETATM   17  C   UNL     1     -11.807  13.076  65.925  1.00  0.00    -0.468 A  
ENDBRANCH   2   3
TORSDOF 1
ENDMDL
MODEL       93
REMARK 921   NORMALIZED FREE ENERGY PREDICTED BY IDOCK:   -4.10 KCAL/MOL
REMARK 922        TOTAL FREE ENERGY PREDICTED BY IDOCK:   -4.47 KCAL/MOL
REMARK 923 INTER-LIGAND FREE ENERGY PREDICTED BY IDOCK:   -4.35 KCAL/MOL
REMARK 924 INTRA-LIGAND FREE ENERGY PREDICTED BY IDOCK:   -0.12 KCAL/MOL
REMARK 927      BINDING AFFINITY PREDICTED BY RF-SCORE:    0.00 PKD
ROOT
HETATM    1  C   UNL     1      -6.553  12.814  69.026  1.00  0.00    -0.099 C  
HETATM    2  C   UNL     1      -7.251  12.104  67.874  1.00  0.00    -0.102 C  
ENDROOT
BRANCH   2   3
HETATM    3  N   UNL     1      -8.576  12.682  67.618  1.00  0.00    -0.168 NA 
HETATM    4  C   UNL     1      -9.112  13.718  68.363  1.00  0.00    -0.175 C  
HETATM    5  C   UNL     1     -10.328  14.259  68.189  1.00  0.00    -0.233 C  
HETATM    6  C   UNL     1     -10.769  15.362  69.066  1.00  0.00    -0.242 C  
HETATM    7  C   UNL     1     -11.157  13.692  67.103  1.00  0.00    -0.297 C  
HETATM    8  O   UNL     1     -10.070  15.840  69.948  1.00  0.00    -0.275 OA 
HETATM    9  O   UNL     1     -12.021  15.808  68.820  1.00  0.00    -0.374 OA 
HETATM   10  O   UNL     1     -12.302  14.105  66.925  1.00  0.00    -0.419 OA 
HETATM   11  C   UNL     1     -10.575  12.638  66.247  1.00  0.00    -0.274 A  
HETATM   12  C   UNL     1      -9.293  12.152  66.520  1.00  0.00    -0.228 A  
HETATM   13  N   UNL     1      -8.742  11.187  65.744  1.00  0.00    -0.179 NA 
HETATM   14  C   UNL     1      -9.451  10.696  64.697  1.00  0.00    -0.258 A  
HETATM   15  C   UNL     1      -8.796   9.633  63.866  1.00  0.00    -0.255 C  
HETATM   16  C   UNL     1     -10.727  11.143  64.378  1.00  0.00    -0.388 A  
HETATM   17  C   UNL     1     -11.301  12.129  65.169  1.00  0.00    -0.379 A  
ENDBRANCH   2   3
TORSDOF 1
ENDMDL
MODEL       94
REMARK 921   NORMALIZED FREE ENERGY PREDICTED BY IDOCK:   -4.10 KCAL/MOL
REMARK 922        TOTAL FREE ENERGY PREDICTED BY IDOCK:   -4.46 KCAL/MOL
REMARK 923 INTER-LIGAND FREE ENERGY PREDICTED BY IDOCK:   -4.32 KCAL/MOL
REMARK 924 INTRA-LIGAND FREE ENERGY PREDICTED BY IDOCK:   -0.14 KCAL/MOL
REMARK 927      BINDING AFFINITY PREDICTED BY RF-SCORE:    0.00 PKD
ROOT
HETATM    1  C   UNL     1     -12.790   9.517  72.176  1.00  0.00    -0.471 C  
HETATM    2  C   UNL     1     -11.318   9.350  71.823  1.00  0.00    -0.317 C  
ENDROOT
BRANCH   2   3
HETATM    3  N   UNL     1     -11.031   7.983  71.370  1.00  0.00    -0.230 NA 
HETATM    4  C   UNL     1     -11.069   6.881  72.206  1.00  0.00    -0.249 C  
HETATM    5  C   UNL     1     -10.786   5.619  71.849  1.00  0.00    -0.302 C  
HETATM    6  C   UNL     1     -10.866   4.539  72.855  1.00  0.00    -0.199 C  
HETATM    7  C   UNL     1     -10.403   5.398  70.438  1.00  0.00    -0.283 C  
HETATM    8  O   UNL     1     -11.204   4.725  74.015  1.00  0.00    -0.273 OA 
HETATM    9  O   UNL     1     -10.531   3.315  72.390  1.00  0.00    -0.126 OA 
HETATM   10  O   UNL     1     -10.078   4.275  70.057  1.00  0.00    -0.196 OA 
HETATM   11  C   UNL     1     -10.430   6.548  69.511  1.00  0.00    -0.265 A  
HETATM   12  C   UNL     1     -10.745   7.822  69.995  1.00  0.00    -0.244 A  
HETATM   13  N   UNL     1     -10.778   8.889  69.159  1.00  0.00    -0.189 NA 
HETATM   14  C   UNL     1     -10.499   8.706  67.845  1.00  0.00    -0.209 A  
HETATM   15  C   UNL     1     -10.552   9.917  66.960  1.00  0.00    -0.272 C  
HETATM   16  C   UNL     1     -10.183   7.465  67.308  1.00  0.00    -0.330 A  
HETATM   17  C   UNL     1     -10.144   6.366  68.157  1.00  0.00    -0.167 A  
ENDBRANCH   2   3
TORSDOF 1
ENDMDL
MODEL       95
REMARK 921   NORMALIZED FREE ENERGY PREDICTED BY IDOCK:   -4.05 KCAL/MOL
REMARK 922        TOTAL FREE ENERGY PREDICTED BY IDOCK:   -4.42 KCAL/MOL
REMARK 923 INTER-LIGAND FREE ENERGY PREDICTED BY IDOCK:   -4.28 KCAL/MOL
REMARK 924 INTRA-LIGAND FREE ENERGY PREDICTED BY IDOCK:   -0.13 KCAL/MOL
REMARK 927      BINDING AFFINITY PREDICTED BY RF-SCORE:    0.00 PKD
ROOT
HETATM    1  C   UNL     1     -13.822   8.855  72.142  1.00  0.00    -0.531 C  
HETATM    2  C   UNL     1     -12.918  10.062  71.932  1.00  0.00    -0.447 C  
ENDROOT
BRANCH   2   3
HETATM    3  N   UNL     1     -11.597   9.657  71.434  1.00  0.00    -0.385 NA 
HETATM    4  C   UNL     1     -10.865   8.617  71.979  1.00  0.00    -0.360 C  
HETATM    5  C   UNL     1      -9.644   8.228  71.582  1.00  0.00    -0.261 C  
HETATM    6  C   UNL     1      -8.979   7.098  72.262  1.00  0.00    -0.131 C  
HETATM    7  C   UNL     1      -9.039   8.983  70.463  1.00  0.00    -0.221 C  
HETATM    8  O   UNL     1      -9.494   6.465  73.172  1.00  0.00    -0.138 OA 
HETATM    9  O   UNL     1      -7.741   6.815  71.798  1.00  0.00    -0.094 OA 
HETATM   10  O   UNL     1      -7.899   8.714  70.085  1.00  0.00    -0.088 OA 
HETATM   11  C   UNL     1      -9.834  10.047  69.817  1.00  0.00    -0.270 A  
HETATM   12  C   UNL     1     -11.101  10.364  70.314  1.00  0.00    -0.307 A  
HETATM   13  N   UNL     1     -11.847  11.335  69.733  1.00  0.00    -0.332 NA 
HETATM   14  C   UNL     1     -11.348  11.999  68.661  1.00  0.00    -0.277 A  
HETATM   15  C   UNL     1     -12.213  13.062  68.051  1.00  0.00    -0.057 C  
HETATM   16  C   UNL     1     -10.097  11.724  68.123  1.00  0.00    -0.196 A  
HETATM   17  C   UNL     1      -9.325  10.733  68.713  1.00  0.00    -0.186 A  
ENDBRANCH   2   3
TORSDOF 1
ENDMDL
MODEL       96
REMARK 921   NORMALIZED FREE ENERGY PREDICTED BY IDOCK:   -4.05 KCAL/MOL
REMARK 922        TOTAL FREE ENERGY PREDICTED BY IDOCK:   -4.41 KCAL/MOL
REMARK 923 INTER-LIGAND FREE ENERGY PREDICTED BY IDOCK:   -4.31 KCAL/MOL
REMARK 924 INTRA-LIGAND FREE ENERGY PREDICTED BY IDOCK:   -0.10 KCAL/MOL
REMARK 927      BINDING AFFINITY PREDICTED BY RF-SCORE:    0.00 PKD
ROOT
HETATM    1  C   UNL     1     -12.678  12.555  63.659  1.00  0.00    -0.398 C  
HETATM    2  C   UNL     1     -11.297  12.921  64.184  1.00  0.00    -0.393 C  
ENDROOT
BRANCH   2   3
HETATM    3  N   UNL     1     -10.970  12.159  65.396  1.00  0.00    -0.293 NA 
HETATM    4  C   UNL     1     -11.441  12.492  66.655  1.00  0.00    -0.359 C  
HETATM    5  C   UNL     1     -11.147  11.848  67.795  1.00  0.00    -0.295 C  
HETATM    6  C   UNL     1     -11.724  12.321  69.070  1.00  0.00    -0.324 C  
HETATM    7  C   UNL     1     -10.242  10.684  67.685  1.00  0.00    -0.194 C  
HETATM    8  O   UNL     1     -12.488  13.271  69.150  1.00  0.00    -0.073 OA 
HETATM    9  O   UNL     1     -11.336  11.615  70.156  1.00  0.00    -0.187 OA 
HETATM   10  O   UNL     1      -9.889  10.082  68.698  1.00  0.00    -0.151 OA 
HETATM   11  C   UNL     1      -9.789  10.265  66.343  1.00  0.00    -0.272 A  
HETATM   12  C   UNL     1     -10.162  11.011  65.221  1.00  0.00    -0.284 A  
HETATM   13  N   UNL     1      -9.758  10.642  63.981  1.00  0.00    -0.290 NA 
HETATM   14  C   UNL     1      -8.984   9.538  63.841  1.00  0.00    -0.179 A  
HETATM   15  C   UNL     1      -8.566   9.168  62.448  1.00  0.00    -0.226 C  
HETATM   16  C   UNL     1      -8.585   8.757  64.918  1.00  0.00    -0.177 A  
HETATM   17  C   UNL     1      -8.991   9.130  66.193  1.00  0.00    -0.211 A  
ENDBRANCH   2   3
TORSDOF 1
ENDMDL
MODEL       97
REMARK 921   NORMALIZED FREE ENERGY PREDICTED BY IDOCK:   -4.04 KCAL/MOL
REMARK 922        TOTAL FREE ENERGY PREDICTED BY IDOCK:   -4.40 KCAL/MOL
REMARK 923 INTER-LIGAND FREE ENERGY PREDICTED BY IDOCK:   -4.26 KCAL/MOL
REMARK 924 INTRA-LIGAND FREE ENERGY PREDICTED BY IDOCK:   -0.14 KCAL/MOL
REMARK 927      BINDING AFFINITY PREDICTED BY RF-SCORE:    0.00 PKD
ROOT
HETATM    1  C   UNL     1     -10.584   5.064  73.826  1.00  0.00    -0.330 C  
HETATM    2  C   UNL     1     -10.354   5.274  72.336  1.00  0.00    -0.209 C  
ENDROOT
BRANCH   2   3
HETATM    3  N   UNL     1     -10.581   6.673  71.955  1.00  0.00    -0.209 NA 
HETATM    4  C   UNL     1     -11.752   7.358  72.233  1.00  0.00    -0.286 C  
HETATM    5  C   UNL     1     -12.020   8.624  71.880  1.00  0.00    -0.424 C  
HETATM    6  C   UNL     1     -13.319   9.225  72.245  1.00  0.00    -0.477 C  
HETATM    7  C   UNL     1     -10.966   9.341  71.131  1.00  0.00    -0.339 C  
HETATM    8  O   UNL     1     -14.177   8.634  72.883  1.00  0.00    -0.419 OA 
HETATM    9  O   UNL     1     -13.490  10.494  71.812  1.00  0.00    -0.338 OA 
HETATM   10  O   UNL     1     -11.167  10.487  70.729  1.00  0.00    -0.300 OA 
HETATM   11  C   UNL     1      -9.680   8.656  70.889  1.00  0.00    -0.254 A  
HETATM   12  C   UNL     1      -9.511   7.332  71.307  1.00  0.00    -0.155 A  
HETATM   13  N   UNL     1      -8.337   6.687  71.097  1.00  0.00    -0.124 NA 
HETATM   14  C   UNL     1      -7.326   7.341  70.473  1.00  0.00    -0.074 A  
HETATM   15  C   UNL     1      -6.046   6.586  70.268  1.00  0.00    -0.031 C  
HETATM   16  C   UNL     1      -7.437   8.656  70.039  1.00  0.00    -0.056 A  
HETATM   17  C   UNL     1      -8.636   9.324  70.247  1.00  0.00    -0.234 A  
ENDBRANCH   2   3
TORSDOF 1
ENDMDL
MODEL       98
REMARK 921   NORMALIZED FREE ENERGY PREDICTED BY IDOCK:   -4.00 KCAL/MOL
REMARK 922        TOTAL FREE ENERGY PREDICTED BY IDOCK:   -4.36 KCAL/MOL
REMARK 923 INTER-LIGAND FREE ENERGY PREDICTED BY IDOCK:   -4.23 KCAL/MOL
REMARK 924 INTRA-LIGAND FREE ENERGY PREDICTED BY IDOCK:   -0.12 KCAL/MOL
REMARK 927      BINDING AFFINITY PREDICTED BY RF-SCORE:    0.00 PKD
ROOT
HETATM    1  C   UNL     1      -8.758   8.014  67.708  1.00  0.00    -0.127 C  
HETATM    2  C   UNL     1      -8.824   7.116  68.936  1.00  0.00    -0.130 C  
ENDROOT
BRANCH   2   3
HETATM    3  N   UNL     1      -9.856   7.573  69.875  1.00  0.00    -0.185 NA 
HETATM    4  C   UNL     1     -10.462   8.815  69.794  1.00  0.00    -0.219 C  
HETATM    5  C   UNL     1     -11.385   9.291  70.643  1.00  0.00    -0.330 C  
HETATM    6  C   UNL     1     -11.944  10.642  70.433  1.00  0.00    -0.346 C  
HETATM    7  C   UNL     1     -11.784   8.402  71.757  1.00  0.00    -0.310 C  
HETATM    8  O   UNL     1     -11.626  11.363  69.499  1.00  0.00    -0.272 OA 
HETATM    9  O   UNL     1     -12.843  11.028  71.366  1.00  0.00    -0.400 OA 
HETATM   10  O   UNL     1     -12.585   8.797  72.602  1.00  0.00    -0.371 OA 
HETATM   11  C   UNL     1     -11.206   7.044  71.818  1.00  0.00    -0.278 A  
HETATM   12  C   UNL     1     -10.251   6.654  70.874  1.00  0.00    -0.196 A  
HETATM   13  N   UNL     1      -9.712   5.411  70.912  1.00  0.00    -0.172 NA 
HETATM   14  C   UNL     1     -10.108   4.548  71.880  1.00  0.00    -0.188 A  
HETATM   15  C   UNL     1      -9.485   3.184  71.878  1.00  0.00    -0.210 C  
HETATM   16  C   UNL     1     -11.054   4.881  72.842  1.00  0.00    -0.329 A  
HETATM   17  C   UNL     1     -11.610   6.153  72.813  1.00  0.00    -0.171 A  
ENDBRANCH   2   3
TORSDOF 1
ENDMDL
MODEL       99
REMARK 921   NORMALIZED FREE ENERGY PREDICTED BY IDOCK:   -3.98 KCAL/MOL
REMARK 922        TOTAL FREE ENERGY PREDICTED BY IDOCK:   -4.34 KCAL/MOL
REMARK 923 INTER-LIGAND FREE ENERGY PREDICTED BY IDOCK:   -4.21 KCAL/MOL
REMARK 924 INTRA-LIGAND FREE ENERGY PREDICTED BY IDOCK:   -0.14 KCAL/MOL
REMARK 927      BINDING AFFINITY PREDICTED BY RF-SCORE:    0.00 PKD
ROOT
HETATM    1  C   UNL     1      -6.139  13.024  67.472  1.00  0.00    -0.129 C  
HETATM    2  C   UNL     1      -6.820  11.663  67.448  1.00  0.00    -0.114 C  
ENDROOT
BRANCH   2   3
HETATM    3  N   UNL     1      -8.277  11.794  67.579  1.00  0.00    -0.144 NA 
HETATM    4  C   UNL     1      -9.050  12.569  66.733  1.00  0.00    -0.214 C  
HETATM    5  C   UNL     1     -10.377  12.746  66.829  1.00  0.00    -0.248 C  
HETATM    6  C   UNL     1     -11.072  13.608  65.851  1.00  0.00    -0.284 C  
HETATM    7  C   UNL     1     -11.061  12.045  67.937  1.00  0.00    -0.236 C  
HETATM    8  O   UNL     1     -10.503  14.167  64.925  1.00  0.00    -0.404 OA 
HETATM    9  O   UNL     1     -12.400  13.737  66.063  1.00  0.00    -0.434 OA 
HETATM   10  O   UNL     1     -12.268  12.207  68.115  1.00  0.00    -0.388 OA 
HETATM   11  C   UNL     1     -10.267  11.152  68.805  1.00  0.00    -0.219 A  
HETATM   12  C   UNL     1      -8.887  11.042  68.610  1.00  0.00    -0.164 A  
HETATM   13  N   UNL     1      -8.142  10.226  69.395  1.00  0.00    -0.154 NA 
HETATM   14  C   UNL     1      -8.753   9.516  70.376  1.00  0.00    -0.223 A  
HETATM   15  C   UNL     1      -7.886   8.624  71.215  1.00  0.00    -0.156 C  
HETATM   16  C   UNL     1     -10.120   9.584  70.614  1.00  0.00    -0.353 A  
HETATM   17  C   UNL     1     -10.890  10.420  69.817  1.00  0.00    -0.342 A  
ENDBRANCH   2   3
TORSDOF 1
ENDMDL
MODEL      100
REMARK 921   NORMALIZED FREE ENERGY PREDICTED BY IDOCK:   -3.98 KCAL/MOL
REMARK 922        TOTAL FREE ENERGY PREDICTED BY IDOCK:   -4.34 KCAL/MOL
REMARK 923 INTER-LIGAND FREE ENERGY PREDICTED BY IDOCK:   -4.24 KCAL/MOL
REMARK 924 INTRA-LIGAND FREE ENERGY PREDICTED BY IDOCK:   -0.10 KCAL/MOL
REMARK 927      BINDING AFFINITY PREDICTED BY RF-SCORE:    0.00 PKD
ROOT
HETATM    1  C   UNL     1      -6.303  11.841  67.449  1.00  0.00    -0.114 C  
HETATM    2  C   UNL     1      -6.882  12.801  68.478  1.00  0.00    -0.094 C  
ENDROOT
BRANCH   2   3
HETATM    3  N   UNL     1      -7.538  13.944  67.830  1.00  0.00    -0.138 NA 
HETATM    4  C   UNL     1      -6.849  15.040  67.341  1.00  0.00    -0.111 C  
HETATM    5  C   UNL     1      -7.404  16.120  66.769  1.00  0.00    -0.220 C  
HETATM    6  C   UNL     1      -6.539  17.220  66.294  1.00  0.00    -0.213 C  
HETATM    7  C   UNL     1      -8.878  16.128  66.656  1.00  0.00    -0.264 C  
HETATM    8  O   UNL     1      -5.320  17.197  66.371  1.00  0.00    -0.265 OA 
HETATM    9  O   UNL     1      -7.207  18.268  65.763  1.00  0.00    -0.445 OA 
HETATM   10  O   UNL     1      -9.454  17.111  66.192  1.00  0.00    -0.378 OA 
HETATM   11  C   UNL     1      -9.627  14.936  67.103  1.00  0.00    -0.229 A  
HETATM   12  C   UNL     1      -8.942  13.863  67.682  1.00  0.00    -0.192 A  
HETATM   13  N   UNL     1      -9.612  12.760  68.095  1.00  0.00    -0.220 NA 
HETATM   14  C   UNL     1     -10.958  12.708  67.942  1.00  0.00    -0.230 A  
HETATM   15  C   UNL     1     -11.653  11.464  68.411  1.00  0.00    -0.385 C  
HETATM   16  C   UNL     1     -11.690  13.742  67.371  1.00  0.00    -0.417 A  
HETATM   17  C   UNL     1     -11.013  14.878  66.948  1.00  0.00    -0.327 A  
ENDBRANCH   2   3
TORSDOF 1
ENDMDL
MODEL      101
REMARK 921   NORMALIZED FREE ENERGY PREDICTED BY IDOCK:   -3.93 KCAL/MOL
REMARK 922        TOTAL FREE ENERGY PREDICTED BY IDOCK:   -4.29 KCAL/MOL
REMARK 923 INTER-LIGAND FREE ENERGY PREDICTED BY IDOCK:   -4.15 KCAL/MOL
REMARK 924 INTRA-LIGAND FREE ENERGY PREDICTED BY IDOCK:   -0.14 KCAL/MOL
REMARK 927      BINDING AFFINITY PREDICTED BY RF-SCORE:    0.00 PKD
ROOT
HETATM    1  C   UNL     1     -10.805  12.454  69.203  1.00  0.00    -0.148 C  
HETATM    2  C   UNL     1     -12.018  12.975  68.444  1.00  0.00    -0.271 C  
ENDROOT
BRANCH   2   3
HETATM    3  N   UNL     1     -11.678  14.160  67.647  1.00  0.00    -0.366 NA 
HETATM    4  C   UNL     1     -11.184  15.331  68.197  1.00  0.00    -0.324 C  
HETATM    5  C   UNL     1     -10.887  16.449  67.517  1.00  0.00    -0.249 C  
HETATM    6  C   UNL     1     -10.369  17.628  68.241  1.00  0.00    -0.384 C  
HETATM    7  C   UNL     1     -11.110  16.416  66.056  1.00  0.00     0.157 C  
HETATM    8  O   UNL     1     -10.167  17.641  69.446  1.00  0.00    -0.249 OA 
HETATM    9  O   UNL     1     -10.134  18.706  67.460  1.00  0.00    -0.326 OA 
HETATM   10  O   UNL     1     -10.911  17.425  65.380  1.00  0.00    -0.512 OA 
HETATM   11  C   UNL     1     -11.564  15.153  65.439  1.00  0.00    -0.171 A  
HETATM   12  C   UNL     1     -11.839  14.046  66.247  1.00  0.00    -0.411 A  
HETATM   13  N   UNL     1     -12.254  12.878  65.699  1.00  0.00    -0.473 NA 
HETATM   14  C   UNL     1     -12.402  12.796  64.354  1.00  0.00    -0.424 A  
HETATM   15  C   UNL     1     -12.859  11.480  63.795  1.00  0.00     0.097 C  
HETATM   16  C   UNL     1     -12.141  13.861  63.502  1.00  0.00    -0.135 A  
HETATM   17  C   UNL     1     -11.718  15.063  64.054  1.00  0.00     0.040 A  
ENDBRANCH   2   3
TORSDOF 1
ENDMDL
MODEL      102
REMARK 921   NORMALIZED FREE ENERGY PREDICTED BY IDOCK:   -3.92 KCAL/MOL
REMARK 922        TOTAL FREE ENERGY PREDICTED BY IDOCK:   -4.28 KCAL/MOL
REMARK 923 INTER-LIGAND FREE ENERGY PREDICTED BY IDOCK:   -4.15 KCAL/MOL
REMARK 924 INTRA-LIGAND FREE ENERGY PREDICTED BY IDOCK:   -0.13 KCAL/MOL
REMARK 927      BINDING AFFINITY PREDICTED BY RF-SCORE:    0.00 PKD
ROOT
HETATM    1  C   UNL     1     -12.125   8.499  72.275  1.00  0.00    -0.455 C  
HETATM    2  C   UNL     1     -11.299   9.161  71.181  1.00  0.00    -0.322 C  
ENDROOT
BRANCH   2   3
HETATM    3  N   UNL     1     -10.788   8.170  70.226  1.00  0.00    -0.243 NA 
HETATM    4  C   UNL     1     -10.553   6.846  70.555  1.00  0.00    -0.220 C  
HETATM    5  C   UNL     1     -10.059   5.911  69.730  1.00  0.00    -0.258 C  
HETATM    6  C   UNL     1      -9.858   4.533  70.223  1.00  0.00    -0.229 C  
HETATM    7  C   UNL     1      -9.744   6.343  68.351  1.00  0.00    -0.131 C  
HETATM    8  O   UNL     1     -10.141   4.178  71.358  1.00  0.00    -0.173 OA 
HETATM    9  O   UNL     1      -9.328   3.684  69.315  1.00  0.00    -0.150 OA 
HETATM   10  O   UNL     1      -9.237   5.549  67.559  1.00  0.00    -0.111 OA 
HETATM   11  C   UNL     1     -10.057   7.731  67.956  1.00  0.00    -0.227 A  
HETATM   12  C   UNL     1     -10.575   8.621  68.902  1.00  0.00    -0.144 A  
HETATM   13  N   UNL     1     -10.872   9.898  68.559  1.00  0.00    -0.231 NA 
HETATM   14  C   UNL     1     -10.658  10.305  67.283  1.00  0.00    -0.267 A  
HETATM   15  C   UNL     1     -11.006  11.726  66.951  1.00  0.00    -0.333 C  
HETATM   16  C   UNL     1     -10.149   9.464  66.301  1.00  0.00    -0.328 A  
HETATM   17  C   UNL     1      -9.839   8.155  66.645  1.00  0.00    -0.331 A  
ENDBRANCH   2   3
TORSDOF 1
ENDMDL
MODEL      103
REMARK 921   NORMALIZED FREE ENERGY PREDICTED BY IDOCK:   -3.89 KCAL/MOL
REMARK 922        TOTAL FREE ENERGY PREDICTED BY IDOCK:   -4.24 KCAL/MOL
REMARK 923 INTER-LIGAND FREE ENERGY PREDICTED BY IDOCK:   -4.11 KCAL/MOL
REMARK 924 INTRA-LIGAND FREE ENERGY PREDICTED BY IDOCK:   -0.13 KCAL/MOL
REMARK 927      BINDING AFFINITY PREDICTED BY RF-SCORE:    0.00 PKD
ROOT
HETATM    1  C   UNL     1     -12.110  14.469  69.585  1.00  0.00    -0.369 C  
HETATM    2  C   UNL     1     -11.637  15.427  68.501  1.00  0.00    -0.359 C  
ENDROOT
BRANCH   2   3
HETATM    3  N   UNL     1     -10.238  15.170  68.136  1.00  0.00    -0.225 NA 
HETATM    4  C   UNL     1      -9.745  13.908  67.853  1.00  0.00    -0.231 C  
HETATM    5  C   UNL     1      -8.472  13.617  67.545  1.00  0.00    -0.190 C  
HETATM    6  C   UNL     1      -8.089  12.217  67.269  1.00  0.00    -0.182 C  
HETATM    7  C   UNL     1      -7.522  14.750  67.508  1.00  0.00    -0.198 C  
HETATM    8  O   UNL     1      -8.883  11.288  67.280  1.00  0.00    -0.146 OA 
HETATM    9  O   UNL     1      -6.776  12.038  67.000  1.00  0.00    -0.143 OA 
HETATM   10  O   UNL     1      -6.330  14.546  67.287  1.00  0.00    -0.301 OA 
HETATM   11  C   UNL     1      -8.042  16.114  67.733  1.00  0.00    -0.157 A  
HETATM   12  C   UNL     1      -9.392  16.300  68.042  1.00  0.00    -0.214 A  
HETATM   13  N   UNL     1      -9.889  17.544  68.249  1.00  0.00    -0.301 NA 
HETATM   14  C   UNL     1      -9.056  18.611  68.153  1.00  0.00    -0.313 A  
HETATM   15  C   UNL     1      -9.653  19.967  68.387  1.00  0.00    -0.343 C  
HETATM   16  C   UNL     1      -7.707  18.487  67.846  1.00  0.00    -0.265 A  
HETATM   17  C   UNL     1      -7.190  17.215  67.636  1.00  0.00    -0.172 A  
ENDBRANCH   2   3
TORSDOF 1
ENDMDL
MODEL      104
REMARK 921   NORMALIZED FREE ENERGY PREDICTED BY IDOCK:   -3.89 KCAL/MOL
REMARK 922        TOTAL FREE ENERGY PREDICTED BY IDOCK:   -4.24 KCAL/MOL
REMARK 923 INTER-LIGAND FREE ENERGY PREDICTED BY IDOCK:   -4.11 KCAL/MOL
REMARK 924 INTRA-LIGAND FREE ENERGY PREDICTED BY IDOCK:   -0.12 KCAL/MOL
REMARK 927      BINDING AFFINITY PREDICTED BY RF-SCORE:    0.00 PKD
ROOT
HETATM    1  C   UNL     1      -5.880  13.732  67.778  1.00  0.00    -0.103 C  
HETATM    2  C   UNL     1      -7.129  12.971  67.358  1.00  0.00    -0.117 C  
ENDROOT
BRANCH   2   3
HETATM    3  N   UNL     1      -8.347  13.725  67.682  1.00  0.00    -0.168 NA 
HETATM    4  C   UNL     1      -8.380  15.104  67.794  1.00  0.00    -0.151 C  
HETATM    5  C   UNL     1      -9.457  15.837  68.117  1.00  0.00    -0.199 C  
HETATM    6  C   UNL     1      -9.342  17.307  68.203  1.00  0.00    -0.274 C  
HETATM    7  C   UNL     1     -10.711  15.096  68.371  1.00  0.00    -0.248 C  
HETATM    8  O   UNL     1      -8.307  17.914  67.970  1.00  0.00    -0.244 OA 
HETATM    9  O   UNL     1     -10.481  17.938  68.564  1.00  0.00    -0.361 OA 
HETATM   10  O   UNL     1     -11.722  15.701  68.725  1.00  0.00    -0.363 OA 
HETATM   11  C   UNL     1     -10.717  13.631  68.182  1.00  0.00    -0.260 A  
HETATM   12  C   UNL     1      -9.533  12.971  67.840  1.00  0.00    -0.219 A  
HETATM   13  N   UNL     1      -9.518  11.628  67.659  1.00  0.00    -0.174 NA 
HETATM   14  C   UNL     1     -10.669  10.928  67.818  1.00  0.00    -0.235 A  
HETATM   15  C   UNL     1     -10.603   9.445  67.604  1.00  0.00    -0.333 C  
HETATM   16  C   UNL     1     -11.875  11.530  68.155  1.00  0.00    -0.306 A  
HETATM   17  C   UNL     1     -11.898  12.906  68.344  1.00  0.00    -0.357 A  
ENDBRANCH   2   3
TORSDOF 1
ENDMDL
MODEL      105
REMARK 921   NORMALIZED FREE ENERGY PREDICTED BY IDOCK:   -3.88 KCAL/MOL
REMARK 922        TOTAL FREE ENERGY PREDICTED BY IDOCK:   -4.23 KCAL/MOL
REMARK 923 INTER-LIGAND FREE ENERGY PREDICTED BY IDOCK:   -4.09 KCAL/MOL
REMARK 924 INTRA-LIGAND FREE ENERGY PREDICTED BY IDOCK:   -0.13 KCAL/MOL
REMARK 927      BINDING AFFINITY PREDICTED BY RF-SCORE:    0.00 PKD
ROOT
HETATM    1  C   UNL     1      -9.902   5.347  72.227  1.00  0.00    -0.199 C  
HETATM    2  C   UNL     1     -10.715   5.721  70.995  1.00  0.00    -0.258 C  
ENDROOT
BRANCH   2   3
HETATM    3  N   UNL     1     -10.258   6.994  70.423  1.00  0.00    -0.195 NA 
HETATM    4  C   UNL     1      -9.113   7.115  69.654  1.00  0.00    -0.140 C  
HETATM    5  C   UNL     1      -8.637   8.257  69.135  1.00  0.00    -0.138 C  
HETATM    6  C   UNL     1      -7.396   8.235  68.334  1.00  0.00    -0.094 C  
HETATM    7  C   UNL     1      -9.412   9.486  69.413  1.00  0.00    -0.176 C  
HETATM    8  O   UNL     1      -6.773   7.212  68.090  1.00  0.00    -0.056 OA 
HETATM    9  O   UNL     1      -6.996   9.446  67.887  1.00  0.00    -0.078 OA 
HETATM   10  O   UNL     1      -9.002  10.575  69.013  1.00  0.00    -0.166 OA 
HETATM   11  C   UNL     1     -10.677   9.368  70.167  1.00  0.00    -0.282 A  
HETATM   12  C   UNL     1     -11.078   8.122  70.658  1.00  0.00    -0.254 A  
HETATM   13  N   UNL     1     -12.237   7.993  71.349  1.00  0.00    -0.306 NA 
HETATM   14  C   UNL     1     -13.004   9.090  71.561  1.00  0.00    -0.337 A  
HETATM   15  C   UNL     1     -14.279   8.895  72.328  1.00  0.00    -0.474 C  
HETATM   16  C   UNL     1     -12.658  10.352  71.095  1.00  0.00    -0.512 A  
HETATM   17  C   UNL     1     -11.471  10.494  70.388  1.00  0.00    -0.427 A  
ENDBRANCH   2   3
TORSDOF 1
ENDMDL
MODEL      106
REMARK 921   NORMALIZED FREE ENERGY PREDICTED BY IDOCK:   -3.86 KCAL/MOL
REMARK 922        TOTAL FREE ENERGY PREDICTED BY IDOCK:   -4.21 KCAL/MOL
REMARK 923 INTER-LIGAND FREE ENERGY PREDICTED BY IDOCK:   -4.30 KCAL/MOL
REMARK 924 INTRA-LIGAND FREE ENERGY PREDICTED BY IDOCK:    0.09 KCAL/MOL
REMARK 927      BINDING AFFINITY PREDICTED BY RF-SCORE:    0.00 PKD
ROOT
HETATM    1  C   UNL     1     -12.408  14.555  64.098  1.00  0.00    -0.317 C  
HETATM    2  C   UNL     1     -12.645  13.196  64.740  1.00  0.00    -0.364 C  
ENDROOT
BRANCH   2   3
HETATM    3  N   UNL     1     -11.384  12.592  65.189  1.00  0.00    -0.299 NA 
HETATM    4  C   UNL     1     -10.685  11.652  64.452  1.00  0.00    -0.330 C  
HETATM    5  C   UNL     1      -9.548  11.050  64.831  1.00  0.00    -0.289 C  
HETATM    6  C   UNL     1      -8.912  10.059  63.938  1.00  0.00    -0.242 C  
HETATM    7  C   UNL     1      -9.002  11.432  66.151  1.00  0.00    -0.201 C  
HETATM    8  O   UNL     1      -9.357   9.763  62.839  1.00  0.00    -0.273 OA 
HETATM    9  O   UNL     1      -7.789   9.495  64.435  1.00  0.00    -0.116 OA 
HETATM   10  O   UNL     1      -7.992  10.878  66.584  1.00  0.00    -0.135 OA 
HETATM   11  C   UNL     1      -9.690  12.489  66.921  1.00  0.00    -0.232 A  
HETATM   12  C   UNL     1     -10.870  13.051  66.424  1.00  0.00    -0.278 A  
HETATM   13  N   UNL     1     -11.514  14.024  67.114  1.00  0.00    -0.333 NA 
HETATM   14  C   UNL     1     -11.001  14.445  68.296  1.00  0.00    -0.247 A  
HETATM   15  C   UNL     1     -11.748  15.527  69.020  1.00  0.00    -0.392 C  
HETATM   16  C   UNL     1      -9.831  13.925  68.837  1.00  0.00    -0.041 A  
HETATM   17  C   UNL     1      -9.166  12.926  68.138  1.00  0.00    -0.212 A  
ENDBRANCH   2   3
TORSDOF 1
ENDMDL
MODEL      107
REMARK 921   NORMALIZED FREE ENERGY PREDICTED BY IDOCK:   -3.86 KCAL/MOL
REMARK 922        TOTAL FREE ENERGY PREDICTED BY IDOCK:   -4.21 KCAL/MOL
REMARK 923 INTER-LIGAND FREE ENERGY PREDICTED BY IDOCK:   -4.09 KCAL/MOL
REMARK 924 INTRA-LIGAND FREE ENERGY PREDICTED BY IDOCK:   -0.12 KCAL/MOL
REMARK 927      BINDING AFFINITY PREDICTED BY RF-SCORE:    0.00 PKD
ROOT
HETATM    1  C   UNL     1      -9.838   4.271  67.915  1.00  0.00    -0.120 C  
HETATM    2  C   UNL     1     -10.050   4.592  69.388  1.00  0.00    -0.124 C  
ENDROOT
BRANCH   2   3
HETATM    3  N   UNL     1     -10.184   6.038  69.603  1.00  0.00    -0.191 NA 
HETATM    4  C   UNL     1     -10.203   6.962  68.573  1.00  0.00    -0.177 C  
HETATM    5  C   UNL     1     -10.293   8.293  68.718  1.00  0.00    -0.223 C  
HETATM    6  C   UNL     1     -10.298   9.160  67.522  1.00  0.00    -0.261 C  
HETATM    7  C   UNL     1     -10.380   8.806  70.102  1.00  0.00    -0.208 C  
HETATM    8  O   UNL     1     -10.248   8.729  66.379  1.00  0.00    -0.289 OA 
HETATM    9  O   UNL     1     -10.362  10.483  67.789  1.00  0.00    -0.189 OA 
HETATM   10  O   UNL     1     -10.409  10.018  70.309  1.00  0.00    -0.273 OA 
HETATM   11  C   UNL     1     -10.438   7.833  71.213  1.00  0.00    -0.230 A  
HETATM   12  C   UNL     1     -10.340   6.465  70.942  1.00  0.00    -0.204 A  
HETATM   13  N   UNL     1     -10.394   5.557  71.948  1.00  0.00    -0.209 NA 
HETATM   14  C   UNL     1     -10.544   5.993  73.223  1.00  0.00    -0.256 A  
HETATM   15  C   UNL     1     -10.602   4.950  74.300  1.00  0.00    -0.321 C  
HETATM   16  C   UNL     1     -10.649   7.339  73.551  1.00  0.00    -0.408 A  
HETATM   17  C   UNL     1     -10.591   8.276  72.528  1.00  0.00    -0.407 A  
ENDBRANCH   2   3
TORSDOF 1
ENDMDL
MODEL      108
REMARK 921   NORMALIZED FREE ENERGY PREDICTED BY IDOCK:   -3.85 KCAL/MOL
REMARK 922        TOTAL FREE ENERGY PREDICTED BY IDOCK:   -4.20 KCAL/MOL
REMARK 923 INTER-LIGAND FREE ENERGY PREDICTED BY IDOCK:   -4.07 KCAL/MOL
REMARK 924 INTRA-LIGAND FREE ENERGY PREDICTED BY IDOCK:   -0.12 KCAL/MOL
REMARK 927      BINDING AFFINITY PREDICTED BY RF-SCORE:    0.00 PKD
ROOT
HETATM    1  C   UNL     1     -12.540  12.742  64.465  1.00  0.00    -0.463 C  
HETATM    2  C   UNL     1     -11.897  13.971  65.093  1.00  0.00    -0.365 C  
ENDROOT
BRANCH   2   3
HETATM    3  N   UNL     1     -10.749  13.601  65.931  1.00  0.00    -0.278 NA 
HETATM    4  C   UNL     1     -10.237  12.317  65.997  1.00  0.00    -0.243 C  
HETATM    5  C   UNL     1      -9.211  11.923  66.767  1.00  0.00    -0.194 C  
HETATM    6  C   UNL     1      -8.774  10.513  66.737  1.00  0.00    -0.132 C  
HETATM    7  C   UNL     1      -8.581  12.959  67.614  1.00  0.00    -0.182 C  
HETATM    8  O   UNL     1      -9.286   9.666  66.019  1.00  0.00    -0.158 OA 
HETATM    9  O   UNL     1      -7.754  10.224  67.575  1.00  0.00    -0.094 OA 
HETATM   10  O   UNL     1      -7.672  12.654  68.385  1.00  0.00    -0.126 OA 
HETATM   11  C   UNL     1      -9.062  14.351  67.502  1.00  0.00    -0.195 A  
HETATM   12  C   UNL     1     -10.138  14.648  66.661  1.00  0.00    -0.273 A  
HETATM   13  N   UNL     1     -10.592  15.920  66.543  1.00  0.00    -0.309 NA 
HETATM   14  C   UNL     1      -9.990  16.904  67.254  1.00  0.00    -0.277 A  
HETATM   15  C   UNL     1     -10.525  18.295  67.086  1.00  0.00    -0.417 C  
HETATM   16  C   UNL     1      -8.915  16.669  68.103  1.00  0.00    -0.210 A  
HETATM   17  C   UNL     1      -8.446  15.369  68.232  1.00  0.00    -0.159 A  
ENDBRANCH   2   3
TORSDOF 1
ENDMDL
MODEL      109
REMARK 921   NORMALIZED FREE ENERGY PREDICTED BY IDOCK:   -3.80 KCAL/MOL
REMARK 922        TOTAL FREE ENERGY PREDICTED BY IDOCK:   -4.15 KCAL/MOL
REMARK 923 INTER-LIGAND FREE ENERGY PREDICTED BY IDOCK:   -4.01 KCAL/MOL
REMARK 924 INTRA-LIGAND FREE ENERGY PREDICTED BY IDOCK:   -0.14 KCAL/MOL
REMARK 927      BINDING AFFINITY PREDICTED BY RF-SCORE:    0.00 PKD
ROOT
HETATM    1  C   UNL     1     -10.554   9.004  67.358  1.00  0.00    -0.309 C  
HETATM    2  C   UNL     1      -9.633   9.652  66.332  1.00  0.00    -0.210 C  
ENDROOT
BRANCH   2   3
HETATM    3  N   UNL     1      -9.206  10.987  66.768  1.00  0.00    -0.158 NA 
HETATM    4  C   UNL     1      -8.236  11.198  67.733  1.00  0.00    -0.119 C  
HETATM    5  C   UNL     1      -7.832  12.394  68.187  1.00  0.00    -0.146 C  
HETATM    6  C   UNL     1      -6.784  12.467  69.225  1.00  0.00    -0.067 C  
HETATM    7  C   UNL     1      -8.487  13.583  67.598  1.00  0.00    -0.184 C  
HETATM    8  O   UNL     1      -6.232  11.481  69.692  1.00  0.00    -0.096 OA 
HETATM    9  O   UNL     1      -6.479  13.720  69.628  1.00  0.00    -0.118 OA 
HETATM   10  O   UNL     1      -8.204  14.707  68.008  1.00  0.00    -0.131 OA 
HETATM   11  C   UNL     1      -9.470  13.383  66.514  1.00  0.00    -0.252 A  
HETATM   12  C   UNL     1      -9.812  12.087  66.118  1.00  0.00    -0.235 A  
HETATM   13  N   UNL     1     -10.710  11.883  65.123  1.00  0.00    -0.282 NA 
HETATM   14  C   UNL     1     -11.276  12.955  64.516  1.00  0.00    -0.336 A  
HETATM   15  C   UNL     1     -12.261  12.678  63.418  1.00  0.00    -0.610 C  
HETATM   16  C   UNL     1     -10.973  14.265  64.866  1.00  0.00    -0.413 A  
HETATM   17  C   UNL     1     -10.057  14.483  65.886  1.00  0.00    -0.346 A  
ENDBRANCH   2   3
TORSDOF 1
ENDMDL
MODEL      110
REMARK 921   NORMALIZED FREE ENERGY PREDICTED BY IDOCK:   -3.72 KCAL/MOL
REMARK 922        TOTAL FREE ENERGY PREDICTED BY IDOCK:   -4.06 KCAL/MOL
REMARK 923 INTER-LIGAND FREE ENERGY PREDICTED BY IDOCK:   -3.93 KCAL/MOL
REMARK 924 INTRA-LIGAND FREE ENERGY PREDICTED BY IDOCK:   -0.13 KCAL/MOL
REMARK 927      BINDING AFFINITY PREDICTED BY RF-SCORE:    0.00 PKD
ROOT
HETATM    1  C   UNL     1      -8.013  14.805  69.171  1.00  0.00    -0.133 C  
HETATM    2  C   UNL     1      -7.659  14.936  67.697  1.00  0.00    -0.182 C  
ENDROOT
BRANCH   2   3
HETATM    3  N   UNL     1      -8.585  14.168  66.856  1.00  0.00    -0.178 NA 
HETATM    4  C   UNL     1      -8.561  12.788  66.761  1.00  0.00    -0.078 C  
HETATM    5  C   UNL     1      -9.364  12.043  65.986  1.00  0.00    -0.196 C  
HETATM    6  C   UNL     1      -9.220  10.573  65.985  1.00  0.00    -0.176 C  
HETATM    7  C   UNL     1     -10.358  12.770  65.168  1.00  0.00    -0.295 C  
HETATM    8  O   UNL     1      -8.411   9.976  66.680  1.00  0.00    -0.124 OA 
HETATM    9  O   UNL     1     -10.061   9.928  65.145  1.00  0.00    -0.309 OA 
HETATM   10  O   UNL     1     -11.089  12.153  64.395  1.00  0.00    -0.301 OA 
HETATM   11  C   UNL     1     -10.453  14.238  65.311  1.00  0.00    -0.408 A  
HETATM   12  C   UNL     1      -9.564  14.911  66.154  1.00  0.00    -0.310 A  
HETATM   13  N   UNL     1      -9.636  16.256  66.301  1.00  0.00    -0.287 NA 
HETATM   14  C   UNL     1     -10.583  16.945  65.617  1.00  0.00    -0.221 A  
HETATM   15  C   UNL     1     -10.626  18.431  65.815  1.00  0.00    -0.236 C  
HETATM   16  C   UNL     1     -11.494  16.329  64.767  1.00  0.00    -0.121 A  
HETATM   17  C   UNL     1     -11.425  14.951  64.609  1.00  0.00    -0.380 A  
ENDBRANCH   2   3
TORSDOF 1
ENDMDL
MODEL      111
REMARK 921   NORMALIZED FREE ENERGY PREDICTED BY IDOCK:   -3.71 KCAL/MOL
REMARK 922        TOTAL FREE ENERGY PREDICTED BY IDOCK:   -4.05 KCAL/MOL
REMARK 923 INTER-LIGAND FREE ENERGY PREDICTED BY IDOCK:   -3.93 KCAL/MOL
REMARK 924 INTRA-LIGAND FREE ENERGY PREDICTED BY IDOCK:   -0.12 KCAL/MOL
REMARK 927      BINDING AFFINITY PREDICTED BY RF-SCORE:    0.00 PKD
ROOT
HETATM    1  C   UNL     1      -9.553   3.570  68.119  1.00  0.00    -0.164 C  
HETATM    2  C   UNL     1      -9.786   5.071  68.014  1.00  0.00    -0.151 C  
ENDROOT
BRANCH   2   3
HETATM    3  N   UNL     1     -10.113   5.651  69.322  1.00  0.00    -0.193 NA 
HETATM    4  C   UNL     1     -10.157   4.914  70.493  1.00  0.00    -0.242 C  
HETATM    5  C   UNL     1     -10.479   5.390  71.705  1.00  0.00    -0.288 C  
HETATM    6  C   UNL     1     -10.487   4.481  72.869  1.00  0.00    -0.190 C  
HETATM    7  C   UNL     1     -10.814   6.828  71.786  1.00  0.00    -0.229 C  
HETATM    8  O   UNL     1     -10.188   3.297  72.799  1.00  0.00    -0.150 OA 
HETATM    9  O   UNL     1     -10.856   5.062  74.032  1.00  0.00    -0.295 OA 
HETATM   10  O   UNL     1     -11.171   7.318  72.856  1.00  0.00    -0.310 OA 
HETATM   11  C   UNL     1     -10.700   7.650  70.563  1.00  0.00    -0.241 A  
HETATM   12  C   UNL     1     -10.350   7.045  69.352  1.00  0.00    -0.207 A  
HETATM   13  N   UNL     1     -10.237   7.783  68.220  1.00  0.00    -0.196 NA 
HETATM   14  C   UNL     1     -10.470   9.117  68.276  1.00  0.00    -0.208 A  
HETATM   15  C   UNL     1     -10.329   9.890  66.998  1.00  0.00    -0.303 C  
HETATM   16  C   UNL     1     -10.818   9.772  69.451  1.00  0.00    -0.256 A  
HETATM   17  C   UNL     1     -10.939   9.024  70.615  1.00  0.00    -0.308 A  
ENDBRANCH   2   3
TORSDOF 1
ENDMDL
MODEL      112
REMARK 921   NORMALIZED FREE ENERGY PREDICTED BY IDOCK:   -3.68 KCAL/MOL
REMARK 922        TOTAL FREE ENERGY PREDICTED BY IDOCK:   -4.02 KCAL/MOL
REMARK 923 INTER-LIGAND FREE ENERGY PREDICTED BY IDOCK:   -3.88 KCAL/MOL
REMARK 924 INTRA-LIGAND FREE ENERGY PREDICTED BY IDOCK:   -0.14 KCAL/MOL
REMARK 927      BINDING AFFINITY PREDICTED BY RF-SCORE:    0.00 PKD
ROOT
HETATM    1  C   UNL     1     -10.070   8.897  71.215  1.00  0.00    -0.365 C  
HETATM    2  C   UNL     1     -10.504   7.950  70.105  1.00  0.00    -0.231 C  
ENDROOT
BRANCH   2   3
HETATM    3  N   UNL     1     -10.331   8.564  68.783  1.00  0.00    -0.217 NA 
HETATM    4  C   UNL     1     -10.827   9.813  68.453  1.00  0.00    -0.201 C  
HETATM    5  C   UNL     1     -10.721  10.405  67.253  1.00  0.00    -0.331 C  
HETATM    6  C   UNL     1     -11.306  11.745  67.045  1.00  0.00    -0.321 C  
HETATM    7  C   UNL     1     -10.011   9.647  66.200  1.00  0.00    -0.276 C  
HETATM    8  O   UNL     1     -11.874  12.375  67.926  1.00  0.00    -0.351 OA 
HETATM    9  O   UNL     1     -11.166  12.229  65.791  1.00  0.00    -0.309 OA 
HETATM   10  O   UNL     1      -9.926  10.108  65.062  1.00  0.00    -0.322 OA 
HETATM   11  C   UNL     1      -9.407   8.346  66.552  1.00  0.00    -0.259 A  
HETATM   12  C   UNL     1      -9.578   7.828  67.839  1.00  0.00    -0.146 A  
HETATM   13  N   UNL     1      -9.029   6.636  68.182  1.00  0.00    -0.122 NA 
HETATM   14  C   UNL     1      -8.312   5.950  67.258  1.00  0.00    -0.105 A  
HETATM   15  C   UNL     1      -7.722   4.639  67.686  1.00  0.00    -0.086 C  
HETATM   16  C   UNL     1      -8.107   6.417  65.965  1.00  0.00    -0.120 A  
HETATM   17  C   UNL     1      -8.668   7.635  65.605  1.00  0.00    -0.119 A  
ENDBRANCH   2   3
TORSDOF 1
ENDMDL
MODEL      113
REMARK 921   NORMALIZED FREE ENERGY PREDICTED BY IDOCK:   -3.64 KCAL/MOL
REMARK 922        TOTAL FREE ENERGY PREDICTED BY IDOCK:   -3.97 KCAL/MOL
REMARK 923 INTER-LIGAND FREE ENERGY PREDICTED BY IDOCK:   -3.84 KCAL/MOL
REMARK 924 INTRA-LIGAND FREE ENERGY PREDICTED BY IDOCK:   -0.13 KCAL/MOL
REMARK 927      BINDING AFFINITY PREDICTED BY RF-SCORE:    0.00 PKD
ROOT
HETATM    1  C   UNL     1      -6.666  14.403  68.647  1.00  0.00    -0.090 C  
HETATM    2  C   UNL     1      -6.675  13.314  67.582  1.00  0.00    -0.166 C  
ENDROOT
BRANCH   2   3
HETATM    3  N   UNL     1      -8.046  12.956  67.199  1.00  0.00    -0.154 NA 
HETATM    4  C   UNL     1      -9.056  13.887  67.027  1.00  0.00    -0.250 C  
HETATM    5  C   UNL     1     -10.329  13.608  66.708  1.00  0.00    -0.268 C  
HETATM    6  C   UNL     1     -11.303  14.709  66.560  1.00  0.00    -0.353 C  
HETATM    7  C   UNL     1     -10.671  12.181  66.525  1.00  0.00    -0.255 C  
HETATM    8  O   UNL     1     -11.009  15.888  66.691  1.00  0.00    -0.262 OA 
HETATM    9  O   UNL     1     -12.561  14.310  66.267  1.00  0.00    -0.416 OA 
HETATM   10  O   UNL     1     -11.832  11.852  66.285  1.00  0.00    -0.546 OA 
HETATM   11  C   UNL     1      -9.592  11.178  66.629  1.00  0.00    -0.215 A  
HETATM   12  C   UNL     1      -8.297  11.584  66.964  1.00  0.00    -0.165 A  
HETATM   13  N   UNL     1      -7.293  10.679  67.061  1.00  0.00    -0.098 NA 
HETATM   14  C   UNL     1      -7.560   9.369  66.831  1.00  0.00    -0.091 A  
HETATM   15  C   UNL     1      -6.415   8.407  66.947  1.00  0.00    -0.057 C  
HETATM   16  C   UNL     1      -8.826   8.908  66.492  1.00  0.00    -0.160 A  
HETATM   17  C   UNL     1      -9.862   9.829  66.393  1.00  0.00    -0.298 A  
ENDBRANCH   2   3
TORSDOF 1
ENDMDL
MODEL      114
REMARK 921   NORMALIZED FREE ENERGY PREDICTED BY IDOCK:   -3.62 KCAL/MOL
REMARK 922        TOTAL FREE ENERGY PREDICTED BY IDOCK:   -3.96 KCAL/MOL
REMARK 923 INTER-LIGAND FREE ENERGY PREDICTED BY IDOCK:   -3.83 KCAL/MOL
REMARK 924 INTRA-LIGAND FREE ENERGY PREDICTED BY IDOCK:   -0.12 KCAL/MOL
REMARK 927      BINDING AFFINITY PREDICTED BY RF-SCORE:    0.00 PKD
ROOT
HETATM    1  C   UNL     1      -9.692  10.323  66.498  1.00  0.00    -0.243 C  
HETATM    2  C   UNL     1     -10.546   9.726  67.609  1.00  0.00    -0.276 C  
ENDROOT
BRANCH   2   3
HETATM    3  N   UNL     1     -10.290   8.289  67.762  1.00  0.00    -0.229 NA 
HETATM    4  C   UNL     1      -9.701   7.511  66.780  1.00  0.00    -0.216 C  
HETATM    5  C   UNL     1      -9.475   6.191  66.859  1.00  0.00    -0.151 C  
HETATM    6  C   UNL     1      -8.838   5.490  65.726  1.00  0.00    -0.153 C  
HETATM    7  C   UNL     1      -9.893   5.520  68.108  1.00  0.00    -0.143 C  
HETATM    8  O   UNL     1      -8.475   6.055  64.704  1.00  0.00    -0.106 OA 
HETATM    9  O   UNL     1      -8.687   4.159  65.904  1.00  0.00    -0.113 OA 
HETATM   10  O   UNL     1      -9.765   4.302  68.225  1.00  0.00    -0.151 OA 
HETATM   11  C   UNL     1     -10.453   6.343  69.199  1.00  0.00    -0.274 A  
HETATM   12  C   UNL     1     -10.641   7.715  69.006  1.00  0.00    -0.174 A  
HETATM   13  N   UNL     1     -11.152   8.488  69.996  1.00  0.00    -0.202 NA 
HETATM   14  C   UNL     1     -11.481   7.913  71.179  1.00  0.00    -0.273 A  
HETATM   15  C   UNL     1     -12.038   8.810  72.244  1.00  0.00    -0.423 C  
HETATM   16  C   UNL     1     -11.314   6.556  71.428  1.00  0.00    -0.344 A  
HETATM   17  C   UNL     1     -10.794   5.756  70.419  1.00  0.00    -0.360 A  
ENDBRANCH   2   3
TORSDOF 1
ENDMDL
MODEL      115
REMARK 921   NORMALIZED FREE ENERGY PREDICTED BY IDOCK:   -3.62 KCAL/MOL
REMARK 922        TOTAL FREE ENERGY PREDICTED BY IDOCK:   -3.95 KCAL/MOL
REMARK 923 INTER-LIGAND FREE ENERGY PREDICTED BY IDOCK:   -3.83 KCAL/MOL
REMARK 924 INTRA-LIGAND FREE ENERGY PREDICTED BY IDOCK:   -0.12 KCAL/MOL
REMARK 927      BINDING AFFINITY PREDICTED BY RF-SCORE:    0.00 PKD
ROOT
HETATM    1  C   UNL     1     -10.683   7.633  66.916  1.00  0.00    -0.271 C  
HETATM    2  C   UNL     1     -10.339   6.293  67.551  1.00  0.00    -0.200 C  
ENDROOT
BRANCH   2   3
HETATM    3  N   UNL     1     -10.565   6.318  69.002  1.00  0.00    -0.235 NA 
HETATM    4  C   UNL     1     -11.125   7.395  69.667  1.00  0.00    -0.111 C  
HETATM    5  C   UNL     1     -11.324   7.479  70.991  1.00  0.00    -0.292 C  
HETATM    6  C   UNL     1     -11.932   8.697  71.563  1.00  0.00    -0.306 C  
HETATM    7  C   UNL     1     -10.907   6.313  71.800  1.00  0.00    -0.248 C  
HETATM    8  O   UNL     1     -12.294   9.649  70.886  1.00  0.00    -0.299 OA 
HETATM    9  O   UNL     1     -12.057   8.683  72.909  1.00  0.00    -0.217 OA 
HETATM   10  O   UNL     1     -11.011   6.346  73.025  1.00  0.00    -0.252 OA 
HETATM   11  C   UNL     1     -10.378   5.123  71.103  1.00  0.00    -0.276 A  
HETATM   12  C   UNL     1     -10.217   5.147  69.714  1.00  0.00    -0.287 A  
HETATM   13  N   UNL     1      -9.736   4.064  69.057  1.00  0.00    -0.145 NA 
HETATM   14  C   UNL     1      -9.409   2.954  69.764  1.00  0.00    -0.137 A  
HETATM   15  C   UNL     1      -8.884   1.780  68.990  1.00  0.00    -0.128 C  
HETATM   16  C   UNL     1      -9.550   2.872  71.143  1.00  0.00    -0.226 A  
HETATM   17  C   UNL     1     -10.039   3.978  71.826  1.00  0.00    -0.199 A  
ENDBRANCH   2   3
TORSDOF 1
ENDMDL
MODEL      116
REMARK 921   NORMALIZED FREE ENERGY PREDICTED BY IDOCK:   -3.61 KCAL/MOL
REMARK 922        TOTAL FREE ENERGY PREDICTED BY IDOCK:   -3.94 KCAL/MOL
REMARK 923 INTER-LIGAND FREE ENERGY PREDICTED BY IDOCK:   -3.84 KCAL/MOL
REMARK 924 INTRA-LIGAND FREE ENERGY PREDICTED BY IDOCK:   -0.10 KCAL/MOL
REMARK 927      BINDING AFFINITY PREDICTED BY RF-SCORE:    0.00 PKD
ROOT
HETATM    1  C   UNL     1      -7.187   3.149  70.063  1.00  0.00    -0.041 C  
HETATM    2  C   UNL     1      -8.688   2.914  69.962  1.00  0.00    -0.069 C  
ENDROOT
BRANCH   2   3
HETATM    3  N   UNL     1      -9.434   4.171  70.103  1.00  0.00    -0.166 NA 
HETATM    4  C   UNL     1      -9.695   4.767  71.324  1.00  0.00    -0.178 C  
HETATM    5  C   UNL     1     -10.396   5.896  71.509  1.00  0.00    -0.273 C  
HETATM    6  C   UNL     1     -10.598   6.416  72.877  1.00  0.00    -0.235 C  
HETATM    7  C   UNL     1     -10.931   6.551  70.296  1.00  0.00    -0.310 C  
HETATM    8  O   UNL     1     -10.135   5.881  73.874  1.00  0.00    -0.194 OA 
HETATM    9  O   UNL     1     -11.344   7.541  72.945  1.00  0.00    -0.339 OA 
HETATM   10  O   UNL     1     -11.629   7.559  70.397  1.00  0.00    -0.246 OA 
HETATM   11  C   UNL     1     -10.601   5.973  68.977  1.00  0.00    -0.357 A  
HETATM   12  C   UNL     1      -9.856   4.792  68.905  1.00  0.00    -0.160 A  
HETATM   13  N   UNL     1      -9.541   4.247  67.704  1.00  0.00    -0.173 NA 
HETATM   14  C   UNL     1      -9.958   4.863  66.570  1.00  0.00    -0.232 A  
HETATM   15  C   UNL     1      -9.580   4.224  65.266  1.00  0.00    -0.186 C  
HETATM   16  C   UNL     1     -10.698   6.039  66.581  1.00  0.00    -0.315 A  
HETATM   17  C   UNL     1     -11.028   6.602  67.807  1.00  0.00    -0.367 A  
ENDBRANCH   2   3
TORSDOF 1
ENDMDL
MODEL      117
REMARK 921   NORMALIZED FREE ENERGY PREDICTED BY IDOCK:   -3.60 KCAL/MOL
REMARK 922        TOTAL FREE ENERGY PREDICTED BY IDOCK:   -3.93 KCAL/MOL
REMARK 923 INTER-LIGAND FREE ENERGY PREDICTED BY IDOCK:   -3.81 KCAL/MOL
REMARK 924 INTRA-LIGAND FREE ENERGY PREDICTED BY IDOCK:   -0.12 KCAL/MOL
REMARK 927      BINDING AFFINITY PREDICTED BY RF-SCORE:    0.00 PKD
ROOT
HETATM    1  C   UNL     1     -12.802  11.616  71.126  1.00  0.00    -0.392 C  
HETATM    2  C   UNL     1     -12.097  10.322  71.511  1.00  0.00    -0.314 C  
ENDROOT
BRANCH   2   3
HETATM    3  N   UNL     1     -11.219   9.853  70.432  1.00  0.00    -0.289 NA 
HETATM    4  C   UNL     1     -10.796  10.660  69.390  1.00  0.00    -0.246 C  
HETATM    5  C   UNL     1     -10.020  10.272  68.366  1.00  0.00    -0.173 C  
HETATM    6  C   UNL     1      -9.650  11.247  67.319  1.00  0.00    -0.173 C  
HETATM    7  C   UNL     1      -9.584   8.860  68.362  1.00  0.00    -0.146 C  
HETATM    8  O   UNL     1      -9.997  12.419  67.340  1.00  0.00    -0.200 OA 
HETATM    9  O   UNL     1      -8.892  10.739  66.323  1.00  0.00    -0.161 OA 
HETATM   10  O   UNL     1      -8.916   8.424  67.425  1.00  0.00    -0.132 OA 
HETATM   11  C   UNL     1      -9.960   8.001  69.504  1.00  0.00    -0.186 A  
HETATM   12  C   UNL     1     -10.771   8.515  70.520  1.00  0.00    -0.221 A  
HETATM   13  N   UNL     1     -11.125   7.743  71.577  1.00  0.00    -0.234 NA 
HETATM   14  C   UNL     1     -10.683   6.463  71.637  1.00  0.00    -0.232 A  
HETATM   15  C   UNL     1     -11.098   5.651  72.828  1.00  0.00    -0.334 C  
HETATM   16  C   UNL     1      -9.873   5.900  70.658  1.00  0.00    -0.230 A  
HETATM   17  C   UNL     1      -9.508   6.682  69.570  1.00  0.00    -0.148 A  
ENDBRANCH   2   3
TORSDOF 1
ENDMDL
MODEL      118
REMARK 921   NORMALIZED FREE ENERGY PREDICTED BY IDOCK:   -3.60 KCAL/MOL
REMARK 922        TOTAL FREE ENERGY PREDICTED BY IDOCK:   -3.93 KCAL/MOL
REMARK 923 INTER-LIGAND FREE ENERGY PREDICTED BY IDOCK:   -3.87 KCAL/MOL
REMARK 924 INTRA-LIGAND FREE ENERGY PREDICTED BY IDOCK:   -0.06 KCAL/MOL
REMARK 927      BINDING AFFINITY PREDICTED BY RF-SCORE:    0.00 PKD
ROOT
HETATM    1  C   UNL     1     -10.148   8.086  67.163  1.00  0.00    -0.334 C  
HETATM    2  C   UNL     1     -11.136   6.961  67.437  1.00  0.00    -0.252 C  
ENDROOT
BRANCH   2   3
HETATM    3  N   UNL     1     -10.530   5.910  68.263  1.00  0.00    -0.215 NA 
HETATM    4  C   UNL     1      -9.770   4.877  67.742  1.00  0.00    -0.157 C  
HETATM    5  C   UNL     1      -9.221   3.877  68.449  1.00  0.00    -0.210 C  
HETATM    6  C   UNL     1      -8.434   2.838  67.754  1.00  0.00    -0.086 C  
HETATM    7  C   UNL     1      -9.454   3.891  69.909  1.00  0.00    -0.197 C  
HETATM    8  O   UNL     1      -8.227   2.844  66.550  1.00  0.00    -0.084 OA 
HETATM    9  O   UNL     1      -7.955   1.865  68.561  1.00  0.00    -0.052 OA 
HETATM   10  O   UNL     1      -9.026   2.974  70.609  1.00  0.00    -0.077 OA 
HETATM   11  C   UNL     1     -10.198   5.024  70.495  1.00  0.00    -0.316 A  
HETATM   12  C   UNL     1     -10.723   6.015  69.660  1.00  0.00    -0.335 A  
HETATM   13  N   UNL     1     -11.406   7.065  70.179  1.00  0.00    -0.289 NA 
HETATM   14  C   UNL     1     -11.577   7.141  71.522  1.00  0.00    -0.278 A  
HETATM   15  C   UNL     1     -12.336   8.324  72.048  1.00  0.00    -0.395 C  
HETATM   16  C   UNL     1     -11.076   6.188  72.400  1.00  0.00    -0.316 A  
HETATM   17  C   UNL     1     -10.377   5.108  71.877  1.00  0.00    -0.275 A  
ENDBRANCH   2   3
TORSDOF 1
ENDMDL
MODEL      119
REMARK 921   NORMALIZED FREE ENERGY PREDICTED BY IDOCK:   -3.59 KCAL/MOL
REMARK 922        TOTAL FREE ENERGY PREDICTED BY IDOCK:   -3.93 KCAL/MOL
REMARK 923 INTER-LIGAND FREE ENERGY PREDICTED BY IDOCK:   -3.80 KCAL/MOL
REMARK 924 INTRA-LIGAND FREE ENERGY PREDICTED BY IDOCK:   -0.13 KCAL/MOL
REMARK 927      BINDING AFFINITY PREDICTED BY RF-SCORE:    0.00 PKD
ROOT
HETATM    1  C   UNL     1      -6.944   9.488  65.927  1.00  0.00    -0.091 C  
HETATM    2  C   UNL     1      -7.536  10.837  66.314  1.00  0.00    -0.142 C  
ENDROOT
BRANCH   2   3
HETATM    3  N   UNL     1      -8.647  10.678  67.261  1.00  0.00    -0.126 NA 
HETATM    4  C   UNL     1      -8.698   9.675  68.213  1.00  0.00    -0.120 C  
HETATM    5  C   UNL     1      -9.701   9.470  69.080  1.00  0.00    -0.170 C  
HETATM    6  C   UNL     1      -9.619   8.352  70.042  1.00  0.00    -0.168 C  
HETATM    7  C   UNL     1     -10.846  10.403  69.002  1.00  0.00    -0.234 C  
HETATM    8  O   UNL     1      -8.660   7.598  70.115  1.00  0.00    -0.137 OA 
HETATM    9  O   UNL     1     -10.699   8.223  70.844  1.00  0.00    -0.211 OA 
HETATM   10  O   UNL     1     -11.824  10.238  69.730  1.00  0.00    -0.221 OA 
HETATM   11  C   UNL     1     -10.779  11.526  68.045  1.00  0.00    -0.241 A  
HETATM   12  C   UNL     1      -9.678  11.644  67.191  1.00  0.00    -0.181 A  
HETATM   13  N   UNL     1      -9.596  12.669  66.308  1.00  0.00    -0.255 NA 
HETATM   14  C   UNL     1     -10.599  13.581  66.261  1.00  0.00    -0.288 A  
HETATM   15  C   UNL     1     -10.460  14.699  65.270  1.00  0.00    -0.420 C  
HETATM   16  C   UNL     1     -11.714  13.515  67.086  1.00  0.00    -0.419 A  
HETATM   17  C   UNL     1     -11.808  12.467  67.992  1.00  0.00    -0.376 A  
ENDBRANCH   2   3
TORSDOF 1
ENDMDL
MODEL      120
REMARK 921   NORMALIZED FREE ENERGY PREDICTED BY IDOCK:   -3.59 KCAL/MOL
REMARK 922        TOTAL FREE ENERGY PREDICTED BY IDOCK:   -3.92 KCAL/MOL
REMARK 923 INTER-LIGAND FREE ENERGY PREDICTED BY IDOCK:   -3.81 KCAL/MOL
REMARK 924 INTRA-LIGAND FREE ENERGY PREDICTED BY IDOCK:   -0.11 KCAL/MOL
REMARK 927      BINDING AFFINITY PREDICTED BY RF-SCORE:    0.00 PKD
ROOT
HETATM    1  C   UNL     1      -6.842  20.061  70.073  1.00  0.00    -0.125 C  
HETATM    2  C   UNL     1      -6.388  19.365  68.797  1.00  0.00    -0.254 C  
ENDROOT
BRANCH   2   3
HETATM    3  N   UNL     1      -6.910  17.995  68.724  1.00  0.00    -0.251 NA 
HETATM    4  C   UNL     1      -6.364  16.934  69.425  1.00  0.00    -0.231 C  
HETATM    5  C   UNL     1      -6.783  15.661  69.370  1.00  0.00    -0.180 C  
HETATM    6  C   UNL     1      -6.098  14.629  70.175  1.00  0.00    -0.158 C  
HETATM    7  C   UNL     1      -7.930  15.379  68.480  1.00  0.00    -0.140 C  
HETATM    8  O   UNL     1      -5.164  14.873  70.925  1.00  0.00    -0.122 OA 
HETATM    9  O   UNL     1      -6.586  13.379  70.017  1.00  0.00    -0.016 OA 
HETATM   10  O   UNL     1      -8.331  14.224  68.340  1.00  0.00    -0.152 OA 
HETATM   11  C   UNL     1      -8.577  16.508  67.781  1.00  0.00    -0.180 A  
HETATM   12  C   UNL     1      -8.055  17.798  67.917  1.00  0.00    -0.235 A  
HETATM   13  N   UNL     1      -8.635  18.848  67.286  1.00  0.00    -0.275 NA 
HETATM   14  C   UNL     1      -9.731  18.632  66.517  1.00  0.00    -0.351 A  
HETATM   15  C   UNL     1     -10.340  19.826  65.843  1.00  0.00    -0.582 C  
HETATM   16  C   UNL     1     -10.295  17.373  66.348  1.00  0.00    -0.317 A  
HETATM   17  C   UNL     1      -9.705  16.291  66.989  1.00  0.00    -0.244 A  
ENDBRANCH   2   3
TORSDOF 1
ENDMDL
MODEL      121
REMARK 921   NORMALIZED FREE ENERGY PREDICTED BY IDOCK:   -3.56 KCAL/MOL
REMARK 922        TOTAL FREE ENERGY PREDICTED BY IDOCK:   -3.90 KCAL/MOL
REMARK 923 INTER-LIGAND FREE ENERGY PREDICTED BY IDOCK:   -3.76 KCAL/MOL
REMARK 924 INTRA-LIGAND FREE ENERGY PREDICTED BY IDOCK:   -0.13 KCAL/MOL
REMARK 927      BINDING AFFINITY PREDICTED BY RF-SCORE:    0.00 PKD
ROOT
HETATM    1  C   UNL     1     -12.313  10.519  70.843  1.00  0.00    -0.490 C  
HETATM    2  C   UNL     1     -12.189  11.567  69.746  1.00  0.00    -0.244 C  
ENDROOT
BRANCH   2   3
HETATM    3  N   UNL     1     -11.144  11.205  68.781  1.00  0.00    -0.214 NA 
HETATM    4  C   UNL     1     -11.038   9.950  68.207  1.00  0.00    -0.150 C  
HETATM    5  C   UNL     1     -10.086   9.561  67.345  1.00  0.00    -0.262 C  
HETATM    6  C   UNL     1     -10.099   8.183  66.815  1.00  0.00    -0.295 C  
HETATM    7  C   UNL     1      -9.067  10.570  66.984  1.00  0.00    -0.143 C  
HETATM    8  O   UNL     1     -10.956   7.360  67.102  1.00  0.00    -0.312 OA 
HETATM    9  O   UNL     1      -9.076   7.894  65.980  1.00  0.00    -0.174 OA 
HETATM   10  O   UNL     1      -8.135  10.264  66.241  1.00  0.00    -0.121 OA 
HETATM   11  C   UNL     1      -9.204  11.938  67.524  1.00  0.00    -0.177 A  
HETATM   12  C   UNL     1     -10.242  12.231  68.414  1.00  0.00    -0.217 A  
HETATM   13  N   UNL     1     -10.386  13.481  68.919  1.00  0.00    -0.155 NA 
HETATM   14  C   UNL     1      -9.507  14.446  68.551  1.00  0.00    -0.212 A  
HETATM   15  C   UNL     1      -9.710  15.814  69.134  1.00  0.00    -0.250 C  
HETATM   16  C   UNL     1      -8.459  14.213  67.670  1.00  0.00    -0.189 A  
HETATM   17  C   UNL     1      -8.302  12.935  67.150  1.00  0.00    -0.158 A  
ENDBRANCH   2   3
TORSDOF 1
ENDMDL
MODEL      122
REMARK 921   NORMALIZED FREE ENERGY PREDICTED BY IDOCK:   -3.52 KCAL/MOL
REMARK 922        TOTAL FREE ENERGY PREDICTED BY IDOCK:   -3.85 KCAL/MOL
REMARK 923 INTER-LIGAND FREE ENERGY PREDICTED BY IDOCK:   -3.72 KCAL/MOL
REMARK 924 INTRA-LIGAND FREE ENERGY PREDICTED BY IDOCK:   -0.12 KCAL/MOL
REMARK 927      BINDING AFFINITY PREDICTED BY RF-SCORE:    0.00 PKD
ROOT
HETATM    1  C   UNL     1      -9.725   4.124  69.830  1.00  0.00    -0.278 C  
HETATM    2  C   UNL     1     -10.497   5.392  70.164  1.00  0.00    -0.290 C  
ENDROOT
BRANCH   2   3
HETATM    3  N   UNL     1     -10.235   6.450  69.180  1.00  0.00    -0.171 NA 
HETATM    4  C   UNL     1      -9.609   6.222  67.967  1.00  0.00    -0.115 C  
HETATM    5  C   UNL     1      -9.319   7.157  67.049  1.00  0.00    -0.181 C  
HETATM    6  C   UNL     1      -8.642   6.765  65.795  1.00  0.00    -0.137 C  
HETATM    7  C   UNL     1      -9.709   8.547  67.371  1.00  0.00    -0.170 C  
HETATM    8  O   UNL     1      -8.342   5.611  65.526  1.00  0.00    -0.126 OA 
HETATM    9  O   UNL     1      -8.374   7.793  64.959  1.00  0.00    -0.142 OA 
HETATM   10  O   UNL     1      -9.424   9.460  66.598  1.00  0.00    -0.156 OA 
HETATM   11  C   UNL     1     -10.446   8.800  68.625  1.00  0.00    -0.213 A  
HETATM   12  C   UNL     1     -10.697   7.746  69.508  1.00  0.00    -0.198 A  
HETATM   13  N   UNL     1     -11.374   7.958  70.663  1.00  0.00    -0.273 NA 
HETATM   14  C   UNL     1     -11.806   9.210  70.954  1.00  0.00    -0.270 A  
HETATM   15  C   UNL     1     -12.554   9.394  72.241  1.00  0.00    -0.378 C  
HETATM   16  C   UNL     1     -11.588  10.295  70.114  1.00  0.00    -0.376 A  
HETATM   17  C   UNL     1     -10.892  10.087  68.930  1.00  0.00    -0.250 A  
ENDBRANCH   2   3
TORSDOF 1
ENDMDL
MODEL      123
REMARK 921   NORMALIZED FREE ENERGY PREDICTED BY IDOCK:   -3.50 KCAL/MOL
REMARK 922        TOTAL FREE ENERGY PREDICTED BY IDOCK:   -3.83 KCAL/MOL
REMARK 923 INTER-LIGAND FREE ENERGY PREDICTED BY IDOCK:   -3.70 KCAL/MOL
REMARK 924 INTRA-LIGAND FREE ENERGY PREDICTED BY IDOCK:   -0.13 KCAL/MOL
REMARK 927      BINDING AFFINITY PREDICTED BY RF-SCORE:    0.00 PKD
ROOT
HETATM    1  C   UNL     1     -10.516  12.113  67.938  1.00  0.00    -0.224 C  
HETATM    2  C   UNL     1     -10.740  10.707  67.400  1.00  0.00    -0.276 C  
ENDROOT
BRANCH   2   3
HETATM    3  N   UNL     1     -10.676   9.709  68.475  1.00  0.00    -0.217 NA 
HETATM    4  C   UNL     1     -11.345   9.844  69.679  1.00  0.00    -0.165 C  
HETATM    5  C   UNL     1     -11.295   8.978  70.703  1.00  0.00    -0.311 C  
HETATM    6  C   UNL     1     -12.063   9.256  71.934  1.00  0.00    -0.370 C  
HETATM    7  C   UNL     1     -10.451   7.778  70.516  1.00  0.00    -0.217 C  
HETATM    8  O   UNL     1     -12.776  10.239  72.073  1.00  0.00    -0.401 OA 
HETATM    9  O   UNL     1     -11.914   8.331  72.908  1.00  0.00    -0.316 OA 
HETATM   10  O   UNL     1     -10.317   6.971  71.435  1.00  0.00    -0.198 OA 
HETATM   11  C   UNL     1      -9.789   7.576  69.211  1.00  0.00    -0.170 A  
HETATM   12  C   UNL     1      -9.915   8.546  68.212  1.00  0.00    -0.184 A  
HETATM   13  N   UNL     1      -9.317   8.378  67.007  1.00  0.00    -0.151 NA 
HETATM   14  C   UNL     1      -8.593   7.254  66.782  1.00  0.00    -0.127 A  
HETATM   15  C   UNL     1      -7.954   7.112  65.431  1.00  0.00    -0.125 C  
HETATM   16  C   UNL     1      -8.436   6.256  67.735  1.00  0.00    -0.116 A  
HETATM   17  C   UNL     1      -9.041   6.422  68.973  1.00  0.00    -0.130 A  
ENDBRANCH   2   3
TORSDOF 1
ENDMDL
MODEL      124
REMARK 921   NORMALIZED FREE ENERGY PREDICTED BY IDOCK:   -3.44 KCAL/MOL
REMARK 922        TOTAL FREE ENERGY PREDICTED BY IDOCK:   -3.77 KCAL/MOL
REMARK 923 INTER-LIGAND FREE ENERGY PREDICTED BY IDOCK:   -3.64 KCAL/MOL
REMARK 924 INTRA-LIGAND FREE ENERGY PREDICTED BY IDOCK:   -0.13 KCAL/MOL
REMARK 927      BINDING AFFINITY PREDICTED BY RF-SCORE:    0.00 PKD
ROOT
HETATM    1  C   UNL     1      -6.999   7.909  65.956  1.00  0.00    -0.061 C  
HETATM    2  C   UNL     1      -8.403   8.437  65.690  1.00  0.00    -0.154 C  
ENDROOT
BRANCH   2   3
HETATM    3  N   UNL     1      -9.117   8.702  66.945  1.00  0.00    -0.139 NA 
HETATM    4  C   UNL     1      -8.939   7.953  68.096  1.00  0.00    -0.131 C  
HETATM    5  C   UNL     1      -9.588   8.135  69.255  1.00  0.00    -0.164 C  
HETATM    6  C   UNL     1      -9.295   7.252  70.403  1.00  0.00    -0.158 C  
HETATM    7  C   UNL     1     -10.577   9.234  69.297  1.00  0.00    -0.222 C  
HETATM    8  O   UNL     1      -8.461   6.359  70.369  1.00  0.00    -0.127 OA 
HETATM    9  O   UNL     1     -10.030   7.508  71.509  1.00  0.00    -0.177 OA 
HETATM   10  O   UNL     1     -11.247   9.420  70.312  1.00  0.00    -0.245 OA 
HETATM   11  C   UNL     1     -10.728  10.093  68.105  1.00  0.00    -0.285 A  
HETATM   12  C   UNL     1      -9.994   9.811  66.950  1.00  0.00    -0.211 A  
HETATM   13  N   UNL     1     -10.117  10.590  65.847  1.00  0.00    -0.253 NA 
HETATM   14  C   UNL     1     -10.965  11.648  65.877  1.00  0.00    -0.280 A  
HETATM   15  C   UNL     1     -11.063  12.482  64.634  1.00  0.00    -0.343 C  
HETATM   16  C   UNL     1     -11.717  11.977  66.998  1.00  0.00    -0.341 A  
HETATM   17  C   UNL     1     -11.600  11.183  68.131  1.00  0.00    -0.350 A  
ENDBRANCH   2   3
TORSDOF 1
ENDMDL
MODEL      125
REMARK 921   NORMALIZED FREE ENERGY PREDICTED BY IDOCK:   -3.44 KCAL/MOL
REMARK 922        TOTAL FREE ENERGY PREDICTED BY IDOCK:   -3.76 KCAL/MOL
REMARK 923 INTER-LIGAND FREE ENERGY PREDICTED BY IDOCK:   -3.63 KCAL/MOL
REMARK 924 INTRA-LIGAND FREE ENERGY PREDICTED BY IDOCK:   -0.13 KCAL/MOL
REMARK 927      BINDING AFFINITY PREDICTED BY RF-SCORE:    0.00 PKD
ROOT
HETATM    1  C   UNL     1      -7.192   6.933  68.573  1.00  0.00    -0.084 C  
HETATM    2  C   UNL     1      -7.609   8.302  69.093  1.00  0.00    -0.088 C  
ENDROOT
BRANCH   2   3
HETATM    3  N   UNL     1      -8.946   8.256  69.698  1.00  0.00    -0.148 NA 
HETATM    4  C   UNL     1      -9.408   7.184  70.443  1.00  0.00    -0.159 C  
HETATM    5  C   UNL     1     -10.629   7.081  70.990  1.00  0.00    -0.239 C  
HETATM    6  C   UNL     1     -10.985   5.872  71.759  1.00  0.00    -0.269 C  
HETATM    7  C   UNL     1     -11.551   8.217  70.774  1.00  0.00    -0.236 C  
HETATM    8  O   UNL     1     -10.211   4.946  71.952  1.00  0.00    -0.192 OA 
HETATM    9  O   UNL     1     -12.249   5.864  72.237  1.00  0.00    -0.245 OA 
HETATM   10  O   UNL     1     -12.703   8.164  71.201  1.00  0.00    -0.243 OA 
HETATM   11  C   UNL     1     -11.053   9.403  70.048  1.00  0.00    -0.248 A  
HETATM   12  C   UNL     1      -9.757   9.401  69.523  1.00  0.00    -0.183 A  
HETATM   13  N   UNL     1      -9.281  10.481  68.856  1.00  0.00    -0.176 NA 
HETATM   14  C   UNL     1     -10.079  11.566  68.701  1.00  0.00    -0.207 A  
HETATM   15  C   UNL     1      -9.505  12.737  67.960  1.00  0.00    -0.213 C  
HETATM   16  C   UNL     1     -11.373  11.625  69.203  1.00  0.00    -0.345 A  
HETATM   17  C   UNL     1     -11.870  10.522  69.885  1.00  0.00    -0.358 A  
ENDBRANCH   2   3
TORSDOF 1
ENDMDL
MODEL      126
REMARK 921   NORMALIZED FREE ENERGY PREDICTED BY IDOCK:   -3.39 KCAL/MOL
REMARK 922        TOTAL FREE ENERGY PREDICTED BY IDOCK:   -3.71 KCAL/MOL
REMARK 923 INTER-LIGAND FREE ENERGY PREDICTED BY IDOCK:   -3.59 KCAL/MOL
REMARK 924 INTRA-LIGAND FREE ENERGY PREDICTED BY IDOCK:   -0.12 KCAL/MOL
REMARK 927      BINDING AFFINITY PREDICTED BY RF-SCORE:    0.00 PKD
ROOT
HETATM    1  C   UNL     1     -10.948  16.129  64.980  1.00  0.00    -0.357 C  
HETATM    2  C   UNL     1      -9.841  16.528  65.946  1.00  0.00    -0.295 C  
ENDROOT
BRANCH   2   3
HETATM    3  N   UNL     1      -9.316  15.361  66.665  1.00  0.00    -0.243 NA 
HETATM    4  C   UNL     1      -9.691  14.059  66.381  1.00  0.00    -0.296 C  
HETATM    5  C   UNL     1      -9.264  12.963  67.027  1.00  0.00    -0.226 C  
HETATM    6  C   UNL     1      -9.755  11.633  66.613  1.00  0.00    -0.202 C  
HETATM    7  C   UNL     1      -8.309  13.177  68.135  1.00  0.00    -0.161 C  
HETATM    8  O   UNL     1     -10.528  11.462  65.682  1.00  0.00    -0.249 OA 
HETATM    9  O   UNL     1      -9.282  10.606  67.353  1.00  0.00    -0.143 OA 
HETATM   10  O   UNL     1      -7.920  12.220  68.805  1.00  0.00    -0.087 OA 
HETATM   11  C   UNL     1      -7.836  14.550  68.406  1.00  0.00    -0.135 A  
HETATM   12  C   UNL     1      -8.349  15.618  67.665  1.00  0.00    -0.155 A  
HETATM   13  N   UNL     1      -7.925  16.885  67.897  1.00  0.00    -0.180 NA 
HETATM   14  C   UNL     1      -6.998  17.105  68.861  1.00  0.00    -0.232 A  
HETATM   15  C   UNL     1      -6.559  18.523  69.077  1.00  0.00    -0.277 C  
HETATM   16  C   UNL     1      -6.452  16.082  69.627  1.00  0.00    -0.190 A  
HETATM   17  C   UNL     1      -6.882  14.782  69.398  1.00  0.00    -0.162 A  
ENDBRANCH   2   3
TORSDOF 1
ENDMDL
MODEL      127
REMARK 921   NORMALIZED FREE ENERGY PREDICTED BY IDOCK:   -3.31 KCAL/MOL
REMARK 922        TOTAL FREE ENERGY PREDICTED BY IDOCK:   -3.62 KCAL/MOL
REMARK 923 INTER-LIGAND FREE ENERGY PREDICTED BY IDOCK:   -3.49 KCAL/MOL
REMARK 924 INTRA-LIGAND FREE ENERGY PREDICTED BY IDOCK:   -0.13 KCAL/MOL
REMARK 927      BINDING AFFINITY PREDICTED BY RF-SCORE:    0.00 PKD
ROOT
HETATM    1  C   UNL     1      -7.547   4.276  68.510  1.00  0.00    -0.063 C  
HETATM    2  C   UNL     1      -8.902   3.870  69.071  1.00  0.00    -0.102 C  
ENDROOT
BRANCH   2   3
HETATM    3  N   UNL     1      -9.582   5.010  69.698  1.00  0.00    -0.153 NA 
HETATM    4  C   UNL     1      -9.773   6.225  69.064  1.00  0.00    -0.130 C  
HETATM    5  C   UNL     1     -10.359   7.305  69.603  1.00  0.00    -0.227 C  
HETATM    6  C   UNL     1     -10.492   8.540  68.804  1.00  0.00    -0.184 C  
HETATM    7  C   UNL     1     -10.839   7.173  70.996  1.00  0.00    -0.240 C  
HETATM    8  O   UNL     1     -10.112   8.635  67.646  1.00  0.00    -0.185 OA 
HETATM    9  O   UNL     1     -11.070   9.572  69.459  1.00  0.00    -0.223 OA 
HETATM   10  O   UNL     1     -11.336   8.142  71.569  1.00  0.00    -0.248 OA 
HETATM   11  C   UNL     1     -10.714   5.863  71.665  1.00  0.00    -0.308 A  
HETATM   12  C   UNL     1     -10.087   4.803  71.003  1.00  0.00    -0.199 A  
HETATM   13  N   UNL     1      -9.965   3.592  71.600  1.00  0.00    -0.157 NA 
HETATM   14  C   UNL     1     -10.458   3.420  72.851  1.00  0.00    -0.153 A  
HETATM   15  C   UNL     1     -10.302   2.061  73.467  1.00  0.00    -0.191 C  
HETATM   16  C   UNL     1     -11.092   4.436  73.556  1.00  0.00    -0.388 A  
HETATM   17  C   UNL     1     -11.219   5.680  72.954  1.00  0.00    -0.338 A  
ENDBRANCH   2   3
TORSDOF 1
ENDMDL
MODEL      128
REMARK 921   NORMALIZED FREE ENERGY PREDICTED BY IDOCK:   -3.29 KCAL/MOL
REMARK 922        TOTAL FREE ENERGY PREDICTED BY IDOCK:   -3.61 KCAL/MOL
REMARK 923 INTER-LIGAND FREE ENERGY PREDICTED BY IDOCK:   -3.48 KCAL/MOL
REMARK 924 INTRA-LIGAND FREE ENERGY PREDICTED BY IDOCK:   -0.13 KCAL/MOL
REMARK 927      BINDING AFFINITY PREDICTED BY RF-SCORE:    0.00 PKD
ROOT
HETATM    1  C   UNL     1     -10.240   6.282  72.256  1.00  0.00    -0.209 C  
HETATM    2  C   UNL     1     -10.712   5.863  70.870  1.00  0.00    -0.273 C  
ENDROOT
BRANCH   2   3
HETATM    3  N   UNL     1     -10.670   6.990  69.930  1.00  0.00    -0.232 NA 
HETATM    4  C   UNL     1     -11.123   8.260  70.244  1.00  0.00    -0.219 C  
HETATM    5  C   UNL     1     -11.135   9.313  69.412  1.00  0.00    -0.063 C  
HETATM    6  C   UNL     1     -11.653  10.613  69.886  1.00  0.00    -0.316 C  
HETATM    7  C   UNL     1     -10.615   9.086  68.046  1.00  0.00    -0.186 C  
HETATM    8  O   UNL     1     -12.062  10.799  71.023  1.00  0.00    -0.341 OA 
HETATM    9  O   UNL     1     -11.644  11.592  68.955  1.00  0.00    -0.259 OA 
HETATM   10  O   UNL     1     -10.648   9.994  67.217  1.00  0.00    -0.244 OA 
HETATM   11  C   UNL     1     -10.057   7.760  67.715  1.00  0.00    -0.242 A  
HETATM   12  C   UNL     1     -10.094   6.734  68.664  1.00  0.00    -0.159 A  
HETATM   13  N   UNL     1      -9.583   5.511  68.380  1.00  0.00    -0.118 NA 
HETATM   14  C   UNL     1      -9.037   5.292  67.158  1.00  0.00    -0.112 A  
HETATM   15  C   UNL     1      -8.482   3.923  66.893  1.00  0.00    -0.104 C  
HETATM   16  C   UNL     1      -8.970   6.273  66.177  1.00  0.00    -0.164 A  
HETATM   17  C   UNL     1      -9.493   7.528  66.459  1.00  0.00    -0.237 A  
ENDBRANCH   2   3
TORSDOF 1
ENDMDL
MODEL      129
REMARK 921   NORMALIZED FREE ENERGY PREDICTED BY IDOCK:   -3.23 KCAL/MOL
REMARK 922        TOTAL FREE ENERGY PREDICTED BY IDOCK:   -3.54 KCAL/MOL
REMARK 923 INTER-LIGAND FREE ENERGY PREDICTED BY IDOCK:   -3.40 KCAL/MOL
REMARK 924 INTRA-LIGAND FREE ENERGY PREDICTED BY IDOCK:   -0.14 KCAL/MOL
REMARK 927      BINDING AFFINITY PREDICTED BY RF-SCORE:    0.00 PKD
ROOT
HETATM    1  C   UNL     1      -9.490   8.750  71.777  1.00  0.00    -0.363 C  
HETATM    2  C   UNL     1     -10.530   7.640  71.834  1.00  0.00    -0.215 C  
ENDROOT
BRANCH   2   3
HETATM    3  N   UNL     1     -10.291   6.633  70.792  1.00  0.00    -0.200 NA 
HETATM    4  C   UNL     1     -10.356   6.909  69.438  1.00  0.00    -0.204 C  
HETATM    5  C   UNL     1     -10.177   6.020  68.449  1.00  0.00    -0.220 C  
HETATM    6  C   UNL     1     -10.280   6.460  67.043  1.00  0.00    -0.205 C  
HETATM    7  C   UNL     1      -9.882   4.628  68.854  1.00  0.00    -0.140 C  
HETATM    8  O   UNL     1     -10.503   7.616  66.715  1.00  0.00    -0.314 OA 
HETATM    9  O   UNL     1     -10.111   5.474  66.133  1.00  0.00    -0.156 OA 
HETATM   10  O   UNL     1      -9.760   3.752  67.999  1.00  0.00    -0.152 OA 
HETATM   11  C   UNL     1      -9.732   4.328  70.292  1.00  0.00    -0.280 A  
HETATM   12  C   UNL     1      -9.939   5.337  71.237  1.00  0.00    -0.194 A  
HETATM   13  N   UNL     1      -9.803   5.082  72.561  1.00  0.00    -0.155 NA 
HETATM   14  C   UNL     1      -9.466   3.830  72.960  1.00  0.00    -0.111 A  
HETATM   15  C   UNL     1      -9.324   3.598  74.436  1.00  0.00    -0.116 C  
HETATM   16  C   UNL     1      -9.246   2.789  72.067  1.00  0.00    -0.157 A  
HETATM   17  C   UNL     1      -9.385   3.041  70.709  1.00  0.00    -0.223 A  
ENDBRANCH   2   3
TORSDOF 1
ENDMDL
MODEL      130
REMARK 921   NORMALIZED FREE ENERGY PREDICTED BY IDOCK:   -3.23 KCAL/MOL
REMARK 922        TOTAL FREE ENERGY PREDICTED BY IDOCK:   -3.54 KCAL/MOL
REMARK 923 INTER-LIGAND FREE ENERGY PREDICTED BY IDOCK:   -3.41 KCAL/MOL
REMARK 924 INTRA-LIGAND FREE ENERGY PREDICTED BY IDOCK:   -0.13 KCAL/MOL
REMARK 927      BINDING AFFINITY PREDICTED BY RF-SCORE:    0.00 PKD
ROOT
HETATM    1  C   UNL     1      -6.240  15.215  69.404  1.00  0.00    -0.116 C  
HETATM    2  C   UNL     1      -6.910  14.678  68.147  1.00  0.00    -0.124 C  
ENDROOT
BRANCH   2   3
HETATM    3  N   UNL     1      -8.308  14.311  68.405  1.00  0.00    -0.159 NA 
HETATM    4  C   UNL     1      -9.215  15.154  69.022  1.00  0.00    -0.221 C  
HETATM    5  C   UNL     1     -10.492  14.855  69.307  1.00  0.00    -0.246 C  
HETATM    6  C   UNL     1     -11.346  15.859  69.975  1.00  0.00    -0.358 C  
HETATM    7  C   UNL     1     -10.960  13.506  68.923  1.00  0.00    -0.252 C  
HETATM    8  O   UNL     1     -10.959  16.980  70.271  1.00  0.00    -0.010 OA 
HETATM    9  O   UNL     1     -12.603  15.438  70.239  1.00  0.00    -0.377 OA 
HETATM   10  O   UNL     1     -12.102  13.148  69.204  1.00  0.00    -0.294 OA 
HETATM   11  C   UNL     1     -10.031  12.618  68.195  1.00  0.00    -0.225 A  
HETATM   12  C   UNL     1      -8.720  13.037  67.948  1.00  0.00    -0.189 A  
HETATM   13  N   UNL     1      -7.854  12.238  67.279  1.00  0.00    -0.168 NA 
HETATM   14  C   UNL     1      -8.274  11.021  66.852  1.00  0.00    -0.140 A  
HETATM   15  C   UNL     1      -7.280  10.175  66.113  1.00  0.00    -0.115 C  
HETATM   16  C   UNL     1      -9.564  10.553  67.066  1.00  0.00    -0.202 A  
HETATM   17  C   UNL     1     -10.458  11.364  67.753  1.00  0.00    -0.215 A  
ENDBRANCH   2   3
TORSDOF 1
ENDMDL
MODEL      131
REMARK 921   NORMALIZED FREE ENERGY PREDICTED BY IDOCK:   -3.23 KCAL/MOL
REMARK 922        TOTAL FREE ENERGY PREDICTED BY IDOCK:   -3.54 KCAL/MOL
REMARK 923 INTER-LIGAND FREE ENERGY PREDICTED BY IDOCK:   -3.45 KCAL/MOL
REMARK 924 INTRA-LIGAND FREE ENERGY PREDICTED BY IDOCK:   -0.09 KCAL/MOL
REMARK 927      BINDING AFFINITY PREDICTED BY RF-SCORE:    0.00 PKD
ROOT
HETATM    1  C   UNL     1      -8.118   8.563  63.199  1.00  0.00    -0.165 C  
HETATM    2  C   UNL     1      -7.549   8.534  64.610  1.00  0.00    -0.102 C  
ENDROOT
BRANCH   2   3
HETATM    3  N   UNL     1      -8.563   8.916  65.601  1.00  0.00    -0.156 NA 
HETATM    4  C   UNL     1      -8.900  10.229  65.878  1.00  0.00    -0.159 C  
HETATM    5  C   UNL     1      -9.796  10.630  66.793  1.00  0.00    -0.240 C  
HETATM    6  C   UNL     1     -10.051  12.073  66.982  1.00  0.00    -0.203 C  
HETATM    7  C   UNL     1     -10.477   9.569  67.565  1.00  0.00    -0.275 C  
HETATM    8  O   UNL     1      -9.500  12.945  66.325  1.00  0.00    -0.254 OA 
HETATM    9  O   UNL     1     -10.949  12.361  67.950  1.00  0.00    -0.210 OA 
HETATM   10  O   UNL     1     -11.269   9.869  68.457  1.00  0.00    -0.181 OA 
HETATM   11  C   UNL     1     -10.188   8.159  67.232  1.00  0.00    -0.348 A  
HETATM   12  C   UNL     1      -9.236   7.857  66.254  1.00  0.00    -0.178 A  
HETATM   13  N   UNL     1      -8.960   6.570  65.934  1.00  0.00    -0.127 NA 
HETATM   14  C   UNL     1      -9.619   5.574  66.576  1.00  0.00    -0.155 A  
HETATM   15  C   UNL     1      -9.281   4.166  66.183  1.00  0.00    -0.150 C  
HETATM   16  C   UNL     1     -10.576   5.813  67.553  1.00  0.00    -0.327 A  
HETATM   17  C   UNL     1     -10.864   7.130  67.891  1.00  0.00    -0.219 A  
ENDBRANCH   2   3
TORSDOF 1
ENDMDL
MODEL      132
REMARK 921   NORMALIZED FREE ENERGY PREDICTED BY IDOCK:   -3.23 KCAL/MOL
REMARK 922        TOTAL FREE ENERGY PREDICTED BY IDOCK:   -3.54 KCAL/MOL
REMARK 923 INTER-LIGAND FREE ENERGY PREDICTED BY IDOCK:   -3.42 KCAL/MOL
REMARK 924 INTRA-LIGAND FREE ENERGY PREDICTED BY IDOCK:   -0.12 KCAL/MOL
REMARK 927      BINDING AFFINITY PREDICTED BY RF-SCORE:    0.00 PKD
ROOT
HETATM    1  C   UNL     1      -7.626   8.965  62.941  1.00  0.00    -0.110 C  
HETATM    2  C   UNL     1      -7.972   9.840  64.137  1.00  0.00    -0.143 C  
ENDROOT
BRANCH   2   3
HETATM    3  N   UNL     1      -8.707   9.082  65.157  1.00  0.00    -0.185 NA 
HETATM    4  C   UNL     1      -8.573   7.715  65.332  1.00  0.00    -0.053 C  
HETATM    5  C   UNL     1      -9.243   6.973  66.227  1.00  0.00    -0.166 C  
HETATM    6  C   UNL     1      -8.999   5.518  66.298  1.00  0.00    -0.140 C  
HETATM    7  C   UNL     1     -10.202   7.687  67.097  1.00  0.00    -0.290 C  
HETATM    8  O   UNL     1      -8.188   4.937  65.591  1.00  0.00    -0.110 OA 
HETATM    9  O   UNL     1      -9.750   4.867  67.214  1.00  0.00    -0.148 OA 
HETATM   10  O   UNL     1     -10.889   7.058  67.901  1.00  0.00    -0.218 OA 
HETATM   11  C   UNL     1     -10.304   9.156  66.979  1.00  0.00    -0.333 A  
HETATM   12  C   UNL     1      -9.553   9.827  66.010  1.00  0.00    -0.235 A  
HETATM   13  N   UNL     1      -9.631  11.175  65.888  1.00  0.00    -0.209 NA 
HETATM   14  C   UNL     1     -10.451  11.867  66.718  1.00  0.00    -0.221 A  
HETATM   15  C   UNL     1     -10.500  13.356  66.547  1.00  0.00    -0.283 C  
HETATM   16  C   UNL     1     -11.218  11.253  67.700  1.00  0.00    -0.357 A  
HETATM   17  C   UNL     1     -11.147   9.872  67.830  1.00  0.00    -0.216 A  
ENDBRANCH   2   3
TORSDOF 1
ENDMDL
MODEL      133
REMARK 921   NORMALIZED FREE ENERGY PREDICTED BY IDOCK:   -3.20 KCAL/MOL
REMARK 922        TOTAL FREE ENERGY PREDICTED BY IDOCK:   -3.51 KCAL/MOL
REMARK 923 INTER-LIGAND FREE ENERGY PREDICTED BY IDOCK:   -3.38 KCAL/MOL
REMARK 924 INTRA-LIGAND FREE ENERGY PREDICTED BY IDOCK:   -0.14 KCAL/MOL
REMARK 927      BINDING AFFINITY PREDICTED BY RF-SCORE:    0.00 PKD
ROOT
HETATM    1  C   UNL     1      -6.350  13.221  70.119  1.00  0.00     0.027 C  
HETATM    2  C   UNL     1      -6.766  13.586  68.701  1.00  0.00    -0.094 C  
ENDROOT
BRANCH   2   3
HETATM    3  N   UNL     1      -8.163  13.213  68.444  1.00  0.00    -0.151 NA 
HETATM    4  C   UNL     1      -8.592  11.902  68.331  1.00  0.00    -0.152 C  
HETATM    5  C   UNL     1      -9.848  11.510  68.067  1.00  0.00    -0.192 C  
HETATM    6  C   UNL     1     -10.159  10.069  67.971  1.00  0.00    -0.167 C  
HETATM    7  C   UNL     1     -10.852  12.580  67.884  1.00  0.00    -0.222 C  
HETATM    8  O   UNL     1      -9.329   9.189  68.145  1.00  0.00    -0.138 OA 
HETATM    9  O   UNL     1     -11.448   9.793  67.672  1.00  0.00    -0.004 OA 
HETATM   10  O   UNL     1     -12.010  12.292  67.586  1.00  0.00    -0.494 OA 
HETATM   11  C   UNL     1     -10.432  13.983  68.076  1.00  0.00    -0.241 A  
HETATM   12  C   UNL     1      -9.093  14.274  68.354  1.00  0.00    -0.194 A  
HETATM   13  N   UNL     1      -8.689  15.555  68.536  1.00  0.00    -0.176 NA 
HETATM   14  C   UNL     1      -9.601  16.555  68.443  1.00  0.00    -0.233 A  
HETATM   15  C   UNL     1      -9.105  17.955  68.656  1.00  0.00    -0.263 C  
HETATM   16  C   UNL     1     -10.944  16.325  68.173  1.00  0.00    -0.343 A  
HETATM   17  C   UNL     1     -11.366  15.016  67.982  1.00  0.00    -0.339 A  
ENDBRANCH   2   3
TORSDOF 1
ENDMDL
MODEL      134
REMARK 921   NORMALIZED FREE ENERGY PREDICTED BY IDOCK:   -3.18 KCAL/MOL
REMARK 922        TOTAL FREE ENERGY PREDICTED BY IDOCK:   -3.49 KCAL/MOL
REMARK 923 INTER-LIGAND FREE ENERGY PREDICTED BY IDOCK:   -3.36 KCAL/MOL
REMARK 924 INTRA-LIGAND FREE ENERGY PREDICTED BY IDOCK:   -0.13 KCAL/MOL
REMARK 927      BINDING AFFINITY PREDICTED BY RF-SCORE:    0.00 PKD
ROOT
HETATM    1  C   UNL     1     -12.501  11.038  70.928  1.00  0.00    -0.509 C  
HETATM    2  C   UNL     1     -11.854  10.616  69.616  1.00  0.00    -0.286 C  
ENDROOT
BRANCH   2   3
HETATM    3  N   UNL     1     -10.964   9.465  69.807  1.00  0.00    -0.235 NA 
HETATM    4  C   UNL     1     -11.329   8.328  70.507  1.00  0.00    -0.219 C  
HETATM    5  C   UNL     1     -10.544   7.264  70.735  1.00  0.00    -0.237 C  
HETATM    6  C   UNL     1     -11.070   6.118  71.504  1.00  0.00    -0.286 C  
HETATM    7  C   UNL     1      -9.172   7.322  70.186  1.00  0.00    -0.152 C  
HETATM    8  O   UNL     1     -12.213   6.068  71.937  1.00  0.00    -0.209 OA 
HETATM    9  O   UNL     1     -10.182   5.118  71.698  1.00  0.00    -0.199 OA 
HETATM   10  O   UNL     1      -8.382   6.405  70.406  1.00  0.00    -0.123 OA 
HETATM   11  C   UNL     1      -8.786   8.493  69.372  1.00  0.00    -0.136 A  
HETATM   12  C   UNL     1      -9.691   9.544  69.196  1.00  0.00    -0.178 A  
HETATM   13  N   UNL     1      -9.356  10.625  68.450  1.00  0.00    -0.156 NA 
HETATM   14  C   UNL     1      -8.129  10.676  67.876  1.00  0.00    -0.111 A  
HETATM   15  C   UNL     1      -7.807  11.891  67.056  1.00  0.00    -0.152 C  
HETATM   16  C   UNL     1      -7.191   9.661  68.013  1.00  0.00    -0.081 A  
HETATM   17  C   UNL     1      -7.524   8.551  68.779  1.00  0.00    -0.092 A  
ENDBRANCH   2   3
TORSDOF 1
ENDMDL
MODEL      135
REMARK 921   NORMALIZED FREE ENERGY PREDICTED BY IDOCK:   -3.14 KCAL/MOL
REMARK 922        TOTAL FREE ENERGY PREDICTED BY IDOCK:   -3.45 KCAL/MOL
REMARK 923 INTER-LIGAND FREE ENERGY PREDICTED BY IDOCK:   -3.31 KCAL/MOL
REMARK 924 INTRA-LIGAND FREE ENERGY PREDICTED BY IDOCK:   -0.14 KCAL/MOL
REMARK 927      BINDING AFFINITY PREDICTED BY RF-SCORE:    0.00 PKD
ROOT
HETATM    1  C   UNL     1      -6.745   6.080  69.240  1.00  0.00    -0.060 C  
HETATM    2  C   UNL     1      -7.183   6.281  70.684  1.00  0.00    -0.074 C  
ENDROOT
BRANCH   2   3
HETATM    3  N   UNL     1      -8.502   6.922  70.755  1.00  0.00    -0.134 NA 
HETATM    4  C   UNL     1      -8.816   8.094  70.089  1.00  0.00    -0.145 C  
HETATM    5  C   UNL     1      -9.994   8.734  70.146  1.00  0.00    -0.201 C  
HETATM    6  C   UNL     1     -10.185   9.983  69.381  1.00  0.00    -0.222 C  
HETATM    7  C   UNL     1     -11.040   8.125  70.996  1.00  0.00    -0.253 C  
HETATM    8  O   UNL     1      -9.323  10.469  68.663  1.00  0.00    -0.156 OA 
HETATM    9  O   UNL     1     -11.399  10.556  69.537  1.00  0.00    -0.243 OA 
HETATM   10  O   UNL     1     -12.124   8.689  71.137  1.00  0.00    -0.291 OA 
HETATM   11  C   UNL     1     -10.752   6.835  71.655  1.00  0.00    -0.252 A  
HETATM   12  C   UNL     1      -9.486   6.255  71.522  1.00  0.00    -0.151 A  
HETATM   13  N   UNL     1      -9.204   5.070  72.117  1.00  0.00    -0.135 NA 
HETATM   14  C   UNL     1     -10.165   4.453  72.847  1.00  0.00    -0.172 A  
HETATM   15  C   UNL     1      -9.805   3.142  73.482  1.00  0.00    -0.158 C  
HETATM   16  C   UNL     1     -11.440   4.980  73.011  1.00  0.00    -0.344 A  
HETATM   17  C   UNL     1     -11.737   6.195  72.408  1.00  0.00    -0.319 A  
ENDBRANCH   2   3
TORSDOF 1
ENDMDL
MODEL      136
REMARK 921   NORMALIZED FREE ENERGY PREDICTED BY IDOCK:   -3.14 KCAL/MOL
REMARK 922        TOTAL FREE ENERGY PREDICTED BY IDOCK:   -3.45 KCAL/MOL
REMARK 923 INTER-LIGAND FREE ENERGY PREDICTED BY IDOCK:   -4.29 KCAL/MOL
REMARK 924 INTRA-LIGAND FREE ENERGY PREDICTED BY IDOCK:    0.84 KCAL/MOL
REMARK 927      BINDING AFFINITY PREDICTED BY RF-SCORE:    0.00 PKD
ROOT
HETATM    1  C   UNL     1     -11.541  10.803  70.260  1.00  0.00    -0.427 C  
HETATM    2  C   UNL     1     -11.856  12.196  69.734  1.00  0.00    -0.327 C  
ENDROOT
BRANCH   2   3
HETATM    3  N   UNL     1     -11.433  12.346  68.336  1.00  0.00    -0.285 NA 
HETATM    4  C   UNL     1     -12.202  12.972  67.371  1.00  0.00    -0.097 C  
HETATM    5  C   UNL     1     -11.874  13.107  66.077  1.00  0.00    -0.457 C  
HETATM    6  C   UNL     1     -12.799  13.800  65.157  1.00  0.00    -0.340 C  
HETATM    7  C   UNL     1     -10.577  12.535  65.657  1.00  0.00    -0.269 C  
HETATM    8  O   UNL     1     -13.861  14.289  65.515  1.00  0.00    -0.059 OA 
HETATM    9  O   UNL     1     -12.380  13.850  63.873  1.00  0.00    -0.662 OA 
HETATM   10  O   UNL     1     -10.240  12.575  64.475  1.00  0.00    -0.317 OA 
HETATM   11  C   UNL     1      -9.706  11.929  66.686  1.00  0.00    -0.220 A  
HETATM   12  C   UNL     1     -10.151  11.847  68.009  1.00  0.00    -0.195 A  
HETATM   13  N   UNL     1      -9.365  11.297  68.968  1.00  0.00    -0.072 NA 
HETATM   14  C   UNL     1      -8.140  10.826  68.627  1.00  0.00    -0.136 A  
HETATM   15  C   UNL     1      -7.307  10.231  69.724  1.00  0.00    -0.167 C  
HETATM   16  C   UNL     1      -7.646  10.884  67.331  1.00  0.00    -0.100 A  
HETATM   17  C   UNL     1      -8.445  11.442  66.341  1.00  0.00    -0.160 A  
ENDBRANCH   2   3
TORSDOF 1
ENDMDL
MODEL      137
REMARK 921   NORMALIZED FREE ENERGY PREDICTED BY IDOCK:   -3.09 KCAL/MOL
REMARK 922        TOTAL FREE ENERGY PREDICTED BY IDOCK:   -3.39 KCAL/MOL
REMARK 923 INTER-LIGAND FREE ENERGY PREDICTED BY IDOCK:   -3.26 KCAL/MOL
REMARK 924 INTRA-LIGAND FREE ENERGY PREDICTED BY IDOCK:   -0.13 KCAL/MOL
REMARK 927      BINDING AFFINITY PREDICTED BY RF-SCORE:    0.00 PKD
ROOT
HETATM    1  C   UNL     1     -10.776  11.416  64.887  1.00  0.00    -0.350 C  
HETATM    2  C   UNL     1      -9.464  10.651  65.000  1.00  0.00    -0.243 C  
ENDROOT
BRANCH   2   3
HETATM    3  N   UNL     1      -9.395   9.897  66.258  1.00  0.00    -0.166 NA 
HETATM    4  C   UNL     1     -10.043   8.690  66.459  1.00  0.00    -0.269 C  
HETATM    5  C   UNL     1     -10.036   7.979  67.596  1.00  0.00    -0.234 C  
HETATM    6  C   UNL     1     -10.779   6.704  67.666  1.00  0.00    -0.302 C  
HETATM    7  C   UNL     1      -9.266   8.542  68.726  1.00  0.00    -0.142 C  
HETATM    8  O   UNL     1     -11.396   6.233  66.721  1.00  0.00    -0.229 OA 
HETATM    9  O   UNL     1     -10.726   6.089  68.869  1.00  0.00    -0.255 OA 
HETATM   10  O   UNL     1      -9.262   7.969  69.815  1.00  0.00    -0.149 OA 
HETATM   11  C   UNL     1      -8.505   9.790  68.510  1.00  0.00    -0.115 A  
HETATM   12  C   UNL     1      -8.583  10.445  67.278  1.00  0.00    -0.126 A  
HETATM   13  N   UNL     1      -7.890  11.589  67.060  1.00  0.00    -0.155 NA 
HETATM   14  C   UNL     1      -7.119  12.094  68.054  1.00  0.00    -0.096 A  
HETATM   15  C   UNL     1      -6.369  13.360  67.763  1.00  0.00    -0.164 C  
HETATM   16  C   UNL     1      -7.002  11.485  69.297  1.00  0.00    -0.098 A  
HETATM   17  C   UNL     1      -7.710  10.314  69.531  1.00  0.00    -0.167 A  
ENDBRANCH   2   3
TORSDOF 1
ENDMDL
MODEL      138
REMARK 921   NORMALIZED FREE ENERGY PREDICTED BY IDOCK:   -3.09 KCAL/MOL
REMARK 922        TOTAL FREE ENERGY PREDICTED BY IDOCK:   -3.39 KCAL/MOL
REMARK 923 INTER-LIGAND FREE ENERGY PREDICTED BY IDOCK:   -3.27 KCAL/MOL
REMARK 924 INTRA-LIGAND FREE ENERGY PREDICTED BY IDOCK:   -0.12 KCAL/MOL
REMARK 927      BINDING AFFINITY PREDICTED BY RF-SCORE:    0.00 PKD
ROOT
HETATM    1  C   UNL     1     -10.337  11.092  66.238  1.00  0.00    -0.299 C  
HETATM    2  C   UNL     1     -10.905  10.539  67.537  1.00  0.00    -0.301 C  
ENDROOT
BRANCH   2   3
HETATM    3  N   UNL     1     -10.030   9.504  68.102  1.00  0.00    -0.159 NA 
HETATM    4  C   UNL     1      -8.907   9.020  67.454  1.00  0.00    -0.118 C  
HETATM    5  C   UNL     1      -8.095   8.055  67.913  1.00  0.00    -0.129 C  
HETATM    6  C   UNL     1      -6.929   7.637  67.107  1.00  0.00    -0.080 C  
HETATM    7  C   UNL     1      -8.438   7.467  69.225  1.00  0.00    -0.136 C  
HETATM    8  O   UNL     1      -6.639   8.142  66.033  1.00  0.00    -0.046 OA 
HETATM    9  O   UNL     1      -6.200   6.638  67.653  1.00  0.00    -0.032 OA 
HETATM   10  O   UNL     1      -7.767   6.541  69.679  1.00  0.00    -0.099 OA 
HETATM   11  C   UNL     1      -9.588   8.021  69.968  1.00  0.00    -0.171 A  
HETATM   12  C   UNL     1     -10.364   9.031  69.392  1.00  0.00    -0.213 A  
HETATM   13  N   UNL     1     -11.422   9.555  70.060  1.00  0.00    -0.166 NA 
HETATM   14  C   UNL     1     -11.721   9.084  71.296  1.00  0.00    -0.313 A  
HETATM   15  C   UNL     1     -12.898   9.697  71.995  1.00  0.00    -0.497 C  
HETATM   16  C   UNL     1     -10.984   8.084  71.918  1.00  0.00    -0.321 A  
HETATM   17  C   UNL     1      -9.901   7.540  71.241  1.00  0.00    -0.188 A  
ENDBRANCH   2   3
TORSDOF 1
ENDMDL
MODEL      139
REMARK 921   NORMALIZED FREE ENERGY PREDICTED BY IDOCK:   -3.06 KCAL/MOL
REMARK 922        TOTAL FREE ENERGY PREDICTED BY IDOCK:   -3.37 KCAL/MOL
REMARK 923 INTER-LIGAND FREE ENERGY PREDICTED BY IDOCK:   -3.24 KCAL/MOL
REMARK 924 INTRA-LIGAND FREE ENERGY PREDICTED BY IDOCK:   -0.12 KCAL/MOL
REMARK 927      BINDING AFFINITY PREDICTED BY RF-SCORE:    0.00 PKD
ROOT
HETATM    1  C   UNL     1     -13.003  10.806  70.749  1.00  0.00    -0.348 C  
HETATM    2  C   UNL     1     -11.963  11.673  70.054  1.00  0.00    -0.351 C  
ENDROOT
BRANCH   2   3
HETATM    3  N   UNL     1     -10.689  10.959  69.902  1.00  0.00    -0.156 NA 
HETATM    4  C   UNL     1     -10.357   9.833  70.635  1.00  0.00    -0.261 C  
HETATM    5  C   UNL     1      -9.196   9.163  70.555  1.00  0.00    -0.286 C  
HETATM    6  C   UNL     1      -8.979   7.974  71.405  1.00  0.00    -0.141 C  
HETATM    7  C   UNL     1      -8.195   9.682  69.600  1.00  0.00    -0.144 C  
HETATM    8  O   UNL     1      -9.820   7.538  72.178  1.00  0.00    -0.163 OA 
HETATM    9  O   UNL     1      -7.765   7.399  71.263  1.00  0.00    -0.085 OA 
HETATM   10  O   UNL     1      -7.089   9.149  69.517  1.00  0.00    -0.056 OA 
HETATM   11  C   UNL     1      -8.558  10.837  68.754  1.00  0.00    -0.156 A  
HETATM   12  C   UNL     1      -9.801  11.455  68.920  1.00  0.00    -0.112 A  
HETATM   13  N   UNL     1     -10.153  12.515  68.151  1.00  0.00    -0.220 NA 
HETATM   14  C   UNL     1      -9.283  12.971  67.217  1.00  0.00    -0.213 A  
HETATM   15  C   UNL     1      -9.721  14.143  66.389  1.00  0.00    -0.313 C  
HETATM   16  C   UNL     1      -8.036  12.395  67.006  1.00  0.00    -0.124 A  
HETATM   17  C   UNL     1      -7.665  11.311  67.791  1.00  0.00    -0.113 A  
ENDBRANCH   2   3
TORSDOF 1
ENDMDL
MODEL      140
REMARK 921   NORMALIZED FREE ENERGY PREDICTED BY IDOCK:   -3.03 KCAL/MOL
REMARK 922        TOTAL FREE ENERGY PREDICTED BY IDOCK:   -3.33 KCAL/MOL
REMARK 923 INTER-LIGAND FREE ENERGY PREDICTED BY IDOCK:   -3.19 KCAL/MOL
REMARK 924 INTRA-LIGAND FREE ENERGY PREDICTED BY IDOCK:   -0.14 KCAL/MOL
REMARK 927      BINDING AFFINITY PREDICTED BY RF-SCORE:    0.00 PKD
ROOT
HETATM    1  C   UNL     1      -6.149  10.136  66.507  1.00  0.00    -0.067 C  
HETATM    2  C   UNL     1      -6.316  10.880  67.824  1.00  0.00    -0.062 C  
ENDROOT
BRANCH   2   3
HETATM    3  N   UNL     1      -7.654  10.667  68.390  1.00  0.00    -0.095 NA 
HETATM    4  C   UNL     1      -8.814  11.132  67.795  1.00  0.00    -0.135 C  
HETATM    5  C   UNL     1     -10.055  10.990  68.286  1.00  0.00    -0.191 C  
HETATM    6  C   UNL     1     -11.204  11.543  67.540  1.00  0.00    -0.298 C  
HETATM    7  C   UNL     1     -10.182  10.273  69.573  1.00  0.00    -0.236 C  
HETATM    8  O   UNL     1     -11.094  12.116  66.465  1.00  0.00    -0.276 OA 
HETATM    9  O   UNL     1     -12.400  11.368  68.143  1.00  0.00    -0.502 OA 
HETATM   10  O   UNL     1     -11.284  10.156  70.106  1.00  0.00    -0.266 OA 
HETATM   11  C   UNL     1      -8.965   9.703  70.187  1.00  0.00    -0.273 A  
HETATM   12  C   UNL     1      -7.721   9.910  69.583  1.00  0.00    -0.149 A  
HETATM   13  N   UNL     1      -6.594   9.393  70.129  1.00  0.00    -0.054 NA 
HETATM   14  C   UNL     1      -6.686   8.671  71.273  1.00  0.00    -0.072 A  
HETATM   15  C   UNL     1      -5.411   8.116  71.837  1.00  0.00    -0.035 C  
HETATM   16  C   UNL     1      -7.895   8.431  71.916  1.00  0.00    -0.165 A  
HETATM   17  C   UNL     1      -9.054   8.960  71.365  1.00  0.00    -0.318 A  
ENDBRANCH   2   3
TORSDOF 1
ENDMDL
MODEL      141
REMARK 921   NORMALIZED FREE ENERGY PREDICTED BY IDOCK:   -3.02 KCAL/MOL
REMARK 922        TOTAL FREE ENERGY PREDICTED BY IDOCK:   -3.33 KCAL/MOL
REMARK 923 INTER-LIGAND FREE ENERGY PREDICTED BY IDOCK:   -3.24 KCAL/MOL
REMARK 924 INTRA-LIGAND FREE ENERGY PREDICTED BY IDOCK:   -0.09 KCAL/MOL
REMARK 927      BINDING AFFINITY PREDICTED BY RF-SCORE:    0.00 PKD
ROOT
HETATM    1  C   UNL     1      -9.900   4.380  67.678  1.00  0.00    -0.168 C  
HETATM    2  C   UNL     1     -10.362   5.807  67.421  1.00  0.00    -0.225 C  
ENDROOT
BRANCH   2   3
HETATM    3  N   UNL     1     -10.195   6.644  68.616  1.00  0.00    -0.161 NA 
HETATM    4  C   UNL     1     -11.103   6.669  69.661  1.00  0.00    -0.334 C  
HETATM    5  C   UNL     1     -11.012   7.436  70.758  1.00  0.00    -0.272 C  
HETATM    6  C   UNL     1     -12.063   7.359  71.793  1.00  0.00    -0.312 C  
HETATM    7  C   UNL     1      -9.835   8.326  70.849  1.00  0.00    -0.182 C  
HETATM    8  O   UNL     1     -13.023   6.604  71.721  1.00  0.00    -0.319 OA 
HETATM    9  O   UNL     1     -11.883   8.197  72.837  1.00  0.00    -0.352 OA 
HETATM   10  O   UNL     1      -9.718   9.096  71.801  1.00  0.00    -0.283 OA 
HETATM   11  C   UNL     1      -8.815   8.260  69.782  1.00  0.00    -0.142 A  
HETATM   12  C   UNL     1      -9.014   7.418  68.684  1.00  0.00    -0.131 A  
HETATM   13  N   UNL     1      -8.088   7.341  67.697  1.00  0.00    -0.113 NA 
HETATM   14  C   UNL     1      -6.964   8.095  67.786  1.00  0.00    -0.078 A  
HETATM   15  C   UNL     1      -5.968   7.972  66.671  1.00  0.00    -0.045 C  
HETATM   16  C   UNL     1      -6.712   8.947  68.854  1.00  0.00    -0.053 A  
HETATM   17  C   UNL     1      -7.657   9.034  69.869  1.00  0.00    -0.067 A  
ENDBRANCH   2   3
TORSDOF 1
ENDMDL
MODEL      142
REMARK 921   NORMALIZED FREE ENERGY PREDICTED BY IDOCK:   -3.02 KCAL/MOL
REMARK 922        TOTAL FREE ENERGY PREDICTED BY IDOCK:   -3.32 KCAL/MOL
REMARK 923 INTER-LIGAND FREE ENERGY PREDICTED BY IDOCK:   -3.20 KCAL/MOL
REMARK 924 INTRA-LIGAND FREE ENERGY PREDICTED BY IDOCK:   -0.12 KCAL/MOL
REMARK 927      BINDING AFFINITY PREDICTED BY RF-SCORE:    0.00 PKD
ROOT
HETATM    1  C   UNL     1      -5.954   9.759  70.448  1.00  0.00    -0.069 C  
HETATM    2  C   UNL     1      -7.254   9.206  71.017  1.00  0.00    -0.100 C  
ENDROOT
BRANCH   2   3
HETATM    3  N   UNL     1      -8.176   8.808  69.945  1.00  0.00    -0.113 NA 
HETATM    4  C   UNL     1      -8.030   9.208  68.628  1.00  0.00    -0.101 C  
HETATM    5  C   UNL     1      -8.860   8.897  67.621  1.00  0.00    -0.137 C  
HETATM    6  C   UNL     1      -8.578   9.400  66.261  1.00  0.00    -0.131 C  
HETATM    7  C   UNL     1     -10.028   8.055  67.958  1.00  0.00    -0.179 C  
HETATM    8  O   UNL     1      -7.600  10.078  65.984  1.00  0.00    -0.102 OA 
HETATM    9  O   UNL     1      -9.497   9.050  65.333  1.00  0.00    -0.211 OA 
HETATM   10  O   UNL     1     -10.858   7.779  67.094  1.00  0.00    -0.313 OA 
HETATM   11  C   UNL     1     -10.161   7.555  69.342  1.00  0.00    -0.204 A  
HETATM   12  C   UNL     1      -9.231   7.941  70.312  1.00  0.00    -0.152 A  
HETATM   13  N   UNL     1      -9.335   7.490  71.586  1.00  0.00    -0.145 NA 
HETATM   14  C   UNL     1     -10.357   6.659  71.911  1.00  0.00    -0.198 A  
HETATM   15  C   UNL     1     -10.426   6.185  73.332  1.00  0.00    -0.269 C  
HETATM   16  C   UNL     1     -11.308   6.241  70.989  1.00  0.00    -0.378 A  
HETATM   17  C   UNL     1     -11.211   6.700  69.682  1.00  0.00    -0.397 A  
ENDBRANCH   2   3
TORSDOF 1
ENDMDL
MODEL      143
REMARK 921   NORMALIZED FREE ENERGY PREDICTED BY IDOCK:   -2.98 KCAL/MOL
REMARK 922        TOTAL FREE ENERGY PREDICTED BY IDOCK:   -3.28 KCAL/MOL
REMARK 923 INTER-LIGAND FREE ENERGY PREDICTED BY IDOCK:   -3.16 KCAL/MOL
REMARK 924 INTRA-LIGAND FREE ENERGY PREDICTED BY IDOCK:   -0.12 KCAL/MOL
REMARK 927      BINDING AFFINITY PREDICTED BY RF-SCORE:    0.00 PKD
ROOT
HETATM    1  C   UNL     1     -10.370   7.833  67.039  1.00  0.00    -0.405 C  
HETATM    2  C   UNL     1     -10.928   6.419  67.135  1.00  0.00    -0.399 C  
ENDROOT
BRANCH   2   3
HETATM    3  N   UNL     1     -10.330   5.688  68.260  1.00  0.00    -0.192 NA 
HETATM    4  C   UNL     1     -10.753   5.829  69.570  1.00  0.00    -0.338 C  
HETATM    5  C   UNL     1     -10.222   5.208  70.634  1.00  0.00    -0.326 C  
HETATM    6  C   UNL     1     -10.777   5.459  71.980  1.00  0.00    -0.220 C  
HETATM    7  C   UNL     1      -9.088   4.295  70.372  1.00  0.00    -0.106 C  
HETATM    8  O   UNL     1     -11.728   6.199  72.187  1.00  0.00    -0.309 OA 
HETATM    9  O   UNL     1     -10.144   4.804  72.978  1.00  0.00    -0.151 OA 
HETATM   10  O   UNL     1      -8.520   3.735  71.308  1.00  0.00    -0.070 OA 
HETATM   11  C   UNL     1      -8.671   4.071  68.973  1.00  0.00    -0.130 A  
HETATM   12  C   UNL     1      -9.301   4.772  67.940  1.00  0.00    -0.133 A  
HETATM   13  N   UNL     1      -8.934   4.578  66.650  1.00  0.00    -0.112 NA 
HETATM   14  C   UNL     1      -7.944   3.694  66.371  1.00  0.00    -0.089 A  
HETATM   15  C   UNL     1      -7.576   3.512  64.928  1.00  0.00    -0.077 C  
HETATM   16  C   UNL     1      -7.284   2.968  67.355  1.00  0.00    -0.054 A  
HETATM   17  C   UNL     1      -7.652   3.163  68.680  1.00  0.00    -0.048 A  
ENDBRANCH   2   3
TORSDOF 1
ENDMDL
MODEL      144
REMARK 921   NORMALIZED FREE ENERGY PREDICTED BY IDOCK:   -2.97 KCAL/MOL
REMARK 922        TOTAL FREE ENERGY PREDICTED BY IDOCK:   -3.27 KCAL/MOL
REMARK 923 INTER-LIGAND FREE ENERGY PREDICTED BY IDOCK:   -3.15 KCAL/MOL
REMARK 924 INTRA-LIGAND FREE ENERGY PREDICTED BY IDOCK:   -0.12 KCAL/MOL
REMARK 927      BINDING AFFINITY PREDICTED BY RF-SCORE:    0.00 PKD
ROOT
HETATM    1  C   UNL     1     -11.151  15.295  67.419  1.00  0.00    -0.326 C  
HETATM    2  C   UNL     1     -10.003  16.266  67.659  1.00  0.00    -0.247 C  
ENDROOT
BRANCH   2   3
HETATM    3  N   UNL     1      -8.816  15.571  68.173  1.00  0.00    -0.168 NA 
HETATM    4  C   UNL     1      -8.689  14.193  68.187  1.00  0.00    -0.181 C  
HETATM    5  C   UNL     1      -7.640  13.510  68.672  1.00  0.00    -0.108 C  
HETATM    6  C   UNL     1      -7.644  12.033  68.624  1.00  0.00    -0.112 C  
HETATM    7  C   UNL     1      -6.531  14.309  69.236  1.00  0.00    -0.115 C  
HETATM    8  O   UNL     1      -8.555  11.380  68.137  1.00  0.00    -0.140 OA 
HETATM    9  O   UNL     1      -6.552  11.452  69.167  1.00  0.00    -0.077 OA 
HETATM   10  O   UNL     1      -5.565  13.745  69.747  1.00  0.00    -0.092 OA 
HETATM   11  C   UNL     1      -6.613  15.782  69.162  1.00  0.00    -0.148 A  
HETATM   12  C   UNL     1      -7.755  16.387  68.630  1.00  0.00    -0.204 A  
HETATM   13  N   UNL     1      -7.848  17.737  68.550  1.00  0.00    -0.283 NA 
HETATM   14  C   UNL     1      -6.817  18.496  68.996  1.00  0.00    -0.274 A  
HETATM   15  C   UNL     1      -6.965  19.985  68.882  1.00  0.00    -0.293 C  
HETATM   16  C   UNL     1      -5.657  17.951  69.531  1.00  0.00    -0.217 A  
HETATM   17  C   UNL     1      -5.555  16.568  69.619  1.00  0.00    -0.165 A  
ENDBRANCH   2   3
TORSDOF 1
ENDMDL
MODEL      145
REMARK 921   NORMALIZED FREE ENERGY PREDICTED BY IDOCK:   -2.96 KCAL/MOL
REMARK 922        TOTAL FREE ENERGY PREDICTED BY IDOCK:   -3.26 KCAL/MOL
REMARK 923 INTER-LIGAND FREE ENERGY PREDICTED BY IDOCK:   -3.13 KCAL/MOL
REMARK 924 INTRA-LIGAND FREE ENERGY PREDICTED BY IDOCK:   -0.13 KCAL/MOL
REMARK 927      BINDING AFFINITY PREDICTED BY RF-SCORE:    0.00 PKD
ROOT
HETATM    1  C   UNL     1      -8.627   5.639  72.969  1.00  0.00    -0.121 C  
HETATM    2  C   UNL     1      -8.757   5.528  71.456  1.00  0.00    -0.136 C  
ENDROOT
BRANCH   2   3
HETATM    3  N   UNL     1      -9.363   6.737  70.884  1.00  0.00    -0.158 NA 
HETATM    4  C   UNL     1     -10.417   7.412  71.475  1.00  0.00    -0.201 C  
HETATM    5  C   UNL     1     -11.024   8.501  70.978  1.00  0.00    -0.296 C  
HETATM    6  C   UNL     1     -12.143   9.117  71.720  1.00  0.00    -0.376 C  
HETATM    7  C   UNL     1     -10.514   9.015  69.688  1.00  0.00    -0.222 C  
HETATM    8  O   UNL     1     -12.546   8.699  72.796  1.00  0.00    -0.319 OA 
HETATM    9  O   UNL     1     -12.697  10.188  71.111  1.00  0.00    -0.337 OA 
HETATM   10  O   UNL     1     -11.060   9.977  69.150  1.00  0.00    -0.225 OA 
HETATM   11  C   UNL     1      -9.341   8.355  69.079  1.00  0.00    -0.147 A  
HETATM   12  C   UNL     1      -8.786   7.226  69.690  1.00  0.00    -0.141 A  
HETATM   13  N   UNL     1      -7.708   6.608  69.147  1.00  0.00    -0.104 NA 
HETATM   14  C   UNL     1      -7.174   7.098  68.001  1.00  0.00    -0.091 A  
HETATM   15  C   UNL     1      -5.980   6.382  67.442  1.00  0.00    -0.020 C  
HETATM   16  C   UNL     1      -7.682   8.217  67.352  1.00  0.00    -0.102 A  
HETATM   17  C   UNL     1      -8.788   8.854  67.899  1.00  0.00    -0.133 A  
ENDBRANCH   2   3
TORSDOF 1
ENDMDL
MODEL      146
REMARK 921   NORMALIZED FREE ENERGY PREDICTED BY IDOCK:   -2.91 KCAL/MOL
REMARK 922        TOTAL FREE ENERGY PREDICTED BY IDOCK:   -3.20 KCAL/MOL
REMARK 923 INTER-LIGAND FREE ENERGY PREDICTED BY IDOCK:   -3.07 KCAL/MOL
REMARK 924 INTRA-LIGAND FREE ENERGY PREDICTED BY IDOCK:   -0.13 KCAL/MOL
REMARK 927      BINDING AFFINITY PREDICTED BY RF-SCORE:    0.00 PKD
ROOT
HETATM    1  C   UNL     1      -6.256  10.390  70.264  1.00  0.00    -0.122 C  
HETATM    2  C   UNL     1      -7.616   9.709  70.332  1.00  0.00    -0.163 C  
ENDROOT
BRANCH   2   3
HETATM    3  N   UNL     1      -8.476  10.126  69.218  1.00  0.00    -0.152 NA 
HETATM    4  C   UNL     1      -8.555  11.432  68.766  1.00  0.00    -0.083 C  
HETATM    5  C   UNL     1      -9.346  11.869  67.774  1.00  0.00    -0.184 C  
HETATM    6  C   UNL     1      -9.327  13.298  67.400  1.00  0.00    -0.217 C  
HETATM    7  C   UNL     1     -10.203  10.860  67.114  1.00  0.00    -0.210 C  
HETATM    8  O   UNL     1      -8.601  14.123  67.935  1.00  0.00    -0.158 OA 
HETATM    9  O   UNL     1     -10.186  13.629  66.410  1.00  0.00    -0.279 OA 
HETATM   10  O   UNL     1     -10.992  11.203  66.235  1.00  0.00    -0.251 OA 
HETATM   11  C   UNL     1     -10.079   9.448  67.530  1.00  0.00    -0.268 A  
HETATM   12  C   UNL     1      -9.216   9.106  68.576  1.00  0.00    -0.136 A  
HETATM   13  N   UNL     1      -9.086   7.816  68.970  1.00  0.00    -0.145 NA 
HETATM   14  C   UNL     1      -9.807   6.857  68.337  1.00  0.00    -0.143 A  
HETATM   15  C   UNL     1      -9.626   5.444  68.807  1.00  0.00    -0.182 C  
HETATM   16  C   UNL     1     -10.677   7.137  67.291  1.00  0.00    -0.399 A  
HETATM   17  C   UNL     1     -10.819   8.457  66.883  1.00  0.00     0.019 A  
ENDBRANCH   2   3
TORSDOF 1
ENDMDL
MODEL      147
REMARK 921   NORMALIZED FREE ENERGY PREDICTED BY IDOCK:   -2.90 KCAL/MOL
REMARK 922        TOTAL FREE ENERGY PREDICTED BY IDOCK:   -3.20 KCAL/MOL
REMARK 923 INTER-LIGAND FREE ENERGY PREDICTED BY IDOCK:   -3.26 KCAL/MOL
REMARK 924 INTRA-LIGAND FREE ENERGY PREDICTED BY IDOCK:    0.07 KCAL/MOL
REMARK 927      BINDING AFFINITY PREDICTED BY RF-SCORE:    0.00 PKD
ROOT
HETATM    1  C   UNL     1      -6.387   7.294  68.441  1.00  0.00    -0.036 C  
HETATM    2  C   UNL     1      -7.595   7.483  67.534  1.00  0.00    -0.113 C  
ENDROOT
BRANCH   2   3
HETATM    3  N   UNL     1      -8.547   8.442  68.109  1.00  0.00    -0.138 NA 
HETATM    4  C   UNL     1      -8.650   9.756  67.688  1.00  0.00    -0.125 C  
HETATM    5  C   UNL     1      -9.480  10.678  68.200  1.00  0.00    -0.158 C  
HETATM    6  C   UNL     1      -9.478  12.049  67.650  1.00  0.00    -0.185 C  
HETATM    7  C   UNL     1     -10.356  10.240  69.308  1.00  0.00    -0.231 C  
HETATM    8  O   UNL     1      -8.767  12.399  66.720  1.00  0.00    -0.200 OA 
HETATM    9  O   UNL     1     -10.332  12.899  68.263  1.00  0.00    -0.232 OA 
HETATM   10  O   UNL     1     -11.102  11.048  69.860  1.00  0.00    -0.259 OA 
HETATM   11  C   UNL     1     -10.316   8.822  69.721  1.00  0.00    -0.214 A  
HETATM   12  C   UNL     1      -9.411   7.947  69.113  1.00  0.00    -0.155 A  
HETATM   13  N   UNL     1      -9.362   6.642  69.476  1.00  0.00    -0.146 NA 
HETATM   14  C   UNL     1     -10.202   6.194  70.442  1.00  0.00    -0.203 A  
HETATM   15  C   UNL     1     -10.111   4.741  70.806  1.00  0.00    -0.286 C  
HETATM   16  C   UNL     1     -11.123   7.016  71.079  1.00  0.00    -0.295 A  
HETATM   17  C   UNL     1     -11.178   8.355  70.715  1.00  0.00    -0.290 A  
ENDBRANCH   2   3
TORSDOF 1
ENDMDL
MODEL      148
REMARK 921   NORMALIZED FREE ENERGY PREDICTED BY IDOCK:   -2.90 KCAL/MOL
REMARK 922        TOTAL FREE ENERGY PREDICTED BY IDOCK:   -3.19 KCAL/MOL
REMARK 923 INTER-LIGAND FREE ENERGY PREDICTED BY IDOCK:   -3.06 KCAL/MOL
REMARK 924 INTRA-LIGAND FREE ENERGY PREDICTED BY IDOCK:   -0.13 KCAL/MOL
REMARK 927      BINDING AFFINITY PREDICTED BY RF-SCORE:    0.00 PKD
ROOT
HETATM    1  C   UNL     1      -7.397   9.985  65.817  1.00  0.00    -0.117 C  
HETATM    2  C   UNL     1      -7.013   8.694  66.526  1.00  0.00    -0.079 C  
ENDROOT
BRANCH   2   3
HETATM    3  N   UNL     1      -8.184   8.057  67.143  1.00  0.00    -0.116 NA 
HETATM    4  C   UNL     1      -8.811   8.550  68.274  1.00  0.00    -0.142 C  
HETATM    5  C   UNL     1      -9.862   7.991  68.892  1.00  0.00    -0.176 C  
HETATM    6  C   UNL     1     -10.426   8.630  70.098  1.00  0.00    -0.217 C  
HETATM    7  C   UNL     1     -10.389   6.740  68.305  1.00  0.00    -0.187 C  
HETATM    8  O   UNL     1      -9.999   9.676  70.566  1.00  0.00    -0.260 OA 
HETATM    9  O   UNL     1     -11.462   7.963  70.654  1.00  0.00    -0.278 OA 
HETATM   10  O   UNL     1     -11.316   6.146  68.853  1.00  0.00    -0.367 OA 
HETATM   11  C   UNL     1      -9.783   6.238  67.054  1.00  0.00    -0.173 A  
HETATM   12  C   UNL     1      -8.691   6.907  66.495  1.00  0.00    -0.133 A  
HETATM   13  N   UNL     1      -8.124   6.463  65.346  1.00  0.00    -0.123 NA 
HETATM   14  C   UNL     1      -8.629   5.357  64.745  1.00  0.00    -0.117 A  
HETATM   15  C   UNL     1      -7.970   4.908  63.475  1.00  0.00    -0.094 C  
HETATM   16  C   UNL     1      -9.714   4.654  65.254  1.00  0.00    -0.149 A  
HETATM   17  C   UNL     1     -10.299   5.100  66.432  1.00  0.00    -0.332 A  
ENDBRANCH   2   3
TORSDOF 1
ENDMDL
MODEL      149
REMARK 921   NORMALIZED FREE ENERGY PREDICTED BY IDOCK:   -2.89 KCAL/MOL
REMARK 922        TOTAL FREE ENERGY PREDICTED BY IDOCK:   -3.19 KCAL/MOL
REMARK 923 INTER-LIGAND FREE ENERGY PREDICTED BY IDOCK:   -3.12 KCAL/MOL
REMARK 924 INTRA-LIGAND FREE ENERGY PREDICTED BY IDOCK:   -0.07 KCAL/MOL
REMARK 927      BINDING AFFINITY PREDICTED BY RF-SCORE:    0.00 PKD
ROOT
HETATM    1  C   UNL     1      -6.580   4.529  70.761  1.00  0.00    -0.034 C  
HETATM    2  C   UNL     1      -7.759   4.093  69.903  1.00  0.00    -0.052 C  
ENDROOT
BRANCH   2   3
HETATM    3  N   UNL     1      -8.538   5.248  69.441  1.00  0.00    -0.100 NA 
HETATM    4  C   UNL     1      -8.278   5.918  68.258  1.00  0.00    -0.109 C  
HETATM    5  C   UNL     1      -8.939   6.995  67.807  1.00  0.00    -0.121 C  
HETATM    6  C   UNL     1      -8.547   7.608  66.522  1.00  0.00    -0.138 C  
HETATM    7  C   UNL     1     -10.039   7.501  68.656  1.00  0.00    -0.184 C  
HETATM    8  O   UNL     1      -7.651   7.172  65.815  1.00  0.00    -0.087 OA 
HETATM    9  O   UNL     1      -9.262   8.704  66.183  1.00  0.00    -0.184 OA 
HETATM   10  O   UNL     1     -10.651   8.517  68.329  1.00  0.00    -0.198 OA 
HETATM   11  C   UNL     1     -10.383   6.757  69.885  1.00  0.00    -0.229 A  
HETATM   12  C   UNL     1      -9.625   5.642  70.255  1.00  0.00    -0.168 A  
HETATM   13  N   UNL     1      -9.927   4.944  71.378  1.00  0.00    -0.189 NA 
HETATM   14  C   UNL     1     -10.974   5.343  72.141  1.00  0.00    -0.201 A  
HETATM   15  C   UNL     1     -11.270   4.536  73.371  1.00  0.00    -0.404 C  
HETATM   16  C   UNL     1     -11.763   6.441  71.821  1.00  0.00    -0.376 A  
HETATM   17  C   UNL     1     -11.460   7.163  70.675  1.00  0.00    -0.346 A  
ENDBRANCH   2   3
TORSDOF 1
ENDMDL
MODEL      150
REMARK 921   NORMALIZED FREE ENERGY PREDICTED BY IDOCK:   -2.88 KCAL/MOL
REMARK 922        TOTAL FREE ENERGY PREDICTED BY IDOCK:   -3.17 KCAL/MOL
REMARK 923 INTER-LIGAND FREE ENERGY PREDICTED BY IDOCK:   -3.03 KCAL/MOL
REMARK 924 INTRA-LIGAND FREE ENERGY PREDICTED BY IDOCK:   -0.14 KCAL/MOL
REMARK 927      BINDING AFFINITY PREDICTED BY RF-SCORE:    0.00 PKD
ROOT
HETATM    1  C   UNL     1      -6.320   5.989  69.028  1.00  0.00    -0.041 C  
HETATM    2  C   UNL     1      -7.825   6.043  69.249  1.00  0.00    -0.103 C  
ENDROOT
BRANCH   2   3
HETATM    3  N   UNL     1      -8.423   7.192  68.557  1.00  0.00    -0.124 NA 
HETATM    4  C   UNL     1      -8.276   7.425  67.200  1.00  0.00    -0.118 C  
HETATM    5  C   UNL     1      -8.776   8.473  66.528  1.00  0.00    -0.149 C  
HETATM    6  C   UNL     1      -8.534   8.592  65.076  1.00  0.00    -0.173 C  
HETATM    7  C   UNL     1      -9.550   9.457  67.314  1.00  0.00    -0.151 C  
HETATM    8  O   UNL     1      -7.911   7.763  64.428  1.00  0.00    -0.133 OA 
HETATM    9  O   UNL     1      -9.058   9.702  64.510  1.00  0.00    -0.233 OA 
HETATM   10  O   UNL     1      -9.990  10.470  66.771  1.00  0.00    -0.189 OA 
HETATM   11  C   UNL     1      -9.784   9.189  68.748  1.00  0.00    -0.167 A  
HETATM   12  C   UNL     1      -9.216   8.059  69.344  1.00  0.00    -0.152 A  
HETATM   13  N   UNL     1      -9.421   7.795  70.658  1.00  0.00    -0.162 NA 
HETATM   14  C   UNL     1     -10.185   8.643  71.390  1.00  0.00    -0.254 A  
HETATM   15  C   UNL     1     -10.386   8.305  72.838  1.00  0.00    -0.241 C  
HETATM   16  C   UNL     1     -10.776   9.779  70.851  1.00  0.00    -0.375 A  
HETATM   17  C   UNL     1     -10.569  10.059  69.507  1.00  0.00    -0.267 A  
ENDBRANCH   2   3
TORSDOF 1
ENDMDL
MODEL      151
REMARK 921   NORMALIZED FREE ENERGY PREDICTED BY IDOCK:   -2.79 KCAL/MOL
REMARK 922        TOTAL FREE ENERGY PREDICTED BY IDOCK:   -3.08 KCAL/MOL
REMARK 923 INTER-LIGAND FREE ENERGY PREDICTED BY IDOCK:   -2.94 KCAL/MOL
REMARK 924 INTRA-LIGAND FREE ENERGY PREDICTED BY IDOCK:   -0.14 KCAL/MOL
REMARK 927      BINDING AFFINITY PREDICTED BY RF-SCORE:    0.00 PKD
ROOT
HETATM    1  C   UNL     1      -8.449  11.211  67.947  1.00  0.00    -0.131 C  
HETATM    2  C   UNL     1      -9.505  10.572  67.056  1.00  0.00    -0.163 C  
ENDROOT
BRANCH   2   3
HETATM    3  N   UNL     1      -9.709   9.160  67.402  1.00  0.00    -0.154 NA 
HETATM    4  C   UNL     1     -10.395   8.744  68.530  1.00  0.00    -0.199 C  
HETATM    5  C   UNL     1     -10.581   7.469  68.906  1.00  0.00    -0.184 C  
HETATM    6  C   UNL     1     -11.334   7.175  70.142  1.00  0.00    -0.241 C  
HETATM    7  C   UNL     1     -10.002   6.428  68.030  1.00  0.00    -0.135 C  
HETATM    8  O   UNL     1     -11.829   8.040  70.850  1.00  0.00    -0.288 OA 
HETATM    9  O   UNL     1     -11.434   5.860  70.438  1.00  0.00    -0.255 OA 
HETATM   10  O   UNL     1     -10.089   5.241  68.345  1.00  0.00    -0.167 OA 
HETATM   11  C   UNL     1      -9.333   6.846  66.782  1.00  0.00    -0.190 A  
HETATM   12  C   UNL     1      -9.199   8.207  66.489  1.00  0.00    -0.188 A  
HETATM   13  N   UNL     1      -8.591   8.611  65.347  1.00  0.00    -0.174 NA 
HETATM   14  C   UNL     1      -8.110   7.677  64.490  1.00  0.00    -0.098 A  
HETATM   15  C   UNL     1      -7.449   8.174  63.238  1.00  0.00    -0.120 C  
HETATM   16  C   UNL     1      -8.217   6.312  64.727  1.00  0.00    -0.100 A  
HETATM   17  C   UNL     1      -8.836   5.889  65.896  1.00  0.00    -0.154 A  
ENDBRANCH   2   3
TORSDOF 1
ENDMDL
MODEL      152
REMARK 921   NORMALIZED FREE ENERGY PREDICTED BY IDOCK:   -2.78 KCAL/MOL
REMARK 922        TOTAL FREE ENERGY PREDICTED BY IDOCK:   -3.07 KCAL/MOL
REMARK 923 INTER-LIGAND FREE ENERGY PREDICTED BY IDOCK:   -2.95 KCAL/MOL
REMARK 924 INTRA-LIGAND FREE ENERGY PREDICTED BY IDOCK:   -0.12 KCAL/MOL
REMARK 927      BINDING AFFINITY PREDICTED BY RF-SCORE:    0.00 PKD
ROOT
HETATM    1  C   UNL     1     -10.142  10.717  64.306  1.00  0.00    -0.427 C  
HETATM    2  C   UNL     1     -10.797  11.246  65.574  1.00  0.00    -0.179 C  
ENDROOT
BRANCH   2   3
HETATM    3  N   UNL     1      -9.870  11.199  66.711  1.00  0.00    -0.196 NA 
HETATM    4  C   UNL     1      -9.565  10.035  67.397  1.00  0.00    -0.154 C  
HETATM    5  C   UNL     1      -8.750   9.944  68.459  1.00  0.00    -0.121 C  
HETATM    6  C   UNL     1      -8.520   8.630  69.093  1.00  0.00    -0.124 C  
HETATM    7  C   UNL     1      -8.128  11.201  68.928  1.00  0.00    -0.115 C  
HETATM    8  O   UNL     1      -9.021   7.592  68.687  1.00  0.00    -0.133 OA 
HETATM    9  O   UNL     1      -7.706   8.663  70.171  1.00  0.00    -0.073 OA 
HETATM   10  O   UNL     1      -7.414  11.198  69.929  1.00  0.00     0.076 OA 
HETATM   11  C   UNL     1      -8.379  12.441  68.165  1.00  0.00    -0.178 A  
HETATM   12  C   UNL     1      -9.246  12.417  67.068  1.00  0.00    -0.208 A  
HETATM   13  N   UNL     1      -9.487  13.544  66.354  1.00  0.00    -0.254 NA 
HETATM   14  C   UNL     1      -8.877  14.699  66.717  1.00  0.00    -0.241 A  
HETATM   15  C   UNL     1      -9.172  15.917  65.893  1.00  0.00    -0.332 C  
HETATM   16  C   UNL     1      -8.004  14.782  67.795  1.00  0.00    -0.167 A  
HETATM   17  C   UNL     1      -7.754  13.633  68.535  1.00  0.00    -0.129 A  
ENDBRANCH   2   3
TORSDOF 1
ENDMDL
MODEL      153
REMARK 921   NORMALIZED FREE ENERGY PREDICTED BY IDOCK:   -2.77 KCAL/MOL
REMARK 922        TOTAL FREE ENERGY PREDICTED BY IDOCK:   -3.06 KCAL/MOL
REMARK 923 INTER-LIGAND FREE ENERGY PREDICTED BY IDOCK:   -2.92 KCAL/MOL
REMARK 924 INTRA-LIGAND FREE ENERGY PREDICTED BY IDOCK:   -0.14 KCAL/MOL
REMARK 927      BINDING AFFINITY PREDICTED BY RF-SCORE:    0.00 PKD
ROOT
HETATM    1  C   UNL     1      -7.211   6.364  72.005  1.00  0.00    -0.090 C  
HETATM    2  C   UNL     1      -7.715   6.439  70.571  1.00  0.00    -0.105 C  
ENDROOT
BRANCH   2   3
HETATM    3  N   UNL     1      -8.784   7.435  70.433  1.00  0.00    -0.144 NA 
HETATM    4  C   UNL     1     -10.053   7.267  70.959  1.00  0.00    -0.191 C  
HETATM    5  C   UNL     1     -11.072   8.132  70.835  1.00  0.00    -0.280 C  
HETATM    6  C   UNL     1     -12.377   7.816  71.449  1.00  0.00    -0.323 C  
HETATM    7  C   UNL     1     -10.803   9.368  70.070  1.00  0.00    -0.241 C  
HETATM    8  O   UNL     1     -12.587   6.802  72.099  1.00  0.00    -0.248 OA 
HETATM    9  O   UNL     1     -13.337   8.744  71.235  1.00  0.00    -0.270 OA 
HETATM   10  O   UNL     1     -11.708  10.178  69.871  1.00  0.00    -0.237 OA 
HETATM   11  C   UNL     1      -9.435   9.603  69.565  1.00  0.00    -0.211 A  
HETATM   12  C   UNL     1      -8.448   8.631  69.757  1.00  0.00    -0.129 A  
HETATM   13  N   UNL     1      -7.186   8.830  69.304  1.00  0.00    -0.062 NA 
HETATM   14  C   UNL     1      -6.891   9.985  68.658  1.00  0.00    -0.054 A  
HETATM   15  C   UNL     1      -5.480  10.159  68.179  1.00  0.00    -0.038 C  
HETATM   16  C   UNL     1      -7.829  10.987  68.441  1.00  0.00    -0.127 A  
HETATM   17  C   UNL     1      -9.125  10.791  68.899  1.00  0.00    -0.170 A  
ENDBRANCH   2   3
TORSDOF 1
ENDMDL
MODEL      154
REMARK 921   NORMALIZED FREE ENERGY PREDICTED BY IDOCK:   -2.76 KCAL/MOL
REMARK 922        TOTAL FREE ENERGY PREDICTED BY IDOCK:   -3.05 KCAL/MOL
REMARK 923 INTER-LIGAND FREE ENERGY PREDICTED BY IDOCK:   -3.01 KCAL/MOL
REMARK 924 INTRA-LIGAND FREE ENERGY PREDICTED BY IDOCK:   -0.04 KCAL/MOL
REMARK 927      BINDING AFFINITY PREDICTED BY RF-SCORE:    0.00 PKD
ROOT
HETATM    1  C   UNL     1      -9.438   5.073  74.226  1.00  0.00    -0.133 C  
HETATM    2  C   UNL     1     -10.568   4.609  73.317  1.00  0.00    -0.219 C  
ENDROOT
BRANCH   2   3
HETATM    3  N   UNL     1     -10.246   4.847  71.904  1.00  0.00    -0.198 NA 
HETATM    4  C   UNL     1      -9.638   3.905  71.093  1.00  0.00    -0.174 C  
HETATM    5  C   UNL     1      -9.297   4.083  69.808  1.00  0.00    -0.242 C  
HETATM    6  C   UNL     1      -8.649   2.984  69.064  1.00  0.00    -0.073 C  
HETATM    7  C   UNL     1      -9.603   5.404  69.217  1.00  0.00    -0.145 C  
HETATM    8  O   UNL     1      -8.418   1.887  69.553  1.00  0.00    -0.045 OA 
HETATM    9  O   UNL     1      -8.323   3.286  67.788  1.00  0.00    -0.082 OA 
HETATM   10  O   UNL     1      -9.267   5.653  68.060  1.00  0.00    -0.108 OA 
HETATM   11  C   UNL     1     -10.320   6.398  70.043  1.00  0.00    -0.245 A  
HETATM   12  C   UNL     1     -10.630   6.100  71.373  1.00  0.00    -0.243 A  
HETATM   13  N   UNL     1     -11.290   6.998  72.145  1.00  0.00    -0.257 NA 
HETATM   14  C   UNL     1     -11.645   8.193  71.611  1.00  0.00    -0.279 A  
HETATM   15  C   UNL     1     -12.377   9.150  72.504  1.00  0.00    -0.216 C  
HETATM   16  C   UNL     1     -11.366   8.541  70.296  1.00  0.00    -0.135 A  
HETATM   17  C   UNL     1     -10.688   7.629  69.498  1.00  0.00    -0.211 A  
ENDBRANCH   2   3
TORSDOF 1
ENDMDL
MODEL      155
REMARK 921   NORMALIZED FREE ENERGY PREDICTED BY IDOCK:   -2.72 KCAL/MOL
REMARK 922        TOTAL FREE ENERGY PREDICTED BY IDOCK:   -3.00 KCAL/MOL
REMARK 923 INTER-LIGAND FREE ENERGY PREDICTED BY IDOCK:   -2.88 KCAL/MOL
REMARK 924 INTRA-LIGAND FREE ENERGY PREDICTED BY IDOCK:   -0.12 KCAL/MOL
REMARK 927      BINDING AFFINITY PREDICTED BY RF-SCORE:    0.00 PKD
ROOT
HETATM    1  C   UNL     1     -11.494  11.918  67.414  1.00  0.00    -0.393 C  
HETATM    2  C   UNL     1     -10.594  11.282  66.364  1.00  0.00    -0.266 C  
ENDROOT
BRANCH   2   3
HETATM    3  N   UNL     1      -9.818  10.172  66.930  1.00  0.00    -0.187 NA 
HETATM    4  C   UNL     1      -9.895   9.788  68.258  1.00  0.00    -0.148 C  
HETATM    5  C   UNL     1      -9.185   8.803  68.829  1.00  0.00    -0.141 C  
HETATM    6  C   UNL     1      -9.371   8.507  70.264  1.00  0.00    -0.162 C  
HETATM    7  C   UNL     1      -8.243   8.071  67.955  1.00  0.00    -0.129 C  
HETATM    8  O   UNL     1     -10.166   9.102  70.976  1.00  0.00    -0.251 OA 
HETATM    9  O   UNL     1      -8.583   7.516  70.738  1.00  0.00    -0.132 OA 
HETATM   10  O   UNL     1      -7.522   7.193  68.427  1.00  0.00    -0.100 OA 
HETATM   11  C   UNL     1      -8.201   8.413  66.519  1.00  0.00    -0.105 A  
HETATM   12  C   UNL     1      -8.990   9.459  66.032  1.00  0.00    -0.168 A  
HETATM   13  N   UNL     1      -8.967   9.786  64.716  1.00  0.00    -0.209 NA 
HETATM   14  C   UNL     1      -8.165   9.086  63.876  1.00  0.00    -0.172 A  
HETATM   15  C   UNL     1      -8.177   9.484  62.430  1.00  0.00    -0.149 C  
HETATM   16  C   UNL     1      -7.361   8.037  64.304  1.00  0.00    -0.095 A  
HETATM   17  C   UNL     1      -7.376   7.697  65.650  1.00  0.00    -0.073 A  
ENDBRANCH   2   3
TORSDOF 1
ENDMDL
MODEL      156
REMARK 921   NORMALIZED FREE ENERGY PREDICTED BY IDOCK:   -2.71 KCAL/MOL
REMARK 922        TOTAL FREE ENERGY PREDICTED BY IDOCK:   -2.99 KCAL/MOL
REMARK 923 INTER-LIGAND FREE ENERGY PREDICTED BY IDOCK:   -3.13 KCAL/MOL
REMARK 924 INTRA-LIGAND FREE ENERGY PREDICTED BY IDOCK:    0.14 KCAL/MOL
REMARK 927      BINDING AFFINITY PREDICTED BY RF-SCORE:    0.00 PKD
ROOT
HETATM    1  C   UNL     1     -12.035  12.748  67.937  1.00  0.00    -0.320 C  
HETATM    2  C   UNL     1     -11.485  12.323  66.582  1.00  0.00    -0.373 C  
ENDROOT
BRANCH   2   3
HETATM    3  N   UNL     1     -10.169  11.686  66.719  1.00  0.00    -0.213 NA 
HETATM    4  C   UNL     1      -9.963  10.325  66.577  1.00  0.00    -0.224 C  
HETATM    5  C   UNL     1      -8.789   9.692  66.721  1.00  0.00    -0.148 C  
HETATM    6  C   UNL     1      -8.721   8.227  66.542  1.00  0.00    -0.141 C  
HETATM    7  C   UNL     1      -7.620  10.532  67.061  1.00  0.00    -0.107 C  
HETATM    8  O   UNL     1      -9.687   7.542  66.240  1.00  0.00    -0.142 OA 
HETATM    9  O   UNL     1      -7.495   7.695  66.741  1.00  0.00    -0.089 OA 
HETATM   10  O   UNL     1      -6.524  10.009  67.262  1.00  0.00    -0.067 OA 
HETATM   11  C   UNL     1      -7.802  11.996  67.143  1.00  0.00    -0.168 A  
HETATM   12  C   UNL     1      -9.075  12.547  66.969  1.00  0.00    -0.213 A  
HETATM   13  N   UNL     1      -9.261  13.888  67.037  1.00  0.00    -0.241 NA 
HETATM   14  C   UNL     1      -8.196  14.691  67.279  1.00  0.00    -0.212 A  
HETATM   15  C   UNL     1      -8.452  16.168  67.341  1.00  0.00    -0.188 C  
HETATM   16  C   UNL     1      -6.908  14.200  67.457  1.00  0.00    -0.151 A  
HETATM   17  C   UNL     1      -6.708  12.827  67.391  1.00  0.00    -0.138 A  
ENDBRANCH   2   3
TORSDOF 1
ENDMDL
MODEL      157
REMARK 921   NORMALIZED FREE ENERGY PREDICTED BY IDOCK:   -2.70 KCAL/MOL
REMARK 922        TOTAL FREE ENERGY PREDICTED BY IDOCK:   -2.98 KCAL/MOL
REMARK 923 INTER-LIGAND FREE ENERGY PREDICTED BY IDOCK:   -2.85 KCAL/MOL
REMARK 924 INTRA-LIGAND FREE ENERGY PREDICTED BY IDOCK:   -0.12 KCAL/MOL
REMARK 927      BINDING AFFINITY PREDICTED BY RF-SCORE:    0.00 PKD
ROOT
HETATM    1  C   UNL     1      -7.926   6.367  69.835  1.00  0.00    -0.116 C  
HETATM    2  C   UNL     1      -9.099   7.201  69.339  1.00  0.00    -0.145 C  
ENDROOT
BRANCH   2   3
HETATM    3  N   UNL     1      -8.984   7.479  67.902  1.00  0.00    -0.132 NA 
HETATM    4  C   UNL     1      -8.322   6.647  67.016  1.00  0.00    -0.113 C  
HETATM    5  C   UNL     1      -8.163   6.872  65.703  1.00  0.00    -0.134 C  
HETATM    6  C   UNL     1      -7.426   5.893  64.878  1.00  0.00    -0.077 C  
HETATM    7  C   UNL     1      -8.751   8.118  65.166  1.00  0.00    -0.012 C  
HETATM    8  O   UNL     1      -6.960   4.854  65.323  1.00  0.00    -0.059 OA 
HETATM    9  O   UNL     1      -7.302   6.237  63.577  1.00  0.00    -0.057 OA 
HETATM   10  O   UNL     1      -8.595   8.412  63.982  1.00  0.00    -0.050 OA 
HETATM   11  C   UNL     1      -9.528   8.982  66.079  1.00  0.00    -0.323 A  
HETATM   12  C   UNL     1      -9.631   8.646  67.432  1.00  0.00    -0.159 A  
HETATM   13  N   UNL     1     -10.341   9.425  68.284  1.00  0.00    -0.204 NA 
HETATM   14  C   UNL     1     -10.951  10.538  67.808  1.00  0.00    -0.313 A  
HETATM   15  C   UNL     1     -11.729  11.365  68.789  1.00  0.00    -0.404 C  
HETATM   16  C   UNL     1     -10.886  10.920  66.474  1.00  0.00    -0.234 A  
HETATM   17  C   UNL     1     -10.158  10.129  65.594  1.00  0.00    -0.324 A  
ENDBRANCH   2   3
TORSDOF 1
ENDMDL
MODEL      158
REMARK 921   NORMALIZED FREE ENERGY PREDICTED BY IDOCK:   -2.69 KCAL/MOL
REMARK 922        TOTAL FREE ENERGY PREDICTED BY IDOCK:   -2.97 KCAL/MOL
REMARK 923 INTER-LIGAND FREE ENERGY PREDICTED BY IDOCK:   -2.86 KCAL/MOL
REMARK 924 INTRA-LIGAND FREE ENERGY PREDICTED BY IDOCK:   -0.12 KCAL/MOL
REMARK 927      BINDING AFFINITY PREDICTED BY RF-SCORE:    0.00 PKD
ROOT
HETATM    1  C   UNL     1      -5.807  11.394  67.077  1.00  0.00    -0.108 C  
HETATM    2  C   UNL     1      -6.982  10.860  66.271  1.00  0.00    -0.120 C  
ENDROOT
BRANCH   2   3
HETATM    3  N   UNL     1      -8.194  10.763  67.095  1.00  0.00    -0.121 NA 
HETATM    4  C   UNL     1      -9.031  11.837  67.346  1.00  0.00    -0.173 C  
HETATM    5  C   UNL     1     -10.130  11.808  68.115  1.00  0.00    -0.196 C  
HETATM    6  C   UNL     1     -10.928  13.037  68.295  1.00  0.00    -0.260 C  
HETATM    7  C   UNL     1     -10.467  10.512  68.743  1.00  0.00    -0.196 C  
HETATM    8  O   UNL     1     -10.656  14.100  67.756  1.00  0.00    -0.240 OA 
HETATM    9  O   UNL     1     -11.995  12.898  69.113  1.00  0.00    -0.298 OA 
HETATM   10  O   UNL     1     -11.430  10.429  69.503  1.00  0.00    -0.246 OA 
HETATM   11  C   UNL     1      -9.630   9.336  68.427  1.00  0.00    -0.158 A  
HETATM   12  C   UNL     1      -8.508   9.483  67.607  1.00  0.00    -0.122 A  
HETATM   13  N   UNL     1      -7.729   8.415  67.304  1.00  0.00    -0.097 NA 
HETATM   14  C   UNL     1      -8.052   7.199  67.809  1.00  0.00    -0.115 A  
HETATM   15  C   UNL     1      -7.163   6.048  67.442  1.00  0.00    -0.076 C  
HETATM   16  C   UNL     1      -9.157   6.993  68.626  1.00  0.00    -0.132 A  
HETATM   17  C   UNL     1      -9.958   8.082  68.944  1.00  0.00    -0.199 A  
ENDBRANCH   2   3
TORSDOF 1
ENDMDL
MODEL      159
REMARK 921   NORMALIZED FREE ENERGY PREDICTED BY IDOCK:   -2.67 KCAL/MOL
REMARK 922        TOTAL FREE ENERGY PREDICTED BY IDOCK:   -2.95 KCAL/MOL
REMARK 923 INTER-LIGAND FREE ENERGY PREDICTED BY IDOCK:   -2.82 KCAL/MOL
REMARK 924 INTRA-LIGAND FREE ENERGY PREDICTED BY IDOCK:   -0.13 KCAL/MOL
REMARK 927      BINDING AFFINITY PREDICTED BY RF-SCORE:    0.00 PKD
ROOT
HETATM    1  C   UNL     1      -5.993  11.044  65.661  1.00  0.00     0.000 C  
HETATM    2  C   UNL     1      -6.152  11.052  67.175  1.00  0.00    -0.074 C  
ENDROOT
BRANCH   2   3
HETATM    3  N   UNL     1      -7.470  11.566  67.569  1.00  0.00    -0.109 NA 
HETATM    4  C   UNL     1      -8.629  10.811  67.514  1.00  0.00    -0.125 C  
HETATM    5  C   UNL     1      -9.858  11.242  67.833  1.00  0.00    -0.187 C  
HETATM    6  C   UNL     1     -11.008  10.321  67.721  1.00  0.00    -0.300 C  
HETATM    7  C   UNL     1      -9.974  12.646  68.282  1.00  0.00    -0.229 C  
HETATM    8  O   UNL     1     -10.902   9.155  67.369  1.00  0.00    -0.243 OA 
HETATM    9  O   UNL     1     -12.200  10.871  68.039  1.00  0.00    -0.422 OA 
HETATM   10  O   UNL     1     -11.079  13.122  68.538  1.00  0.00    -0.241 OA 
HETATM   11  C   UNL     1      -8.740  13.446  68.422  1.00  0.00    -0.134 A  
HETATM   12  C   UNL     1      -7.508  12.891  68.063  1.00  0.00    -0.125 A  
HETATM   13  N   UNL     1      -6.365  13.608  68.187  1.00  0.00    -0.107 NA 
HETATM   14  C   UNL     1      -6.430  14.876  68.662  1.00  0.00    -0.083 A  
HETATM   15  C   UNL     1      -5.137  15.628  68.784  1.00  0.00    -0.100 C  
HETATM   16  C   UNL     1      -7.624  15.479  69.037  1.00  0.00    -0.180 A  
HETATM   17  C   UNL     1      -8.801  14.752  68.911  1.00  0.00    -0.164 A  
ENDBRANCH   2   3
TORSDOF 1
ENDMDL
MODEL      160
REMARK 921   NORMALIZED FREE ENERGY PREDICTED BY IDOCK:   -2.65 KCAL/MOL
REMARK 922        TOTAL FREE ENERGY PREDICTED BY IDOCK:   -2.93 KCAL/MOL
REMARK 923 INTER-LIGAND FREE ENERGY PREDICTED BY IDOCK:   -2.79 KCAL/MOL
REMARK 924 INTRA-LIGAND FREE ENERGY PREDICTED BY IDOCK:   -0.14 KCAL/MOL
REMARK 927      BINDING AFFINITY PREDICTED BY RF-SCORE:    0.00 PKD
ROOT
HETATM    1  C   UNL     1     -10.732  10.769  66.820  1.00  0.00    -0.291 C  
HETATM    2  C   UNL     1      -9.609  10.137  67.630  1.00  0.00    -0.148 C  
ENDROOT
BRANCH   2   3
HETATM    3  N   UNL     1      -9.303   8.784  67.150  1.00  0.00    -0.145 NA 
HETATM    4  C   UNL     1      -8.739   8.525  65.912  1.00  0.00    -0.174 C  
HETATM    5  C   UNL     1      -8.469   7.308  65.416  1.00  0.00    -0.096 C  
HETATM    6  C   UNL     1      -7.866   7.185  64.073  1.00  0.00    -0.113 C  
HETATM    7  C   UNL     1      -8.805   6.152  66.273  1.00  0.00    -0.146 C  
HETATM    8  O   UNL     1      -7.571   8.146  63.378  1.00  0.00    -0.116 OA 
HETATM    9  O   UNL     1      -7.666   5.912  63.663  1.00  0.00    -0.085 OA 
HETATM   10  O   UNL     1      -8.634   5.007  65.857  1.00  0.00    -0.118 OA 
HETATM   11  C   UNL     1      -9.337   6.408  67.627  1.00  0.00    -0.117 A  
HETATM   12  C   UNL     1      -9.576   7.721  68.042  1.00  0.00    -0.150 A  
HETATM   13  N   UNL     1     -10.061   7.977  69.282  1.00  0.00    -0.193 NA 
HETATM   14  C   UNL     1     -10.315   6.939  70.117  1.00  0.00    -0.199 A  
HETATM   15  C   UNL     1     -10.847   7.273  71.480  1.00  0.00    -0.248 C  
HETATM   16  C   UNL     1     -10.095   5.615  69.761  1.00  0.00    -0.286 A  
HETATM   17  C   UNL     1      -9.601   5.344  68.492  1.00  0.00    -0.169 A  
ENDBRANCH   2   3
TORSDOF 1
ENDMDL
MODEL      161
REMARK 921   NORMALIZED FREE ENERGY PREDICTED BY IDOCK:   -2.63 KCAL/MOL
REMARK 922        TOTAL FREE ENERGY PREDICTED BY IDOCK:   -2.91 KCAL/MOL
REMARK 923 INTER-LIGAND FREE ENERGY PREDICTED BY IDOCK:   -2.79 KCAL/MOL
REMARK 924 INTRA-LIGAND FREE ENERGY PREDICTED BY IDOCK:   -0.12 KCAL/MOL
REMARK 927      BINDING AFFINITY PREDICTED BY RF-SCORE:    0.00 PKD
ROOT
HETATM    1  C   UNL     1      -8.778   9.457  70.610  1.00  0.00    -0.263 C  
HETATM    2  C   UNL     1      -8.537   8.642  69.347  1.00  0.00    -0.127 C  
ENDROOT
BRANCH   2   3
HETATM    3  N   UNL     1      -8.806   9.436  68.142  1.00  0.00    -0.125 NA 
HETATM    4  C   UNL     1      -9.427  10.673  68.168  1.00  0.00    -0.154 C  
HETATM    5  C   UNL     1      -9.722  11.422  67.095  1.00  0.00    -0.200 C  
HETATM    6  C   UNL     1     -10.393  12.726  67.276  1.00  0.00    -0.232 C  
HETATM    7  C   UNL     1      -9.346  10.871  65.776  1.00  0.00    -0.203 C  
HETATM    8  O   UNL     1     -10.682  13.186  68.371  1.00  0.00    -0.239 OA 
HETATM    9  O   UNL     1     -10.668  13.380  66.126  1.00  0.00    -0.280 OA 
HETATM   10  O   UNL     1      -9.636  11.481  64.748  1.00  0.00    -0.230 OA 
HETATM   11  C   UNL     1      -8.614   9.588  65.730  1.00  0.00    -0.152 A  
HETATM   12  C   UNL     1      -8.356   8.894  66.915  1.00  0.00    -0.112 A  
HETATM   13  N   UNL     1      -7.683   7.717  66.894  1.00  0.00    -0.101 NA 
HETATM   14  C   UNL     1      -7.263   7.219  65.705  1.00  0.00    -0.070 A  
HETATM   15  C   UNL     1      -6.520   5.916  65.733  1.00  0.00    -0.043 C  
HETATM   16  C   UNL     1      -7.488   7.866  64.496  1.00  0.00    -0.099 A  
HETATM   17  C   UNL     1      -8.179   9.071  64.508  1.00  0.00    -0.159 A  
ENDBRANCH   2   3
TORSDOF 1
ENDMDL
MODEL      162
REMARK 921   NORMALIZED FREE ENERGY PREDICTED BY IDOCK:   -2.61 KCAL/MOL
REMARK 922        TOTAL FREE ENERGY PREDICTED BY IDOCK:   -2.88 KCAL/MOL
REMARK 923 INTER-LIGAND FREE ENERGY PREDICTED BY IDOCK:   -2.94 KCAL/MOL
REMARK 924 INTRA-LIGAND FREE ENERGY PREDICTED BY IDOCK:    0.06 KCAL/MOL
REMARK 927      BINDING AFFINITY PREDICTED BY RF-SCORE:    0.00 PKD
ROOT
HETATM    1  C   UNL     1      -9.694   8.116  72.768  1.00  0.00    -0.351 C  
HETATM    2  C   UNL     1     -10.464   7.841  71.484  1.00  0.00    -0.205 C  
ENDROOT
BRANCH   2   3
HETATM    3  N   UNL     1     -10.021   8.725  70.399  1.00  0.00    -0.182 NA 
HETATM    4  C   UNL     1     -10.655   9.913  70.077  1.00  0.00    -0.288 C  
HETATM    5  C   UNL     1     -10.309  10.738  69.077  1.00  0.00    -0.235 C  
HETATM    6  C   UNL     1     -11.084  11.975  68.849  1.00  0.00    -0.247 C  
HETATM    7  C   UNL     1      -9.147  10.336  68.257  1.00  0.00    -0.139 C  
HETATM    8  O   UNL     1     -12.031  12.312  69.545  1.00  0.00    -0.302 OA 
HETATM    9  O   UNL     1     -10.664  12.713  67.798  1.00  0.00    -0.213 OA 
HETATM   10  O   UNL     1      -8.809  11.019  67.291  1.00  0.00    -0.134 OA 
HETATM   11  C   UNL     1      -8.408   9.112  68.630  1.00  0.00    -0.126 A  
HETATM   12  C   UNL     1      -8.859   8.328  69.696  1.00  0.00    -0.139 A  
HETATM   13  N   UNL     1      -8.194   7.203  70.056  1.00  0.00    -0.134 NA 
HETATM   14  C   UNL     1      -7.083   6.844  69.366  1.00  0.00    -0.079 A  
HETATM   15  C   UNL     1      -6.379   5.594  69.804  1.00  0.00    -0.034 C  
HETATM   16  C   UNL     1      -6.588   7.585  68.300  1.00  0.00    -0.050 A  
HETATM   17  C   UNL     1      -7.265   8.738  67.923  1.00  0.00    -0.084 A  
ENDBRANCH   2   3
TORSDOF 1
ENDMDL
MODEL      163
REMARK 921   NORMALIZED FREE ENERGY PREDICTED BY IDOCK:   -2.57 KCAL/MOL
REMARK 922        TOTAL FREE ENERGY PREDICTED BY IDOCK:   -2.84 KCAL/MOL
REMARK 923 INTER-LIGAND FREE ENERGY PREDICTED BY IDOCK:   -2.71 KCAL/MOL
REMARK 924 INTRA-LIGAND FREE ENERGY PREDICTED BY IDOCK:   -0.13 KCAL/MOL
REMARK 927      BINDING AFFINITY PREDICTED BY RF-SCORE:    0.00 PKD
ROOT
HETATM    1  C   UNL     1     -11.721   8.093  72.553  1.00  0.00    -0.457 C  
HETATM    2  C   UNL     1     -10.331   7.870  71.974  1.00  0.00    -0.225 C  
ENDROOT
BRANCH   2   3
HETATM    3  N   UNL     1     -10.102   6.451  71.671  1.00  0.00    -0.186 NA 
HETATM    4  C   UNL     1     -10.447   5.424  72.532  1.00  0.00    -0.214 C  
HETATM    5  C   UNL     1     -10.232   4.117  72.316  1.00  0.00    -0.234 C  
HETATM    6  C   UNL     1     -10.653   3.130  73.331  1.00  0.00    -0.182 C  
HETATM    7  C   UNL     1      -9.569   3.755  71.045  1.00  0.00    -0.179 C  
HETATM    8  O   UNL     1     -11.219   3.435  74.371  1.00  0.00     0.141 OA 
HETATM    9  O   UNL     1     -10.358   1.848  73.021  1.00  0.00    -0.105 OA 
HETATM   10  O   UNL     1      -9.293   2.580  70.808  1.00  0.00    -0.121 OA 
HETATM   11  C   UNL     1      -9.261   4.829  70.078  1.00  0.00    -0.178 A  
HETATM   12  C   UNL     1      -9.535   6.159  70.409  1.00  0.00    -0.161 A  
HETATM   13  N   UNL     1      -9.262   7.158  69.534  1.00  0.00    -0.149 NA 
HETATM   14  C   UNL     1      -8.718   6.851  68.331  1.00  0.00    -0.124 A  
HETATM   15  C   UNL     1      -8.438   7.991  67.396  1.00  0.00    -0.126 C  
HETATM   16  C   UNL     1      -8.428   5.548  67.947  1.00  0.00    -0.098 A  
HETATM   17  C   UNL     1      -8.701   4.518  68.838  1.00  0.00    -0.111 A  
ENDBRANCH   2   3
TORSDOF 1
ENDMDL
MODEL      164
REMARK 921   NORMALIZED FREE ENERGY PREDICTED BY IDOCK:   -2.57 KCAL/MOL
REMARK 922        TOTAL FREE ENERGY PREDICTED BY IDOCK:   -2.84 KCAL/MOL
REMARK 923 INTER-LIGAND FREE ENERGY PREDICTED BY IDOCK:   -2.71 KCAL/MOL
REMARK 924 INTRA-LIGAND FREE ENERGY PREDICTED BY IDOCK:   -0.13 KCAL/MOL
REMARK 927      BINDING AFFINITY PREDICTED BY RF-SCORE:    0.00 PKD
ROOT
HETATM    1  C   UNL     1      -8.034   7.293  68.208  1.00  0.00    -0.124 C  
HETATM    2  C   UNL     1      -8.272   8.784  68.014  1.00  0.00    -0.118 C  
ENDROOT
BRANCH   2   3
HETATM    3  N   UNL     1      -8.125   9.167  66.604  1.00  0.00    -0.110 NA 
HETATM    4  C   UNL     1      -7.238   8.552  65.737  1.00  0.00    -0.076 C  
HETATM    5  C   UNL     1      -7.044   8.884  64.451  1.00  0.00    -0.089 C  
HETATM    6  C   UNL     1      -6.057   8.138  63.645  1.00  0.00    -0.071 C  
HETATM    7  C   UNL     1      -7.855  10.004  63.926  1.00  0.00    -0.150 C  
HETATM    8  O   UNL     1      -5.406   7.199  64.079  1.00  0.00    -0.028 OA 
HETATM    9  O   UNL     1      -5.925   8.578  62.374  1.00  0.00    -0.083 OA 
HETATM   10  O   UNL     1      -7.688  10.395  62.772  1.00  0.00    -0.145 OA 
HETATM   11  C   UNL     1      -8.861  10.624  64.812  1.00  0.00    -0.196 A  
HETATM   12  C   UNL     1      -8.978  10.193  66.137  1.00  0.00    -0.150 A  
HETATM   13  N   UNL     1      -9.898  10.747  66.964  1.00  0.00    -0.183 NA 
HETATM   14  C   UNL     1     -10.704  11.730  66.491  1.00  0.00    -0.265 A  
HETATM   15  C   UNL     1     -11.708  12.309  67.444  1.00  0.00    -0.405 C  
HETATM   16  C   UNL     1     -10.634  12.196  65.184  1.00  0.00    -0.324 A  
HETATM   17  C   UNL     1      -9.693  11.636  64.330  1.00  0.00    -0.199 A  
ENDBRANCH   2   3
TORSDOF 1
ENDMDL
MODEL      165
REMARK 921   NORMALIZED FREE ENERGY PREDICTED BY IDOCK:   -2.52 KCAL/MOL
REMARK 922        TOTAL FREE ENERGY PREDICTED BY IDOCK:   -2.79 KCAL/MOL
REMARK 923 INTER-LIGAND FREE ENERGY PREDICTED BY IDOCK:   -2.65 KCAL/MOL
REMARK 924 INTRA-LIGAND FREE ENERGY PREDICTED BY IDOCK:   -0.14 KCAL/MOL
REMARK 927      BINDING AFFINITY PREDICTED BY RF-SCORE:    0.00 PKD
ROOT
HETATM    1  C   UNL     1      -7.078   3.260  69.974  1.00  0.00    -0.041 C  
HETATM    2  C   UNL     1      -8.494   2.893  69.555  1.00  0.00    -0.062 C  
ENDROOT
BRANCH   2   3
HETATM    3  N   UNL     1      -9.231   4.072  69.080  1.00  0.00    -0.138 NA 
HETATM    4  C   UNL     1      -9.594   5.124  69.902  1.00  0.00    -0.174 C  
HETATM    5  C   UNL     1     -10.291   6.206  69.525  1.00  0.00    -0.277 C  
HETATM    6  C   UNL     1     -10.610   7.253  70.517  1.00  0.00    -0.222 C  
HETATM    7  C   UNL     1     -10.702   6.270  68.105  1.00  0.00    -0.293 C  
HETATM    8  O   UNL     1     -10.250   7.205  71.684  1.00  0.00    -0.193 OA 
HETATM    9  O   UNL     1     -11.342   8.281  70.032  1.00  0.00    -0.154 OA 
HETATM   10  O   UNL     1     -11.390   7.207  67.705  1.00  0.00    -0.011 OA 
HETATM   11  C   UNL     1     -10.260   5.194  67.194  1.00  0.00    -0.254 A  
HETATM   12  C   UNL     1      -9.531   4.114  67.699  1.00  0.00    -0.180 A  
HETATM   13  N   UNL     1      -9.114   3.119  66.878  1.00  0.00    -0.162 NA 
HETATM   14  C   UNL     1      -9.415   3.183  65.557  1.00  0.00    -0.077 A  
HETATM   15  C   UNL     1      -8.928   2.060  64.689  1.00  0.00    -0.121 C  
HETATM   16  C   UNL     1     -10.134   4.233  65.000  1.00  0.00    -0.207 A  
HETATM   17  C   UNL     1     -10.567   5.255  65.834  1.00  0.00    -0.087 A  
ENDBRANCH   2   3
TORSDOF 1
ENDMDL
MODEL      166
REMARK 921   NORMALIZED FREE ENERGY PREDICTED BY IDOCK:   -2.47 KCAL/MOL
REMARK 922        TOTAL FREE ENERGY PREDICTED BY IDOCK:   -2.74 KCAL/MOL
REMARK 923 INTER-LIGAND FREE ENERGY PREDICTED BY IDOCK:   -2.66 KCAL/MOL
REMARK 924 INTRA-LIGAND FREE ENERGY PREDICTED BY IDOCK:   -0.08 KCAL/MOL
REMARK 927      BINDING AFFINITY PREDICTED BY RF-SCORE:    0.00 PKD
ROOT
HETATM    1  C   UNL     1      -6.236   5.722  69.035  1.00  0.00    -0.029 C  
HETATM    2  C   UNL     1      -6.015   7.177  69.426  1.00  0.00    -0.026 C  
ENDROOT
BRANCH   2   3
HETATM    3  N   UNL     1      -7.288   7.904  69.509  1.00  0.00    -0.085 NA 
HETATM    4  C   UNL     1      -7.926   8.451  68.409  1.00  0.00    -0.118 C  
HETATM    5  C   UNL     1      -9.071   9.149  68.436  1.00  0.00    -0.132 C  
HETATM    6  C   UNL     1      -9.635   9.678  67.177  1.00  0.00    -0.166 C  
HETATM    7  C   UNL     1      -9.699   9.343  69.761  1.00  0.00    -0.199 C  
HETATM    8  O   UNL     1      -9.122   9.495  66.083  1.00  0.00    -0.148 OA 
HETATM    9  O   UNL     1     -10.774  10.389  67.329  1.00  0.00    -0.255 OA 
HETATM   10  O   UNL     1     -10.721  10.020  69.864  1.00  0.00    -0.245 OA 
HETATM   11  C   UNL     1      -9.076   8.704  70.938  1.00  0.00    -0.229 A  
HETATM   12  C   UNL     1      -7.881   7.994  70.790  1.00  0.00    -0.091 A  
HETATM   13  N   UNL     1      -7.295   7.398  71.858  1.00  0.00    -0.077 NA 
HETATM   14  C   UNL     1      -7.884   7.500  73.075  1.00  0.00    -0.101 A  
HETATM   15  C   UNL     1      -7.200   6.819  74.224  1.00  0.00    -0.093 C  
HETATM   16  C   UNL     1      -9.072   8.189  73.281  1.00  0.00    -0.327 A  
HETATM   17  C   UNL     1      -9.677   8.806  72.193  1.00  0.00    -0.335 A  
ENDBRANCH   2   3
TORSDOF 1
ENDMDL
MODEL      167
REMARK 921   NORMALIZED FREE ENERGY PREDICTED BY IDOCK:   -2.46 KCAL/MOL
REMARK 922        TOTAL FREE ENERGY PREDICTED BY IDOCK:   -2.72 KCAL/MOL
REMARK 923 INTER-LIGAND FREE ENERGY PREDICTED BY IDOCK:   -3.22 KCAL/MOL
REMARK 924 INTRA-LIGAND FREE ENERGY PREDICTED BY IDOCK:    0.50 KCAL/MOL
REMARK 927      BINDING AFFINITY PREDICTED BY RF-SCORE:    0.00 PKD
ROOT
HETATM    1  C   UNL     1     -10.458  12.992  66.887  1.00  0.00    -0.258 C  
HETATM    2  C   UNL     1      -9.130  12.612  67.527  1.00  0.00    -0.192 C  
ENDROOT
BRANCH   2   3
HETATM    3  N   UNL     1      -9.181  11.257  68.092  1.00  0.00    -0.164 NA 
HETATM    4  C   UNL     1      -8.291  10.255  67.746  1.00  0.00    -0.110 C  
HETATM    5  C   UNL     1      -8.313   8.996  68.209  1.00  0.00    -0.121 C  
HETATM    6  C   UNL     1      -7.297   8.029  67.746  1.00  0.00    -0.093 C  
HETATM    7  C   UNL     1      -9.384   8.662  69.173  1.00  0.00    -0.153 C  
HETATM    8  O   UNL     1      -6.402   8.317  66.966  1.00  0.00    -0.054 OA 
HETATM    9  O   UNL     1      -7.435   6.784  68.255  1.00  0.00    -0.094 OA 
HETATM   10  O   UNL     1      -9.495   7.512  69.595  1.00  0.00    -0.157 OA 
HETATM   11  C   UNL     1     -10.297   9.736  69.614  1.00  0.00    -0.259 A  
HETATM   12  C   UNL     1     -10.178  11.016  69.065  1.00  0.00    -0.200 A  
HETATM   13  N   UNL     1     -11.005  12.016  69.459  1.00  0.00    -0.072 NA 
HETATM   14  C   UNL     1     -11.954  11.758  70.393  1.00  0.00    -0.332 A  
HETATM   15  C   UNL     1     -12.841  12.897  70.799  1.00  0.00    -0.128 C  
HETATM   16  C   UNL     1     -12.116  10.507  70.975  1.00  0.00    -0.492 A  
HETATM   17  C   UNL     1     -11.276   9.476  70.575  1.00  0.00    -0.345 A  
ENDBRANCH   2   3
TORSDOF 1
ENDMDL
MODEL      168
REMARK 921   NORMALIZED FREE ENERGY PREDICTED BY IDOCK:   -2.39 KCAL/MOL
REMARK 922        TOTAL FREE ENERGY PREDICTED BY IDOCK:   -2.66 KCAL/MOL
REMARK 923 INTER-LIGAND FREE ENERGY PREDICTED BY IDOCK:   -2.52 KCAL/MOL
REMARK 924 INTRA-LIGAND FREE ENERGY PREDICTED BY IDOCK:   -0.14 KCAL/MOL
REMARK 927      BINDING AFFINITY PREDICTED BY RF-SCORE:    0.00 PKD
ROOT
HETATM    1  C   UNL     1     -11.504  10.675  69.256  1.00  0.00    -0.351 C  
HETATM    2  C   UNL     1     -10.180  10.104  69.744  1.00  0.00    -0.247 C  
ENDROOT
BRANCH   2   3
HETATM    3  N   UNL     1      -9.463   9.421  68.660  1.00  0.00    -0.145 NA 
HETATM    4  C   UNL     1      -9.885   8.226  68.103  1.00  0.00    -0.172 C  
HETATM    5  C   UNL     1      -9.251   7.548  67.134  1.00  0.00    -0.161 C  
HETATM    6  C   UNL     1      -9.820   6.278  66.639  1.00  0.00    -0.154 C  
HETATM    7  C   UNL     1      -7.995   8.138  66.624  1.00  0.00    -0.102 C  
HETATM    8  O   UNL     1     -10.870   5.806  67.050  1.00  0.00    -0.291 OA 
HETATM    9  O   UNL     1      -9.082   5.667  65.685  1.00  0.00    -0.157 OA 
HETATM   10  O   UNL     1      -7.335   7.541  65.775  1.00  0.00    -0.067 OA 
HETATM   11  C   UNL     1      -7.567   9.450  67.150  1.00  0.00    -0.091 A  
HETATM   12  C   UNL     1      -8.310  10.069  68.159  1.00  0.00    -0.113 A  
HETATM   13  N   UNL     1      -7.935  11.275  68.653  1.00  0.00    -0.140 NA 
HETATM   14  C   UNL     1      -6.825  11.875  68.156  1.00  0.00    -0.071 A  
HETATM   15  C   UNL     1      -6.453  13.209  68.731  1.00  0.00    -0.095 C  
HETATM   16  C   UNL     1      -6.050  11.308  67.152  1.00  0.00    -0.091 A  
HETATM   17  C   UNL     1      -6.425  10.072  66.642  1.00  0.00    -0.072 A  
ENDBRANCH   2   3
TORSDOF 1
ENDMDL
MODEL      169
REMARK 921   NORMALIZED FREE ENERGY PREDICTED BY IDOCK:   -2.29 KCAL/MOL
REMARK 922        TOTAL FREE ENERGY PREDICTED BY IDOCK:   -2.54 KCAL/MOL
REMARK 923 INTER-LIGAND FREE ENERGY PREDICTED BY IDOCK:   -2.41 KCAL/MOL
REMARK 924 INTRA-LIGAND FREE ENERGY PREDICTED BY IDOCK:   -0.14 KCAL/MOL
REMARK 927      BINDING AFFINITY PREDICTED BY RF-SCORE:    0.00 PKD
ROOT
HETATM    1  C   UNL     1     -10.820   6.512  69.102  1.00  0.00    -0.354 C  
HETATM    2  C   UNL     1      -9.349   6.728  68.773  1.00  0.00    -0.132 C  
ENDROOT
BRANCH   2   3
HETATM    3  N   UNL     1      -9.184   7.311  67.436  1.00  0.00    -0.126 NA 
HETATM    4  C   UNL     1      -9.695   8.546  67.075  1.00  0.00    -0.204 C  
HETATM    5  C   UNL     1      -9.597   9.108  65.861  1.00  0.00    -0.343 C  
HETATM    6  C   UNL     1     -10.198  10.436  65.619  1.00  0.00    -0.238 C  
HETATM    7  C   UNL     1      -8.878   8.333  64.827  1.00  0.00     0.179 C  
HETATM    8  O   UNL     1     -10.773  11.080  66.485  1.00  0.00    -0.261 OA 
HETATM    9  O   UNL     1     -10.064  10.889  64.353  1.00  0.00    -0.288 OA 
HETATM   10  O   UNL     1      -8.799   8.765  63.678  1.00  0.00    -0.044 OA 
HETATM   11  C   UNL     1      -8.259   7.048  65.211  1.00  0.00    -0.128 A  
HETATM   12  C   UNL     1      -8.422   6.560  66.510  1.00  0.00    -0.120 A  
HETATM   13  N   UNL     1      -7.859   5.385  66.882  1.00  0.00    -0.100 NA 
HETATM   14  C   UNL     1      -7.135   4.684  65.975  1.00  0.00    -0.075 A  
HETATM   15  C   UNL     1      -6.528   3.391  66.436  1.00  0.00    -0.036 C  
HETATM   16  C   UNL     1      -6.936   5.121  64.672  1.00  0.00    -0.050 A  
HETATM   17  C   UNL     1      -7.512   6.323  64.281  1.00  0.00    -0.086 A  
ENDBRANCH   2   3
TORSDOF 1
ENDMDL
MODEL      170
REMARK 921   NORMALIZED FREE ENERGY PREDICTED BY IDOCK:   -2.18 KCAL/MOL
REMARK 922        TOTAL FREE ENERGY PREDICTED BY IDOCK:   -2.44 KCAL/MOL
REMARK 923 INTER-LIGAND FREE ENERGY PREDICTED BY IDOCK:   -3.06 KCAL/MOL
REMARK 924 INTRA-LIGAND FREE ENERGY PREDICTED BY IDOCK:    0.63 KCAL/MOL
REMARK 927      BINDING AFFINITY PREDICTED BY RF-SCORE:    0.00 PKD
ROOT
HETATM    1  C   UNL     1     -11.206  11.721  65.127  1.00  0.00    -0.311 C  
HETATM    2  C   UNL     1     -10.484  13.003  64.732  1.00  0.00    -0.363 C  
ENDROOT
BRANCH   2   3
HETATM    3  N   UNL     1      -9.678  13.523  65.843  1.00  0.00    -0.229 NA 
HETATM    4  C   UNL     1      -9.823  14.800  66.356  1.00  0.00    -0.280 C  
HETATM    5  C   UNL     1      -9.092  15.332  67.348  1.00  0.00    -0.201 C  
HETATM    6  C   UNL     1      -9.358  16.716  67.791  1.00  0.00    -0.222 C  
HETATM    7  C   UNL     1      -8.044  14.470  67.936  1.00  0.00    -0.148 C  
HETATM    8  O   UNL     1     -10.240  17.416  67.314  1.00  0.00    -0.305 OA 
HETATM    9  O   UNL     1      -8.542  17.157  68.774  1.00  0.00    -0.268 OA 
HETATM   10  O   UNL     1      -7.302  14.914  68.811  1.00  0.00    -0.112 OA 
HETATM   11  C   UNL     1      -7.923  13.079  67.456  1.00  0.00    -0.177 A  
HETATM   12  C   UNL     1      -8.744  12.629  66.417  1.00  0.00     0.088 A  
HETATM   13  N   UNL     1      -8.650  11.355  65.965  1.00  0.00    -0.140 NA 
HETATM   14  C   UNL     1      -7.745  10.519  66.532  1.00  0.00    -0.131 A  
HETATM   15  C   UNL     1      -7.682   9.117  66.000  1.00  0.00    -0.095 C  
HETATM   16  C   UNL     1      -6.906  10.909  67.569  1.00  0.00    -0.079 A  
HETATM   17  C   UNL     1      -6.994  12.213  68.036  1.00  0.00    -0.090 A  
ENDBRANCH   2   3
TORSDOF 1
ENDMDL
MODEL      171
REMARK 921   NORMALIZED FREE ENERGY PREDICTED BY IDOCK:   -2.18 KCAL/MOL
REMARK 922        TOTAL FREE ENERGY PREDICTED BY IDOCK:   -2.43 KCAL/MOL
REMARK 923 INTER-LIGAND FREE ENERGY PREDICTED BY IDOCK:   -2.30 KCAL/MOL
REMARK 924 INTRA-LIGAND FREE ENERGY PREDICTED BY IDOCK:   -0.14 KCAL/MOL
REMARK 927      BINDING AFFINITY PREDICTED BY RF-SCORE:    0.00 PKD
ROOT
HETATM    1  C   UNL     1     -11.758  10.139  69.235  1.00  0.00    -0.065 C  
HETATM    2  C   UNL     1     -10.395  10.181  69.914  1.00  0.00    -0.261 C  
ENDROOT
BRANCH   2   3
HETATM    3  N   UNL     1      -9.474   9.206  69.318  1.00  0.00    -0.155 NA 
HETATM    4  C   UNL     1      -9.166   9.175  67.969  1.00  0.00    -0.134 C  
HETATM    5  C   UNL     1      -8.356   8.288  67.372  1.00  0.00    -0.125 C  
HETATM    6  C   UNL     1      -8.122   8.376  65.916  1.00  0.00    -0.110 C  
HETATM    7  C   UNL     1      -7.744   7.259  68.240  1.00  0.00    -0.120 C  
HETATM    8  O   UNL     1      -8.615   9.242  65.207  1.00  0.00    -0.146 OA 
HETATM    9  O   UNL     1      -7.314   7.414  65.419  1.00  0.00    -0.066 OA 
HETATM   10  O   UNL     1      -7.034   6.382  67.748  1.00  0.00    -0.070 OA 
HETATM   11  C   UNL     1      -7.998   7.320  69.694  1.00  0.00    -0.127 A  
HETATM   12  C   UNL     1      -8.859   8.294  70.207  1.00  0.00    -0.141 A  
HETATM   13  N   UNL     1      -9.102   8.367  71.539  1.00  0.00    -0.176 NA 
HETATM   14  C   UNL     1      -8.501   7.480  72.369  1.00  0.00    -0.108 A  
HETATM   15  C   UNL     1      -8.799   7.605  73.834  1.00  0.00    -0.311 C  
HETATM   16  C   UNL     1      -7.634   6.494  71.916  1.00  0.00    -0.094 A  
HETATM   17  C   UNL     1      -7.381   6.409  70.553  1.00  0.00    -0.085 A  
ENDBRANCH   2   3
TORSDOF 1
ENDMDL
MODEL      172
REMARK 921   NORMALIZED FREE ENERGY PREDICTED BY IDOCK:   -2.11 KCAL/MOL
REMARK 922        TOTAL FREE ENERGY PREDICTED BY IDOCK:   -2.35 KCAL/MOL
REMARK 923 INTER-LIGAND FREE ENERGY PREDICTED BY IDOCK:   -2.22 KCAL/MOL
REMARK 924 INTRA-LIGAND FREE ENERGY PREDICTED BY IDOCK:   -0.13 KCAL/MOL
REMARK 927      BINDING AFFINITY PREDICTED BY RF-SCORE:    0.00 PKD
ROOT
HETATM    1  C   UNL     1      -9.682   8.630  69.788  1.00  0.00    -0.176 C  
HETATM    2  C   UNL     1      -8.466   7.809  69.382  1.00  0.00    -0.134 C  
ENDROOT
BRANCH   2   3
HETATM    3  N   UNL     1      -8.470   6.494  70.035  1.00  0.00    -0.134 NA 
HETATM    4  C   UNL     1      -8.182   6.309  71.376  1.00  0.00    -0.122 C  
HETATM    5  C   UNL     1      -8.143   5.128  72.012  1.00  0.00    -0.113 C  
HETATM    6  C   UNL     1      -7.816   5.084  73.452  1.00  0.00    -0.100 C  
HETATM    7  C   UNL     1      -8.435   3.927  71.200  1.00  0.00    -0.076 C  
HETATM    8  O   UNL     1      -7.597   6.082  74.122  1.00  0.00    -0.091 OA 
HETATM    9  O   UNL     1      -7.776   3.840  73.979  1.00  0.00    -0.075 OA 
HETATM   10  O   UNL     1      -8.363   2.809  71.707  1.00  0.00    -0.057 OA 
HETATM   11  C   UNL     1      -8.819   4.108  69.785  1.00  0.00    -0.138 A  
HETATM   12  C   UNL     1      -8.831   5.390  69.228  1.00  0.00    -0.101 A  
HETATM   13  N   UNL     1      -9.183   5.576  67.932  1.00  0.00    -0.108 NA 
HETATM   14  C   UNL     1      -9.524   4.501  67.180  1.00  0.00    -0.162 A  
HETATM   15  C   UNL     1      -9.910   4.759  65.753  1.00  0.00    -0.214 C  
HETATM   16  C   UNL     1      -9.533   3.205  67.680  1.00  0.00    -0.202 A  
HETATM   17  C   UNL     1      -9.171   3.004  69.006  1.00  0.00    -0.222 A  
ENDBRANCH   2   3
TORSDOF 1
ENDMDL
MODEL      173
REMARK 921   NORMALIZED FREE ENERGY PREDICTED BY IDOCK:   -2.03 KCAL/MOL
REMARK 922        TOTAL FREE ENERGY PREDICTED BY IDOCK:   -2.28 KCAL/MOL
REMARK 923 INTER-LIGAND FREE ENERGY PREDICTED BY IDOCK:   -2.15 KCAL/MOL
REMARK 924 INTRA-LIGAND FREE ENERGY PREDICTED BY IDOCK:   -0.13 KCAL/MOL
REMARK 927      BINDING AFFINITY PREDICTED BY RF-SCORE:    0.00 PKD
ROOT
HETATM    1  C   UNL     1     -10.152  10.617  66.045  1.00  0.00    -0.308 C  
HETATM    2  C   UNL     1      -9.522  10.870  67.408  1.00  0.00    -0.155 C  
ENDROOT
BRANCH   2   3
HETATM    3  N   UNL     1      -8.946   9.639  67.964  1.00  0.00    -0.123 NA 
HETATM    4  C   UNL     1      -9.375   8.371  67.611  1.00  0.00    -0.137 C  
HETATM    5  C   UNL     1      -8.903   7.219  68.112  1.00  0.00    -0.126 C  
HETATM    6  C   UNL     1      -9.461   5.935  67.641  1.00  0.00    -0.110 C  
HETATM    7  C   UNL     1      -7.833   7.325  69.127  1.00  0.00    -0.117 C  
HETATM    8  O   UNL     1     -10.331   5.853  66.786  1.00  0.00    -0.199 OA 
HETATM    9  O   UNL     1      -8.932   4.842  68.236  1.00  0.00    -0.105 OA 
HETATM   10  O   UNL     1      -7.394   6.311  69.667  1.00  0.00    -0.075 OA 
HETATM   11  C   UNL     1      -7.308   8.665  69.462  1.00  0.00    -0.068 A  
HETATM   12  C   UNL     1      -7.875   9.799  68.873  1.00  0.00    -0.087 A  
HETATM   13  N   UNL     1      -7.405  11.036  69.166  1.00  0.00    -0.116 NA 
HETATM   14  C   UNL     1      -6.377  11.162  70.041  1.00  0.00    -0.147 A  
HETATM   15  C   UNL     1      -5.890  12.552  70.330  1.00  0.00    -0.159 C  
HETATM   16  C   UNL     1      -5.774  10.071  70.655  1.00  0.00    -0.080 A  
HETATM   17  C   UNL     1      -6.250   8.800  70.363  1.00  0.00    -0.038 A  
ENDBRANCH   2   3
TORSDOF 1
ENDMDL
MODEL      174
REMARK 921   NORMALIZED FREE ENERGY PREDICTED BY IDOCK:   -2.02 KCAL/MOL
REMARK 922        TOTAL FREE ENERGY PREDICTED BY IDOCK:   -2.27 KCAL/MOL
REMARK 923 INTER-LIGAND FREE ENERGY PREDICTED BY IDOCK:   -2.14 KCAL/MOL
REMARK 924 INTRA-LIGAND FREE ENERGY PREDICTED BY IDOCK:   -0.13 KCAL/MOL
REMARK 927      BINDING AFFINITY PREDICTED BY RF-SCORE:    0.00 PKD
ROOT
HETATM    1  C   UNL     1      -8.902   5.105  70.088  1.00  0.00    -0.139 C  
HETATM    2  C   UNL     1      -9.310   6.399  69.397  1.00  0.00    -0.141 C  
ENDROOT
BRANCH   2   3
HETATM    3  N   UNL     1      -8.992   6.361  67.964  1.00  0.00    -0.116 NA 
HETATM    4  C   UNL     1      -9.031   5.203  67.206  1.00  0.00    -0.112 C  
HETATM    5  C   UNL     1      -8.720   5.110  65.904  1.00  0.00    -0.135 C  
HETATM    6  C   UNL     1      -8.805   3.802  65.224  1.00  0.00    -0.120 C  
HETATM    7  C   UNL     1      -8.302   6.358  65.231  1.00  0.00    -0.131 C  
HETATM    8  O   UNL     1      -9.173   2.777  65.782  1.00  0.00    -0.149 OA 
HETATM    9  O   UNL     1      -8.441   3.821  63.923  1.00  0.00    -0.090 OA 
HETATM   10  O   UNL     1      -7.951   6.334  64.052  1.00  0.00    -0.114 OA 
HETATM   11  C   UNL     1      -8.326   7.619  66.002  1.00  0.00    -0.135 A  
HETATM   12  C   UNL     1      -8.672   7.597  67.356  1.00  0.00    -0.124 A  
HETATM   13  N   UNL     1      -8.703   8.743  68.079  1.00  0.00    -0.140 NA 
HETATM   14  C   UNL     1      -8.391   9.915  67.472  1.00  0.00    -0.114 A  
HETATM   15  C   UNL     1      -8.443  11.156  68.313  1.00  0.00    -0.145 C  
HETATM   16  C   UNL     1      -8.043   9.997  66.129  1.00  0.00    -0.122 A  
HETATM   17  C   UNL     1      -8.006   8.828  65.382  1.00  0.00    -0.112 A  
ENDBRANCH   2   3
TORSDOF 1
ENDMDL
MODEL      175
REMARK 921   NORMALIZED FREE ENERGY PREDICTED BY IDOCK:   -1.85 KCAL/MOL
REMARK 922        TOTAL FREE ENERGY PREDICTED BY IDOCK:   -2.08 KCAL/MOL
REMARK 923 INTER-LIGAND FREE ENERGY PREDICTED BY IDOCK:   -1.96 KCAL/MOL
REMARK 924 INTRA-LIGAND FREE ENERGY PREDICTED BY IDOCK:   -0.12 KCAL/MOL
REMARK 927      BINDING AFFINITY PREDICTED BY RF-SCORE:    0.00 PKD
ROOT
HETATM    1  C   UNL     1      -9.623   7.441  67.993  1.00  0.00    -0.152 C  
HETATM    2  C   UNL     1      -8.848   6.135  68.100  1.00  0.00    -0.112 C  
ENDROOT
BRANCH   2   3
HETATM    3  N   UNL     1      -8.883   5.607  69.469  1.00  0.00    -0.112 NA 
HETATM    4  C   UNL     1      -9.387   6.316  70.546  1.00  0.00    -0.162 C  
HETATM    5  C   UNL     1      -9.413   5.891  71.818  1.00  0.00    -0.168 C  
HETATM    6  C   UNL     1      -9.981   6.761  72.868  1.00  0.00    -0.174 C  
HETATM    7  C   UNL     1      -8.855   4.547  72.081  1.00  0.00    -0.121 C  
HETATM    8  O   UNL     1     -10.460   7.863  72.641  1.00  0.00    -0.267 OA 
HETATM    9  O   UNL     1      -9.928   6.243  74.115  1.00  0.00    -0.221 OA 
HETATM   10  O   UNL     1      -8.798   4.118  73.233  1.00  0.00    -0.098 OA 
HETATM   11  C   UNL     1      -8.382   3.742  70.936  1.00  0.00    -0.087 A  
HETATM   12  C   UNL     1      -8.406   4.288  69.649  1.00  0.00    -0.061 A  
HETATM   13  N   UNL     1      -7.979   3.564  68.585  1.00  0.00    -0.062 NA 
HETATM   14  C   UNL     1      -7.525   2.302  68.784  1.00  0.00    -0.043 A  
HETATM   15  C   UNL     1      -7.068   1.541  67.575  1.00  0.00    -0.035 C  
HETATM   16  C   UNL     1      -7.482   1.708  70.039  1.00  0.00    -0.036 A  
HETATM   17  C   UNL     1      -7.914   2.443  71.135  1.00  0.00    -0.050 A  
ENDBRANCH   2   3
TORSDOF 1
ENDMDL
MODEL      176
REMARK 921   NORMALIZED FREE ENERGY PREDICTED BY IDOCK:   -1.85 KCAL/MOL
REMARK 922        TOTAL FREE ENERGY PREDICTED BY IDOCK:   -2.08 KCAL/MOL
REMARK 923 INTER-LIGAND FREE ENERGY PREDICTED BY IDOCK:   -2.05 KCAL/MOL
REMARK 924 INTRA-LIGAND FREE ENERGY PREDICTED BY IDOCK:   -0.03 KCAL/MOL
REMARK 927      BINDING AFFINITY PREDICTED BY RF-SCORE:    0.00 PKD
ROOT
HETATM    1  C   UNL     1      -7.146   7.522  63.444  1.00  0.00    -0.074 C  
HETATM    2  C   UNL     1      -6.633   7.171  64.833  1.00  0.00    -0.043 C  
ENDROOT
BRANCH   2   3
HETATM    3  N   UNL     1      -7.741   6.862  65.747  1.00  0.00    -0.095 NA 
HETATM    4  C   UNL     1      -8.398   7.822  66.497  1.00  0.00    -0.128 C  
HETATM    5  C   UNL     1      -9.393   7.588  67.366  1.00  0.00    -0.164 C  
HETATM    6  C   UNL     1     -10.001   8.716  68.102  1.00  0.00    -0.178 C  
HETATM    7  C   UNL     1      -9.816   6.181  67.529  1.00  0.00    -0.125 C  
HETATM    8  O   UNL     1      -9.661   9.880  67.947  1.00  0.00    -0.138 OA 
HETATM    9  O   UNL     1     -10.972   8.360  68.971  1.00  0.00    -0.058 OA 
HETATM   10  O   UNL     1     -10.685   5.890  68.350  1.00  0.00    -0.242 OA 
HETATM   11  C   UNL     1      -9.180   5.150  66.683  1.00  0.00    -0.129 A  
HETATM   12  C   UNL     1      -8.153   5.511  65.805  1.00  0.00    -0.112 A  
HETATM   13  N   UNL     1      -7.558   4.580  65.019  1.00  0.00    -0.076 NA 
HETATM   14  C   UNL     1      -7.972   3.291  65.095  1.00  0.00    -0.082 A  
HETATM   15  C   UNL     1      -7.286   2.299  64.202  1.00  0.00    -0.058 C  
HETATM   16  C   UNL     1      -8.989   2.876  65.946  1.00  0.00    -0.145 A  
HETATM   17  C   UNL     1      -9.601   3.822  66.757  1.00  0.00    -0.205 A  
ENDBRANCH   2   3
TORSDOF 1
ENDMDL
MODEL      177
REMARK 921   NORMALIZED FREE ENERGY PREDICTED BY IDOCK:   -1.83 KCAL/MOL
REMARK 922        TOTAL FREE ENERGY PREDICTED BY IDOCK:   -2.06 KCAL/MOL
REMARK 923 INTER-LIGAND FREE ENERGY PREDICTED BY IDOCK:   -2.20 KCAL/MOL
REMARK 924 INTRA-LIGAND FREE ENERGY PREDICTED BY IDOCK:    0.14 KCAL/MOL
REMARK 927      BINDING AFFINITY PREDICTED BY RF-SCORE:    0.00 PKD
ROOT
HETATM    1  C   UNL     1      -6.656  15.600  71.114  1.00  0.00     1.333 C  
HETATM    2  C   UNL     1      -6.315  15.107  69.715  1.00  0.00    -0.154 C  
ENDROOT
BRANCH   2   3
HETATM    3  N   UNL     1      -7.342  15.507  68.745  1.00  0.00    -0.132 NA 
HETATM    4  C   UNL     1      -8.326  14.651  68.282  1.00  0.00    -0.148 C  
HETATM    5  C   UNL     1      -9.266  14.959  67.376  1.00  0.00    -0.198 C  
HETATM    6  C   UNL     1     -10.255  13.938  66.973  1.00  0.00    -0.254 C  
HETATM    7  C   UNL     1      -9.239  16.334  66.831  1.00  0.00    -0.218 C  
HETATM    8  O   UNL     1     -10.285  12.810  67.443  1.00  0.00    -0.219 OA 
HETATM    9  O   UNL     1     -11.134  14.349  66.033  1.00  0.00    -0.313 OA 
HETATM   10  O   UNL     1     -10.038  16.665  65.957  1.00  0.00    -0.322 OA 
HETATM   11  C   UNL     1      -8.245  17.286  67.367  1.00  0.00    -0.204 A  
HETATM   12  C   UNL     1      -7.313  16.855  68.316  1.00  0.00    -0.193 A  
HETATM   13  N   UNL     1      -6.395  17.714  68.822  1.00  0.00    -0.191 NA 
HETATM   14  C   UNL     1      -6.389  19.001  68.393  1.00  0.00    -0.228 A  
HETATM   15  C   UNL     1      -5.356  19.914  68.985  1.00  0.00    -0.223 C  
HETATM   16  C   UNL     1      -7.292  19.485  67.455  1.00  0.00    -0.270 A  
HETATM   17  C   UNL     1      -8.234  18.611  66.930  1.00  0.00    -0.268 A  
ENDBRANCH   2   3
TORSDOF 1
ENDMDL
MODEL      178
REMARK 921   NORMALIZED FREE ENERGY PREDICTED BY IDOCK:   -1.66 KCAL/MOL
REMARK 922        TOTAL FREE ENERGY PREDICTED BY IDOCK:   -1.88 KCAL/MOL
REMARK 923 INTER-LIGAND FREE ENERGY PREDICTED BY IDOCK:   -2.36 KCAL/MOL
REMARK 924 INTRA-LIGAND FREE ENERGY PREDICTED BY IDOCK:    0.47 KCAL/MOL
REMARK 927      BINDING AFFINITY PREDICTED BY RF-SCORE:    0.00 PKD
ROOT
HETATM    1  C   UNL     1      -9.321   8.507  68.782  1.00  0.00    -0.143 C  
HETATM    2  C   UNL     1      -8.340   7.460  68.273  1.00  0.00    -0.125 C  
ENDROOT
BRANCH   2   3
HETATM    3  N   UNL     1      -8.635   6.136  68.835  1.00  0.00    -0.120 NA 
HETATM    4  C   UNL     1      -8.887   5.019  68.058  1.00  0.00    -0.103 C  
HETATM    5  C   UNL     1      -9.191   3.797  68.522  1.00  0.00    -0.214 C  
HETATM    6  C   UNL     1      -9.439   2.695  67.570  1.00  0.00    -0.070 C  
HETATM    7  C   UNL     1      -9.258   3.642  69.991  1.00  0.00    -0.153 C  
HETATM    8  O   UNL     1      -9.361   2.824  66.357  1.00  0.00    -0.114 OA 
HETATM    9  O   UNL     1      -9.766   1.518  68.148  1.00  0.00    -0.172 OA 
HETATM   10  O   UNL     1      -9.585   2.562  70.482  1.00  0.00    -0.136 OA 
HETATM   11  C   UNL     1      -8.918   4.802  70.840  1.00  0.00    -0.160 A  
HETATM   12  C   UNL     1      -8.612   6.030  70.245  1.00  0.00    -0.143 A  
HETATM   13  N   UNL     1      -8.294   7.106  71.007  1.00  0.00    -0.123 NA 
HETATM   14  C   UNL     1      -8.280   6.977  72.357  1.00  0.00    -0.105 A  
HETATM   15  C   UNL     1      -7.919   8.194  73.156  1.00  0.00    -0.223 C  
HETATM   16  C   UNL     1      -8.573   5.782  73.002  1.00  0.00    -0.121 A  
HETATM   17  C   UNL     1      -8.902   4.676  72.230  1.00  0.00    -0.133 A  
ENDBRANCH   2   3
TORSDOF 1
ENDMDL
MODEL      179
REMARK 921   NORMALIZED FREE ENERGY PREDICTED BY IDOCK:   -1.55 KCAL/MOL
REMARK 922        TOTAL FREE ENERGY PREDICTED BY IDOCK:   -1.77 KCAL/MOL
REMARK 923 INTER-LIGAND FREE ENERGY PREDICTED BY IDOCK:   -1.63 KCAL/MOL
REMARK 924 INTRA-LIGAND FREE ENERGY PREDICTED BY IDOCK:   -0.14 KCAL/MOL
REMARK 927      BINDING AFFINITY PREDICTED BY RF-SCORE:    0.00 PKD
ROOT
HETATM    1  C   UNL     1      -7.433   9.124  68.035  1.00  0.00    -0.084 C  
HETATM    2  C   UNL     1      -6.832   7.852  68.617  1.00  0.00    -0.063 C  
ENDROOT
BRANCH   2   3
HETATM    3  N   UNL     1      -6.885   7.861  70.084  1.00  0.00    -0.044 NA 
HETATM    4  C   UNL     1      -6.315   8.855  70.861  1.00  0.00    -0.054 C  
HETATM    5  C   UNL     1      -6.310   8.893  72.202  1.00  0.00    -0.031 C  
HETATM    6  C   UNL     1      -5.656  10.020  72.899  1.00  0.00     0.413 C  
HETATM    7  C   UNL     1      -6.976   7.772  72.900  1.00  0.00    -0.077 C  
HETATM    8  O   UNL     1      -5.127  10.954  72.315  1.00  0.00    -0.304 OA 
HETATM    9  O   UNL     1      -5.687   9.938  74.247  1.00  0.00    -0.342 OA 
HETATM   10  O   UNL     1      -6.960   7.717  74.129  1.00  0.00    -0.097 OA 
HETATM   11  C   UNL     1      -7.657   6.741  72.091  1.00  0.00    -0.094 A  
HETATM   12  C   UNL     1      -7.600   6.805  70.696  1.00  0.00    -0.095 A  
HETATM   13  N   UNL     1      -8.221   5.869  69.936  1.00  0.00    -0.115 NA 
HETATM   14  C   UNL     1      -8.899   4.867  70.547  1.00  0.00    -0.115 A  
HETATM   15  C   UNL     1      -9.573   3.859  69.664  1.00  0.00    -0.259 C  
HETATM   16  C   UNL     1      -8.992   4.754  71.929  1.00  0.00    -0.148 A  
HETATM   17  C   UNL     1      -8.356   5.706  72.715  1.00  0.00    -0.120 A  
ENDBRANCH   2   3
TORSDOF 1
ENDMDL
MODEL      180
REMARK 921   NORMALIZED FREE ENERGY PREDICTED BY IDOCK:   -1.47 KCAL/MOL
REMARK 922        TOTAL FREE ENERGY PREDICTED BY IDOCK:   -1.68 KCAL/MOL
REMARK 923 INTER-LIGAND FREE ENERGY PREDICTED BY IDOCK:   -2.40 KCAL/MOL
REMARK 924 INTRA-LIGAND FREE ENERGY PREDICTED BY IDOCK:    0.72 KCAL/MOL
REMARK 927      BINDING AFFINITY PREDICTED BY RF-SCORE:    0.00 PKD
ROOT
HETATM    1  C   UNL     1     -10.005  10.725  67.948  1.00  0.00    -0.196 C  
HETATM    2  C   UNL     1     -10.606   9.356  68.233  1.00  0.00    -0.210 C  
ENDROOT
BRANCH   2   3
HETATM    3  N   UNL     1      -9.941   8.709  69.371  1.00  0.00    -0.192 NA 
HETATM    4  C   UNL     1     -10.626   8.104  70.410  1.00  0.00    -0.224 C  
HETATM    5  C   UNL     1     -10.067   7.527  71.485  1.00  0.00    -0.201 C  
HETATM    6  C   UNL     1     -10.928   6.922  72.521  1.00  0.00    -0.260 C  
HETATM    7  C   UNL     1      -8.590   7.544  71.554  1.00  0.00    -0.116 C  
HETATM    8  O   UNL     1     -12.148   6.892  72.448  1.00  0.00    -0.207 OA 
HETATM    9  O   UNL     1     -10.258   6.398  73.571  1.00  0.00    -0.204 OA 
HETATM   10  O   UNL     1      -8.014   7.082  72.538  1.00  0.00    -0.097 OA 
HETATM   11  C   UNL     1      -7.837   8.116  70.419  1.00  0.00    -0.090 A  
HETATM   12  C   UNL     1      -8.527   8.688  69.347  1.00  0.00    -0.126 A  
HETATM   13  N   UNL     1      -7.854   9.216  68.295  1.00  0.00    -0.101 NA 
HETATM   14  C   UNL     1      -6.498   9.184  68.297  1.00  0.00    -0.055 A  
HETATM   15  C   UNL     1      -5.799   9.777  67.109  1.00  0.00    -0.051 C  
HETATM   16  C   UNL     1      -5.760   8.627  69.333  1.00  0.00    -0.034 A  
HETATM   17  C   UNL     1      -6.441   8.087  70.416  1.00  0.00    -0.037 A  
ENDBRANCH   2   3
TORSDOF 1
ENDMDL
MODEL      181
REMARK 921   NORMALIZED FREE ENERGY PREDICTED BY IDOCK:   -1.31 KCAL/MOL
REMARK 922        TOTAL FREE ENERGY PREDICTED BY IDOCK:   -1.51 KCAL/MOL
REMARK 923 INTER-LIGAND FREE ENERGY PREDICTED BY IDOCK:   -2.17 KCAL/MOL
REMARK 924 INTRA-LIGAND FREE ENERGY PREDICTED BY IDOCK:    0.66 KCAL/MOL
REMARK 927      BINDING AFFINITY PREDICTED BY RF-SCORE:    0.00 PKD
ROOT
HETATM    1  C   UNL     1      -7.282  16.747  67.193  1.00  0.00    -0.220 C  
HETATM    2  C   UNL     1      -8.163  16.359  66.013  1.00  0.00    -0.040 C  
ENDROOT
BRANCH   2   3
HETATM    3  N   UNL     1      -9.192  15.391  66.413  1.00  0.00    -0.282 NA 
HETATM    4  C   UNL     1      -9.367  14.166  65.794  1.00  0.00     0.093 C  
HETATM    5  C   UNL     1     -10.309  13.262  66.102  1.00  0.00    -0.290 C  
HETATM    6  C   UNL     1     -10.378  11.992  65.350  1.00  0.00    -0.266 C  
HETATM    7  C   UNL     1     -11.235  13.616  67.199  1.00  0.00    -0.309 C  
HETATM    8  O   UNL     1      -9.595  11.697  64.458  1.00  0.00    -0.207 OA 
HETATM    9  O   UNL     1     -11.384  11.172  65.725  1.00  0.00    -0.034 OA 
HETATM   10  O   UNL     1     -12.157  12.857  67.495  1.00  0.00    -0.330 OA 
HETATM   11  C   UNL     1     -11.020  14.885  67.923  1.00  0.00    -0.288 A  
HETATM   12  C   UNL     1     -10.000  15.751  67.517  1.00  0.00    -0.236 A  
HETATM   13  N   UNL     1      -9.784  16.918  68.171  1.00  0.00    -0.247 NA 
HETATM   14  C   UNL     1     -10.574  17.239  69.226  1.00  0.00    -0.156 A  
HETATM   15  C   UNL     1     -10.293  18.540  69.919  1.00  0.00     1.003 C  
HETATM   16  C   UNL     1     -11.600  16.417  69.676  1.00  0.00    -0.023 A  
HETATM   17  C   UNL     1     -11.829  15.220  69.010  1.00  0.00    -0.342 A  
ENDBRANCH   2   3
TORSDOF 1
ENDMDL
MODEL      182
REMARK 921   NORMALIZED FREE ENERGY PREDICTED BY IDOCK:   -1.29 KCAL/MOL
REMARK 922        TOTAL FREE ENERGY PREDICTED BY IDOCK:   -1.49 KCAL/MOL
REMARK 923 INTER-LIGAND FREE ENERGY PREDICTED BY IDOCK:   -2.43 KCAL/MOL
REMARK 924 INTRA-LIGAND FREE ENERGY PREDICTED BY IDOCK:    0.94 KCAL/MOL
REMARK 927      BINDING AFFINITY PREDICTED BY RF-SCORE:    0.00 PKD
ROOT
HETATM    1  C   UNL     1      -8.621   8.873  66.768  1.00  0.00    -0.122 C  
HETATM    2  C   UNL     1      -9.705   9.783  67.328  1.00  0.00    -0.169 C  
ENDROOT
BRANCH   2   3
HETATM    3  N   UNL     1      -9.176  11.120  67.628  1.00  0.00    -0.149 NA 
HETATM    4  C   UNL     1      -9.875  12.288  67.378  1.00  0.00    -0.198 C  
HETATM    5  C   UNL     1      -9.424  13.531  67.605  1.00  0.00    -0.222 C  
HETATM    6  C   UNL     1     -10.284  14.690  67.285  1.00  0.00    -0.241 C  
HETATM    7  C   UNL     1      -8.064  13.652  68.171  1.00  0.00    -0.156 C  
HETATM    8  O   UNL     1     -11.416  14.582  66.837  1.00  0.00    -0.340 OA 
HETATM    9  O   UNL     1      -9.716  15.892  67.526  1.00  0.00    -0.222 OA 
HETATM   10  O   UNL     1      -7.569  14.763  68.352  1.00  0.00    -0.105 OA 
HETATM   11  C   UNL     1      -7.331  12.417  68.516  1.00  0.00    -0.105 A  
HETATM   12  C   UNL     1      -7.901  11.171  68.238  1.00  0.00    -0.123 A  
HETATM   13  N   UNL     1      -7.246  10.026  68.550  1.00  0.00    -0.075 NA 
HETATM   14  C   UNL     1      -6.024  10.104  69.134  1.00  0.00    -0.037 A  
HETATM   15  C   UNL     1      -5.341   8.809  69.464  1.00  0.00    -0.034 C  
HETATM   16  C   UNL     1      -5.410  11.313  69.436  1.00  0.00    -0.044 A  
HETATM   17  C   UNL     1      -6.073  12.490  69.118  1.00  0.00    -0.088 A  
ENDBRANCH   2   3
TORSDOF 1
ENDMDL
MODEL      183
REMARK 921   NORMALIZED FREE ENERGY PREDICTED BY IDOCK:   -1.23 KCAL/MOL
REMARK 922        TOTAL FREE ENERGY PREDICTED BY IDOCK:   -1.43 KCAL/MOL
REMARK 923 INTER-LIGAND FREE ENERGY PREDICTED BY IDOCK:   -1.61 KCAL/MOL
REMARK 924 INTRA-LIGAND FREE ENERGY PREDICTED BY IDOCK:    0.18 KCAL/MOL
REMARK 927      BINDING AFFINITY PREDICTED BY RF-SCORE:    0.00 PKD
ROOT
HETATM    1  C   UNL     1      -7.316  16.521  68.581  1.00  0.00    -0.194 C  
HETATM    2  C   UNL     1      -7.349  15.776  67.254  1.00  0.00    -0.222 C  
ENDROOT
BRANCH   2   3
HETATM    3  N   UNL     1      -7.875  14.415  67.421  1.00  0.00    -0.189 NA 
HETATM    4  C   UNL     1      -7.075  13.286  67.436  1.00  0.00    -0.099 C  
HETATM    5  C   UNL     1      -7.509  12.022  67.555  1.00  0.00    -0.140 C  
HETATM    6  C   UNL     1      -6.535  10.912  67.552  1.00  0.00    -0.058 C  
HETATM    7  C   UNL     1      -8.970  11.831  67.681  1.00  0.00    -0.169 C  
HETATM    8  O   UNL     1      -5.326  11.078  67.469  1.00  0.00    -0.040 OA 
HETATM    9  O   UNL     1      -7.086   9.682  67.647  1.00  0.00    -0.086 OA 
HETATM   10  O   UNL     1      -9.439  10.695  67.739  1.00  0.00    -0.151 OA 
HETATM   11  C   UNL     1      -9.836  13.026  67.744  1.00  0.00    -0.224 A  
HETATM   12  C   UNL     1      -9.272  14.298  67.613  1.00  0.00    -0.194 A  
HETATM   13  N   UNL     1     -10.049  15.407  67.671  1.00  0.00    -0.234 NA 
HETATM   14  C   UNL     1     -11.385  15.267  67.856  1.00  0.00    -0.334 A  
HETATM   15  C   UNL     1     -12.203  16.524  67.917  1.00  0.00     1.419 C  
HETATM   16  C   UNL     1     -12.000  14.029  67.994  1.00  0.00    -0.386 A  
HETATM   17  C   UNL     1     -11.212  12.888  67.934  1.00  0.00    -0.306 A  
ENDBRANCH   2   3
TORSDOF 1
ENDMDL
MODEL      184
REMARK 921   NORMALIZED FREE ENERGY PREDICTED BY IDOCK:   -0.85 KCAL/MOL
REMARK 922        TOTAL FREE ENERGY PREDICTED BY IDOCK:   -1.02 KCAL/MOL
REMARK 923 INTER-LIGAND FREE ENERGY PREDICTED BY IDOCK:   -0.90 KCAL/MOL
REMARK 924 INTRA-LIGAND FREE ENERGY PREDICTED BY IDOCK:   -0.12 KCAL/MOL
REMARK 927      BINDING AFFINITY PREDICTED BY RF-SCORE:    0.00 PKD
ROOT
HETATM    1  C   UNL     1      -9.959   7.983  72.977  1.00  0.00    -0.349 C  
HETATM    2  C   UNL     1     -10.607   6.636  72.688  1.00  0.00    -0.222 C  
ENDROOT
BRANCH   2   3
HETATM    3  N   UNL     1      -9.597   5.611  72.397  1.00  0.00    -0.150 NA 
HETATM    4  C   UNL     1      -8.293   5.907  72.040  1.00  0.00    -0.115 C  
HETATM    5  C   UNL     1      -7.344   5.009  71.735  1.00  0.00    -0.076 C  
HETATM    6  C   UNL     1      -5.991   5.473  71.367  1.00  0.00    -0.029 C  
HETATM    7  C   UNL     1      -7.735   3.584  71.791  1.00  0.00    -0.057 C  
HETATM    8  O   UNL     1      -5.668   6.652  71.343  1.00  0.00    -0.030 OA 
HETATM    9  O   UNL     1      -5.125   4.484  71.051  1.00  0.00     0.000 OA 
HETATM   10  O   UNL     1      -6.928   2.712  71.471  1.00  0.00    -0.030 OA 
HETATM   11  C   UNL     1      -9.099   3.243  72.244  1.00  0.00    -0.145 A  
HETATM   12  C   UNL     1     -10.007   4.265  72.540  1.00  0.00    -0.160 A  
HETATM   13  N   UNL     1     -11.262   3.972  72.960  1.00  0.00    -0.088 NA 
HETATM   14  C   UNL     1     -11.629   2.673  73.088  1.00  0.00     0.154 A  
HETATM   15  C   UNL     1     -13.027   2.401  73.559  1.00  0.00     0.772 C  
HETATM   16  C   UNL     1     -10.769   1.618  72.810  1.00  0.00    -0.235 A  
HETATM   17  C   UNL     1      -9.482   1.908  72.377  1.00  0.00    -0.142 A  
ENDBRANCH   2   3
TORSDOF 1
ENDMDL
MODEL      185
REMARK 921   NORMALIZED FREE ENERGY PREDICTED BY IDOCK:   -0.77 KCAL/MOL
REMARK 922        TOTAL FREE ENERGY PREDICTED BY IDOCK:   -0.94 KCAL/MOL
REMARK 923 INTER-LIGAND FREE ENERGY PREDICTED BY IDOCK:   -0.81 KCAL/MOL
REMARK 924 INTRA-LIGAND FREE ENERGY PREDICTED BY IDOCK:   -0.13 KCAL/MOL
REMARK 927      BINDING AFFINITY PREDICTED BY RF-SCORE:    0.00 PKD
ROOT
HETATM    1  C   UNL     1      -6.774   4.022  69.433  1.00  0.00    -0.041 C  
HETATM    2  C   UNL     1      -7.371   5.200  68.676  1.00  0.00    -0.066 C  
ENDROOT
BRANCH   2   3
HETATM    3  N   UNL     1      -7.044   5.133  67.246  1.00  0.00    -0.068 NA 
HETATM    4  C   UNL     1      -7.153   3.977  66.493  1.00  0.00    -0.064 C  
HETATM    5  C   UNL     1      -6.838   3.857  65.194  1.00  0.00    -0.053 C  
HETATM    6  C   UNL     1      -7.003   2.553  64.520  1.00  0.00    -0.048 C  
HETATM    7  C   UNL     1      -6.334   5.072  64.519  1.00  0.00    -0.034 C  
HETATM    8  O   UNL     1      -7.441   1.558  65.079  1.00  0.00    -0.055 OA 
HETATM    9  O   UNL     1      -6.627   2.542  63.222  1.00  0.00    -0.024 OA 
HETATM   10  O   UNL     1      -5.976   5.018  63.343  1.00  0.00    -0.017 OA 
HETATM   11  C   UNL     1      -6.282   6.335  65.283  1.00  0.00    -0.034 A  
HETATM   12  C   UNL     1      -6.639   6.343  66.635  1.00  0.00    -0.048 A  
HETATM   13  N   UNL     1      -6.601   7.492  67.352  1.00  0.00    -0.060 NA 
HETATM   14  C   UNL     1      -6.209   8.638  66.742  1.00  0.00    -0.059 A  
HETATM   15  C   UNL     1      -6.187   9.884  67.577  1.00  0.00    -0.059 C  
HETATM   16  C   UNL     1      -5.845   8.691  65.402  1.00  0.00    -0.048 A  
HETATM   17  C   UNL     1      -5.879   7.517  64.660  1.00  0.00    -0.038 A  
ENDBRANCH   2   3
TORSDOF 1
ENDMDL
MODEL      186
REMARK 921   NORMALIZED FREE ENERGY PREDICTED BY IDOCK:   -0.44 KCAL/MOL
REMARK 922        TOTAL FREE ENERGY PREDICTED BY IDOCK:   -0.59 KCAL/MOL
REMARK 923 INTER-LIGAND FREE ENERGY PREDICTED BY IDOCK:   -0.53 KCAL/MOL
REMARK 924 INTRA-LIGAND FREE ENERGY PREDICTED BY IDOCK:   -0.06 KCAL/MOL
REMARK 927      BINDING AFFINITY PREDICTED BY RF-SCORE:    0.00 PKD
ROOT
HETATM    1  C   UNL     1      -5.693  14.572  70.515  1.00  0.00    -0.159 C  
HETATM    2  C   UNL     1      -6.122  14.148  69.117  1.00  0.00    -0.097 C  
ENDROOT
BRANCH   2   3
HETATM    3  N   UNL     1      -7.517  13.689  69.105  1.00  0.00     0.024 NA 
HETATM    4  C   UNL     1      -8.592  14.527  68.863  1.00  0.00    -0.103 C  
HETATM    5  C   UNL     1      -9.883  14.163  68.871  1.00  0.00    -0.110 C  
HETATM    6  C   UNL     1     -10.928  15.171  68.596  1.00  0.00    -0.255 C  
HETATM    7  C   UNL     1     -10.171  12.743  69.163  1.00  0.00     0.260 C  
HETATM    8  O   UNL     1     -10.681  16.339  68.334  1.00  0.00    -0.279 OA 
HETATM    9  O   UNL     1     -12.192  14.699  68.660  1.00  0.00    -0.227 OA 
HETATM   10  O   UNL     1     -11.336  12.354  69.240  1.00  0.00    -0.259 OA 
HETATM   11  C   UNL     1      -9.036  11.816  69.350  1.00  0.00     0.826 A  
HETATM   12  C   UNL     1      -7.728  12.306  69.316  1.00  0.00     0.396 A  
HETATM   13  N   UNL     1      -6.673  11.471  69.483  1.00  0.00    -0.121 NA 
HETATM   14  C   UNL     1      -6.903  10.150  69.684  1.00  0.00    -0.087 A  
HETATM   15  C   UNL     1      -5.703   9.266  69.858  1.00  0.00    -0.031 C  
HETATM   16  C   UNL     1      -8.180   9.606  69.724  1.00  0.00    -0.168 A  
HETATM   17  C   UNL     1      -9.267  10.455  69.558  1.00  0.00    -0.143 A  
ENDBRANCH   2   3
TORSDOF 1
ENDMDL
MODEL      187
REMARK 921   NORMALIZED FREE ENERGY PREDICTED BY IDOCK:    5.77 KCAL/MOL
REMARK 922        TOTAL FREE ENERGY PREDICTED BY IDOCK:    5.99 KCAL/MOL
REMARK 923 INTER-LIGAND FREE ENERGY PREDICTED BY IDOCK:    4.41 KCAL/MOL
REMARK 924 INTRA-LIGAND FREE ENERGY PREDICTED BY IDOCK:    1.58 KCAL/MOL
REMARK 927      BINDING AFFINITY PREDICTED BY RF-SCORE:    0.00 PKD
ROOT
HETATM    1  C   UNL     1      -6.458   3.903  68.807  1.00  0.00    -0.037 C  
HETATM    2  C   UNL     1      -7.383   5.087  68.563  1.00  0.00    -0.063 C  
ENDROOT
BRANCH   2   3
HETATM    3  N   UNL     1      -8.353   4.795  67.501  1.00  0.00    -0.105 NA 
HETATM    4  C   UNL     1      -9.540   5.489  67.342  1.00  0.00    -0.122 C  
HETATM    5  C   UNL     1     -10.471   5.241  66.408  1.00  0.00    -0.347 C  
HETATM    6  C   UNL     1     -11.696   6.065  66.361  1.00  0.00     1.594 C  
HETATM    7  C   UNL     1     -10.194   4.130  65.473  1.00  0.00    -0.157 C  
HETATM    8  O   UNL     1     -11.909   6.996  67.124  1.00  0.00     0.842 OA 
HETATM    9  O   UNL     1     -12.576   5.707  65.401  1.00  0.00     3.403 OA 
HETATM   10  O   UNL     1     -11.031   3.814  64.628  1.00  0.00    -0.141 OA 
HETATM   11  C   UNL     1      -8.900   3.426  65.576  1.00  0.00    -0.134 A  
HETATM   12  C   UNL     1      -8.001   3.772  66.589  1.00  0.00    -0.096 A  
HETATM   13  N   UNL     1      -6.807   3.140  66.698  1.00  0.00    -0.052 NA 
HETATM   14  C   UNL     1      -6.494   2.163  65.812  1.00  0.00    -0.024 A  
HETATM   15  C   UNL     1      -5.160   1.496  65.972  1.00  0.00    -0.005 C  
HETATM   16  C   UNL     1      -7.346   1.778  64.784  1.00  0.00    -0.057 A  
HETATM   17  C   UNL     1      -8.573   2.419  64.667  1.00  0.00    -0.093 A  
ENDBRANCH   2   3
TORSDOF 1
ENDMDL
MODEL      188
REMARK 921   NORMALIZED FREE ENERGY PREDICTED BY IDOCK:    9.18 KCAL/MOL
REMARK 922        TOTAL FREE ENERGY PREDICTED BY IDOCK:    9.59 KCAL/MOL
REMARK 923 INTER-LIGAND FREE ENERGY PREDICTED BY IDOCK:    9.39 KCAL/MOL
REMARK 924 INTRA-LIGAND FREE ENERGY PREDICTED BY IDOCK:    0.20 KCAL/MOL
REMARK 927      BINDING AFFINITY PREDICTED BY RF-SCORE:    0.00 PKD
ROOT
HETATM    1  C   UNL     1      -5.684  14.637  70.606  1.00  0.00    -0.163 C  
HETATM    2  C   UNL     1      -6.061  14.605  69.131  1.00  0.00    -0.102 C  
ENDROOT
BRANCH   2   3
HETATM    3  N   UNL     1      -7.457  15.013  68.930  1.00  0.00    -0.132 NA 
HETATM    4  C   UNL     1      -7.822  16.208  68.334  1.00  0.00    -0.160 C  
HETATM    5  C   UNL     1      -9.079  16.640  68.156  1.00  0.00    -0.213 C  
HETATM    6  C   UNL     1      -9.318  17.944  67.504  1.00  0.00    -0.253 C  
HETATM    7  C   UNL     1     -10.160  15.755  68.640  1.00  0.00    -0.211 C  
HETATM    8  O   UNL     1      -8.420  18.661  67.087  1.00  0.00    -0.257 OA 
HETATM    9  O   UNL     1     -10.620  18.291  67.404  1.00  0.00    -0.404 OA 
HETATM   10  O   UNL     1     -11.334  16.116  68.557  1.00  0.00    -0.359 OA 
HETATM   11  C   UNL     1      -9.796  14.442  69.210  1.00  0.00     0.042 A  
HETATM   12  C   UNL     1      -8.449  14.094  69.344  1.00  0.00     0.459 A  
HETATM   13  N   UNL     1      -8.095  12.893  69.862  1.00  0.00     1.947 NA 
HETATM   14  C   UNL     1      -9.066  12.030  70.252  1.00  0.00     4.483 A  
HETATM   15  C   UNL     1      -8.624  10.711  70.815  1.00  0.00     2.700 C  
HETATM   16  C   UNL     1     -10.420  12.321  70.139  1.00  0.00     1.857 A  
HETATM   17  C   UNL     1     -10.792  13.550  69.612  1.00  0.00     0.155 A  
ENDBRANCH   2   3
TORSDOF 1
ENDMDL
