MODEL        1
REMARK 921   NORMALIZED FREE ENERGY PREDICTED BY IDOCK:   -6.15 KCAL/MOL
REMARK 922        TOTAL FREE ENERGY PREDICTED BY IDOCK:  -17.06 KCAL/MOL
REMARK 923 INTER-LIGAND FREE ENERGY PREDICTED BY IDOCK:  -14.77 KCAL/MOL
REMARK 924 INTRA-LIGAND FREE ENERGY PREDICTED BY IDOCK:   -2.29 KCAL/MOL
REMARK 927      BINDING AFFINITY PREDICTED BY RF-SCORE:    0.00 PKD
ROOT
HETATM    1  C   UNL     1     -11.073  15.838  64.541  1.00  0.00    -0.277 C  
HETATM    2  O   UNL     1     -11.071  17.259  64.575  1.00  0.00    -1.082 OA 
ENDROOT
BRANCH   2   3
HETATM    3  C   UNL     1     -10.622  17.745  65.839  1.00  0.00    -0.205 C  
BRANCH   3   4
HETATM    4  C   UNL     1     -10.848  19.249  65.907  1.00  0.00    -0.272 C  
BRANCH   4   5
HETATM    5  O   UNL     1     -10.840  19.658  67.275  1.00  0.00    -0.474 OA 
BRANCH   5   6
HETATM    6  C   UNL     1      -9.588  20.242  67.625  1.00  0.00    -0.395 C  
BRANCH   6   7
HETATM    7  C   UNL     1      -8.842  19.313  68.568  1.00  0.00    -0.369 C  
BRANCH   7   8
HETATM    8  O   UNL     1      -7.453  19.366  68.247  1.00  0.00    -0.282 OA 
BRANCH   8   9
HETATM    9  C   UNL     1      -6.982  18.110  67.773  1.00  0.00    -0.207 C  
BRANCH   9  10
HETATM   10  C   UNL     1      -7.677  17.002  68.546  1.00  0.00    -0.238 C  
BRANCH  10  11
HETATM   11  O   UNL     1      -8.068  15.989  67.628  1.00  0.00    -0.141 OA 
BRANCH  11  12
HETATM   12  C   UNL     1      -9.231  15.305  68.078  1.00  0.00    -0.188 C  
BRANCH  12  13
HETATM   13  C   UNL     1      -9.404  15.571  69.563  1.00  0.00    -0.276 C  
BRANCH  13  14
HETATM   14  O   UNL     1     -10.597  16.314  69.774  1.00  0.00    -0.308 OA 
BRANCH  14  15
HETATM   15  C   UNL     1     -11.706  15.438  69.931  1.00  0.00    -0.336 C  
BRANCH  15  16
HETATM   16  C   UNL     1     -12.642  15.966  71.004  1.00  0.00    -0.298 C  
BRANCH  16  17
HETATM   17  O   UNL     1     -12.093  15.605  72.265  1.00  0.00    -0.364 OA 
BRANCH  17  18
HETATM   18  C   UNL     1     -13.071  15.089  73.153  1.00  0.00    -0.511 C  
BRANCH  18  19
HETATM   19  C   UNL     1     -14.150  14.426  72.318  1.00  0.00    -0.516 C  
BRANCH  19  20
HETATM   20  O   UNL     1     -14.106  13.018  72.506  1.00  0.00    -0.621 OA 
BRANCH  20  21
HETATM   21  C   UNL     1     -13.041  12.416  71.773  1.00  0.00    -0.342 C  
BRANCH  21  22
HETATM   22  C   UNL     1     -13.259  10.905  71.632  1.00  0.00    -0.367 C  
BRANCH  22  23
HETATM   23  O   UNL     1     -12.871  10.330  70.358  1.00  0.00    -0.273 OA 
BRANCH  23  24
HETATM   24  C   UNL     1     -11.601  10.801  69.845  1.00  0.00    -0.331 C  
HETATM   25  C   UNL     1     -10.484   9.921  70.330  1.00  0.00    -0.348 C  
HETATM   26  C   UNL     1     -10.117   8.673  69.337  1.00  0.00    -0.204 C  
HETATM   27  C   UNL     1      -9.908   8.945  67.726  1.00  0.00    -0.166 C  
HETATM   28  C   UNL     1      -8.587   8.964  66.709  1.00  0.00    -0.115 C  
HETATM   29  O   UNL     1     -10.963   8.195  67.107  1.00  0.00    -0.466 OA 
HETATM   30  C   UNL     1      -8.825   9.167  65.210  1.00  0.00    -0.240 C  
HETATM   31  H   UNL     1     -10.843   8.352  66.178  1.00  0.00     0.000 HD 
HETATM   32  C   UNL     1      -9.719  10.380  65.144  1.00  0.00    -0.353 A  
HETATM   33  C   UNL     1     -10.210  10.865  63.947  1.00  0.00    -0.418 A  
HETATM   34  C   UNL     1     -11.278  11.749  63.917  1.00  0.00    -0.493 A  
HETATM   35  C   UNL     1     -11.910  12.156  65.126  1.00  0.00    -0.298 A  
HETATM   36  O   UNL     1     -13.097  12.819  65.072  1.00  0.00    -0.811 OA 
HETATM   37  C   UNL     1     -11.346  11.770  66.340  1.00  0.00    -0.297 A  
HETATM   38  H   UNL     1     -13.519  13.090  65.880  1.00  0.00     0.000 HD 
HETATM   39  C   UNL     1     -10.227  10.928  66.388  1.00  0.00    -0.289 A  
HETATM   40  C   UNL     1      -9.988  10.419  67.784  1.00  0.00    -0.203 C  
HETATM   41  C   UNL     1     -11.456  10.783  68.307  1.00  0.00    -0.280 C  
HETATM   42  C   UNL     1      -8.386  10.628  68.588  1.00  0.00    -0.137 C  
HETATM   43  O   UNL     1     -11.890  11.975  67.598  1.00  0.00    -0.512 OA 
HETATM   44  C   UNL     1      -7.270   9.222  68.465  1.00  0.00    -0.072 C  
HETATM   45  N   UNL     1      -7.408   8.374  67.258  1.00  0.00    -0.084 NA 
BRANCH  45  46
HETATM   46  C   UNL     1      -7.627   6.940  67.328  1.00  0.00    -0.108 C  
BRANCH  46  47
HETATM   47  C   UNL     1      -7.374   6.331  68.667  1.00  0.00    -0.086 C  
HETATM   48  C   UNL     1      -8.331   5.751  69.399  1.00  0.00    -0.112 C  
ENDBRANCH  46  47
ENDBRANCH  45  46
ENDBRANCH  23  24
ENDBRANCH  22  23
ENDBRANCH  21  22
ENDBRANCH  20  21
ENDBRANCH  19  20
ENDBRANCH  18  19
ENDBRANCH  17  18
ENDBRANCH  16  17
ENDBRANCH  15  16
ENDBRANCH  14  15
ENDBRANCH  13  14
ENDBRANCH  12  13
ENDBRANCH  11  12
ENDBRANCH  10  11
ENDBRANCH   9  10
ENDBRANCH   8   9
ENDBRANCH   7   8
ENDBRANCH   6   7
ENDBRANCH   5   6
ENDBRANCH   4   5
ENDBRANCH   3   4
ENDBRANCH   2   3
TORSDOF 24
ENDMDL
MODEL        2
REMARK 921   NORMALIZED FREE ENERGY PREDICTED BY IDOCK:   -6.00 KCAL/MOL
REMARK 922        TOTAL FREE ENERGY PREDICTED BY IDOCK:  -16.72 KCAL/MOL
REMARK 923 INTER-LIGAND FREE ENERGY PREDICTED BY IDOCK:  -13.04 KCAL/MOL
REMARK 924 INTRA-LIGAND FREE ENERGY PREDICTED BY IDOCK:   -3.68 KCAL/MOL
REMARK 927      BINDING AFFINITY PREDICTED BY RF-SCORE:    0.00 PKD
ROOT
HETATM    1  C   UNL     1     -14.396   8.207  71.706  1.00  0.00    -0.484 C  
HETATM    2  O   UNL     1     -13.033   7.832  71.562  1.00  0.00    -0.329 OA 
ENDROOT
BRANCH   2   3
HETATM    3  C   UNL     1     -12.175   8.971  71.596  1.00  0.00    -0.348 C  
BRANCH   3   4
HETATM    4  C   UNL     1     -13.007  10.233  71.419  1.00  0.00    -0.440 C  
BRANCH   4   5
HETATM    5  O   UNL     1     -12.209  11.230  70.781  1.00  0.00    -0.356 OA 
BRANCH   5   6
HETATM    6  C   UNL     1     -12.887  12.483  70.751  1.00  0.00    -0.017 C  
BRANCH   6   7
HETATM    7  C   UNL     1     -13.471  12.776  72.123  1.00  0.00    -0.492 C  
BRANCH   7   8
HETATM    8  O   UNL     1     -13.834  14.154  72.173  1.00  0.00    -0.431 OA 
BRANCH   8   9
HETATM    9  C   UNL     1     -13.068  14.857  73.145  1.00  0.00    -0.507 C  
BRANCH   9  10
HETATM   10  C   UNL     1     -12.394  16.041  72.475  1.00  0.00    -0.496 C  
BRANCH  10  11
HETATM   11  O   UNL     1     -12.583  15.933  71.070  1.00  0.00    -0.443 OA 
BRANCH  11  12
HETATM   12  C   UNL     1     -11.353  16.080  70.371  1.00  0.00    -0.391 C  
BRANCH  12  13
HETATM   13  C   UNL     1     -11.542  15.576  68.950  1.00  0.00    -0.373 C  
BRANCH  13  14
HETATM   14  O   UNL     1     -11.143  16.587  68.035  1.00  0.00    -0.345 OA 
BRANCH  14  15
HETATM   15  C   UNL     1     -10.346  17.565  68.693  1.00  0.00    -0.369 C  
BRANCH  15  16
HETATM   16  C   UNL     1     -10.332  18.854  67.889  1.00  0.00    -0.404 C  
BRANCH  16  17
HETATM   17  O   UNL     1      -9.338  19.699  68.455  1.00  0.00    -0.348 OA 
BRANCH  17  18
HETATM   18  C   UNL     1      -8.347  20.073  67.513  1.00  0.00    -0.334 C  
BRANCH  18  19
HETATM   19  C   UNL     1      -7.006  19.593  68.037  1.00  0.00    -0.264 C  
BRANCH  19  20
HETATM   20  O   UNL     1      -7.185  18.945  69.289  1.00  0.00    -0.275 OA 
BRANCH  20  21
HETATM   21  C   UNL     1      -6.347  17.798  69.419  1.00  0.00    -0.239 C  
BRANCH  21  22
HETATM   22  C   UNL     1      -6.717  16.730  68.384  1.00  0.00    -0.154 C  
BRANCH  22  23
HETATM   23  O   UNL     1      -6.820  15.374  68.889  1.00  0.00    -0.113 OA 
BRANCH  23  24
HETATM   24  C   UNL     1      -6.922  14.354  67.865  1.00  0.00    -0.163 C  
HETATM   25  C   UNL     1      -6.470  13.026  68.405  1.00  0.00    -0.084 C  
HETATM   26  C   UNL     1      -7.660  12.112  69.056  1.00  0.00     0.081 C  
HETATM   27  C   UNL     1      -9.066  11.889  68.227  1.00  0.00    -0.183 C  
HETATM   28  C   UNL     1      -9.751  10.600  67.421  1.00  0.00    -0.167 C  
HETATM   29  O   UNL     1     -10.060  12.504  69.057  1.00  0.00    -0.424 OA 
HETATM   30  C   UNL     1     -11.160  10.769  66.845  1.00  0.00    -0.204 C  
HETATM   31  H   UNL     1     -10.872  12.376  68.578  1.00  0.00     0.000 HD 
HETATM   32  C   UNL     1     -11.084  12.061  66.068  1.00  0.00    -0.364 A  
HETATM   33  C   UNL     1     -12.185  12.598  65.430  1.00  0.00    -0.517 A  
HETATM   34  C   UNL     1     -12.197  13.921  65.015  1.00  0.00    -0.444 A  
HETATM   35  C   UNL     1     -11.078  14.764  65.267  1.00  0.00    -0.370 A  
HETATM   36  O   UNL     1     -11.195  16.107  65.081  1.00  0.00    -0.254 OA 
HETATM   37  C   UNL     1      -9.920  14.201  65.798  1.00  0.00    -0.309 A  
HETATM   38  H   UNL     1     -10.448  16.669  65.249  1.00  0.00     0.000 HD 
HETATM   39  C   UNL     1      -9.870  12.849  66.164  1.00  0.00    -0.270 A  
HETATM   40  C   UNL     1      -8.639  12.550  66.976  1.00  0.00    -0.188 C  
HETATM   41  C   UNL     1      -8.348  14.081  67.337  1.00  0.00    -0.196 C  
HETATM   42  C   UNL     1      -7.501  11.237  66.490  1.00  0.00    -0.105 C  
HETATM   43  O   UNL     1      -8.791  14.888  66.212  1.00  0.00    -0.229 OA 
HETATM   44  C   UNL     1      -7.760   9.650  67.297  1.00  0.00    -0.091 C  
HETATM   45  N   UNL     1      -9.150   9.336  67.704  1.00  0.00    -0.125 NA 
BRANCH  45  46
HETATM   46  C   UNL     1      -9.506   8.976  69.065  1.00  0.00    -0.155 C  
BRANCH  46  47
HETATM   47  C   UNL     1      -8.385   8.426  69.883  1.00  0.00    -0.124 C  
HETATM   48  C   UNL     1      -8.067   8.892  71.095  1.00  0.00    -0.201 C  
ENDBRANCH  46  47
ENDBRANCH  45  46
ENDBRANCH  23  24
ENDBRANCH  22  23
ENDBRANCH  21  22
ENDBRANCH  20  21
ENDBRANCH  19  20
ENDBRANCH  18  19
ENDBRANCH  17  18
ENDBRANCH  16  17
ENDBRANCH  15  16
ENDBRANCH  14  15
ENDBRANCH  13  14
ENDBRANCH  12  13
ENDBRANCH  11  12
ENDBRANCH  10  11
ENDBRANCH   9  10
ENDBRANCH   8   9
ENDBRANCH   7   8
ENDBRANCH   6   7
ENDBRANCH   5   6
ENDBRANCH   4   5
ENDBRANCH   3   4
ENDBRANCH   2   3
TORSDOF 24
ENDMDL
MODEL        3
REMARK 921   NORMALIZED FREE ENERGY PREDICTED BY IDOCK:   -5.89 KCAL/MOL
REMARK 922        TOTAL FREE ENERGY PREDICTED BY IDOCK:  -16.44 KCAL/MOL
REMARK 923 INTER-LIGAND FREE ENERGY PREDICTED BY IDOCK:  -12.75 KCAL/MOL
REMARK 924 INTRA-LIGAND FREE ENERGY PREDICTED BY IDOCK:   -3.69 KCAL/MOL
REMARK 927      BINDING AFFINITY PREDICTED BY RF-SCORE:    0.00 PKD
ROOT
HETATM    1  C   UNL     1     -14.110   9.034  72.179  1.00  0.00    -0.391 C  
HETATM    2  O   UNL     1     -12.915   9.795  72.066  1.00  0.00    -0.400 OA 
ENDROOT
BRANCH   2   3
HETATM    3  C   UNL     1     -11.764   8.953  72.051  1.00  0.00    -0.367 C  
BRANCH   3   4
HETATM    4  C   UNL     1     -10.837   9.389  70.926  1.00  0.00    -0.322 C  
BRANCH   4   5
HETATM    5  O   UNL     1     -10.343   8.230  70.256  1.00  0.00    -0.201 OA 
BRANCH   5   6
HETATM    6  C   UNL     1     -11.259   7.144  70.371  1.00  0.00    -0.287 C  
BRANCH   6   7
HETATM    7  C   UNL     1     -11.195   6.291  69.115  1.00  0.00    -0.371 C  
BRANCH   7   8
HETATM    8  O   UNL     1     -10.169   5.316  69.286  1.00  0.00    -0.214 OA 
BRANCH   8   9
HETATM    9  C   UNL     1      -9.158   5.448  68.294  1.00  0.00    -0.109 C  
BRANCH   9  10
HETATM   10  C   UNL     1      -7.939   6.103  68.920  1.00  0.00    -0.101 C  
BRANCH  10  11
HETATM   11  O   UNL     1      -7.769   7.389  68.338  1.00  0.00    -0.115 OA 
BRANCH  11  12
HETATM   12  C   UNL     1      -8.170   7.395  66.973  1.00  0.00    -0.121 C  
BRANCH  12  13
HETATM   13  C   UNL     1      -7.341   8.429  66.231  1.00  0.00    -0.086 C  
BRANCH  13  14
HETATM   14  O   UNL     1      -6.949   9.455  67.132  1.00  0.00    -0.083 OA 
BRANCH  14  15
HETATM   15  C   UNL     1      -7.168  10.735  66.553  1.00  0.00    -0.139 C  
BRANCH  15  16
HETATM   16  C   UNL     1      -5.948  11.617  66.756  1.00  0.00    -0.137 C  
BRANCH  16  17
HETATM   17  O   UNL     1      -6.413  12.917  67.095  1.00  0.00    -0.210 OA 
BRANCH  17  18
HETATM   18  C   UNL     1      -5.510  13.610  67.941  1.00  0.00    -0.099 C  
BRANCH  18  19
HETATM   19  C   UNL     1      -5.978  15.051  68.034  1.00  0.00    -0.146 C  
BRANCH  19  20
HETATM   20  O   UNL     1      -6.882  15.332  66.975  1.00  0.00    -0.242 OA 
BRANCH  20  21
HETATM   21  C   UNL     1      -7.039  16.734  66.767  1.00  0.00    -0.235 C  
BRANCH  21  22
HETATM   22  C   UNL     1      -8.422  17.205  67.229  1.00  0.00    -0.196 C  
BRANCH  22  23
HETATM   23  O   UNL     1      -9.342  17.583  66.173  1.00  0.00    -0.432 OA 
BRANCH  23  24
HETATM   24  C   UNL     1     -10.566  16.810  66.133  1.00  0.00    -0.210 C  
HETATM   25  C   UNL     1     -10.536  15.846  64.979  1.00  0.00    -0.372 C  
HETATM   26  C   UNL     1      -9.931  14.369  65.337  1.00  0.00    -0.344 C  
HETATM   27  C   UNL     1     -10.466  13.569  66.675  1.00  0.00    -0.274 C  
HETATM   28  C   UNL     1     -11.438  12.237  66.925  1.00  0.00    -0.356 C  
HETATM   29  O   UNL     1      -9.301  13.461  67.504  1.00  0.00    -0.202 OA 
HETATM   30  C   UNL     1     -11.624  11.731  68.358  1.00  0.00    -0.380 C  
HETATM   31  H   UNL     1      -9.610  13.000  68.276  1.00  0.00     0.000 HD 
HETATM   32  C   UNL     1     -11.999  12.969  69.135  1.00  0.00    -0.320 A  
HETATM   33  C   UNL     1     -12.206  12.942  70.501  1.00  0.00    -0.395 A  
HETATM   34  C   UNL     1     -12.215  14.112  71.246  1.00  0.00    -0.419 A  
HETATM   35  C   UNL     1     -11.981  15.368  70.617  1.00  0.00    -0.356 A  
HETATM   36  O   UNL     1     -11.749  16.468  71.383  1.00  0.00    -0.648 OA 
HETATM   37  C   UNL     1     -11.894  15.416  69.228  1.00  0.00    -0.343 A  
HETATM   38  H   UNL     1     -11.593  17.306  70.964  1.00  0.00     0.000 HD 
HETATM   39  C   UNL     1     -11.948  14.249  68.454  1.00  0.00    -0.344 A  
HETATM   40  C   UNL     1     -11.539  14.520  67.032  1.00  0.00    -0.402 C  
HETATM   41  C   UNL     1     -10.830  15.915  67.365  1.00  0.00    -0.291 C  
HETATM   42  C   UNL     1     -12.612  14.065  65.653  1.00  0.00    -0.542 C  
HETATM   43  O   UNL     1     -11.556  16.524  68.467  1.00  0.00    -0.252 OA 
HETATM   44  C   UNL     1     -12.252  12.479  64.884  1.00  0.00    -0.470 C  
HETATM   45  N   UNL     1     -11.661  11.440  65.761  1.00  0.00    -0.071 NA 
BRANCH  45  46
HETATM   46  C   UNL     1     -10.415  10.764  65.445  1.00  0.00    -0.202 C  
BRANCH  46  47
HETATM   47  C   UNL     1     -10.152  10.582  63.987  1.00  0.00    -0.321 C  
HETATM   48  C   UNL     1      -9.252  11.304  63.311  1.00  0.00    -0.235 C  
ENDBRANCH  46  47
ENDBRANCH  45  46
ENDBRANCH  23  24
ENDBRANCH  22  23
ENDBRANCH  21  22
ENDBRANCH  20  21
ENDBRANCH  19  20
ENDBRANCH  18  19
ENDBRANCH  17  18
ENDBRANCH  16  17
ENDBRANCH  15  16
ENDBRANCH  14  15
ENDBRANCH  13  14
ENDBRANCH  12  13
ENDBRANCH  11  12
ENDBRANCH  10  11
ENDBRANCH   9  10
ENDBRANCH   8   9
ENDBRANCH   7   8
ENDBRANCH   6   7
ENDBRANCH   5   6
ENDBRANCH   4   5
ENDBRANCH   3   4
ENDBRANCH   2   3
TORSDOF 24
ENDMDL
MODEL        4
REMARK 921   NORMALIZED FREE ENERGY PREDICTED BY IDOCK:   -5.88 KCAL/MOL
REMARK 922        TOTAL FREE ENERGY PREDICTED BY IDOCK:  -16.41 KCAL/MOL
REMARK 923 INTER-LIGAND FREE ENERGY PREDICTED BY IDOCK:  -13.55 KCAL/MOL
REMARK 924 INTRA-LIGAND FREE ENERGY PREDICTED BY IDOCK:   -2.86 KCAL/MOL
REMARK 927      BINDING AFFINITY PREDICTED BY RF-SCORE:    0.00 PKD
ROOT
HETATM    1  C   UNL     1     -10.593  19.738  66.224  1.00  0.00    -0.464 C  
HETATM    2  O   UNL     1     -10.280  18.426  65.776  1.00  0.00    -0.571 OA 
ENDROOT
BRANCH   2   3
HETATM    3  C   UNL     1      -9.194  17.871  66.516  1.00  0.00    -0.273 C  
BRANCH   3   4
HETATM    4  C   UNL     1      -9.600  17.732  67.976  1.00  0.00    -0.291 C  
BRANCH   4   5
HETATM    5  O   UNL     1     -10.135  16.426  68.187  1.00  0.00    -0.239 OA 
BRANCH   5   6
HETATM    6  C   UNL     1      -9.191  15.423  67.822  1.00  0.00    -0.183 C  
BRANCH   6   7
HETATM    7  C   UNL     1      -9.897  14.315  67.059  1.00  0.00    -0.254 C  
BRANCH   7   8
HETATM    8  O   UNL     1     -11.296  14.412  67.317  1.00  0.00    -0.313 OA 
BRANCH   8   9
HETATM    9  C   UNL     1     -12.008  13.328  66.733  1.00  0.00    -0.382 C  
BRANCH   9  10
HETATM   10  C   UNL     1     -12.452  13.727  65.337  1.00  0.00    -0.500 C  
BRANCH  10  11
HETATM   11  O   UNL     1     -13.244  12.676  64.798  1.00  0.00    -0.846 OA 
BRANCH  11  12
HETATM   12  C   UNL     1     -12.542  11.969  63.782  1.00  0.00    -0.454 C  
BRANCH  12  13
HETATM   13  C   UNL     1     -11.333  12.790  63.369  1.00  0.00    -0.337 C  
BRANCH  13  14
HETATM   14  O   UNL     1     -10.173  11.970  63.403  1.00  0.00    -0.428 OA 
BRANCH  14  15
HETATM   15  C   UNL     1     -10.324  10.939  64.371  1.00  0.00    -0.361 C  
BRANCH  15  16
HETATM   16  C   UNL     1      -9.223   9.905  64.207  1.00  0.00    -0.265 C  
BRANCH  16  17
HETATM   17  O   UNL     1      -8.470  10.260  63.055  1.00  0.00    -0.157 OA 
BRANCH  17  18
HETATM   18  C   UNL     1      -7.111   9.870  63.155  1.00  0.00    -0.126 C  
BRANCH  18  19
HETATM   19  C   UNL     1      -6.778   9.729  64.628  1.00  0.00    -0.113 C  
BRANCH  19  20
HETATM   20  O   UNL     1      -5.818  10.709  65.000  1.00  0.00    -0.131 OA 
BRANCH  20  21
HETATM   21  C   UNL     1      -5.535  10.673  66.398  1.00  0.00    -0.077 C  
BRANCH  21  22
HETATM   22  C   UNL     1      -6.702  11.249  67.208  1.00  0.00    -0.104 C  
BRANCH  22  23
HETATM   23  O   UNL     1      -7.124  10.459  68.349  1.00  0.00    -0.075 OA 
BRANCH  23  24
HETATM   24  C   UNL     1      -8.401   9.795  68.185  1.00  0.00    -0.110 C  
HETATM   25  C   UNL     1      -8.243   8.311  68.358  1.00  0.00    -0.132 C  
HETATM   26  C   UNL     1      -8.464   7.772  69.887  1.00  0.00    -0.132 C  
HETATM   27  C   UNL     1      -9.783   8.262  70.743  1.00  0.00    -0.172 C  
HETATM   28  C   UNL     1     -11.192   7.520  71.239  1.00  0.00    -0.251 C  
HETATM   29  O   UNL     1      -9.231   9.000  71.842  1.00  0.00    -0.353 OA 
HETATM   30  C   UNL     1     -12.156   8.309  72.129  1.00  0.00    -0.425 C  
HETATM   31  H   UNL     1      -9.992   9.283  72.336  1.00  0.00     0.000 HD 
HETATM   32  C   UNL     1     -12.329   9.621  71.403  1.00  0.00    -0.468 A  
HETATM   33  C   UNL     1     -13.100  10.647  71.916  1.00  0.00    -0.563 A  
HETATM   34  C   UNL     1     -12.986  11.940  71.429  1.00  0.00    -0.385 A  
HETATM   35  C   UNL     1     -12.046  12.243  70.403  1.00  0.00    -0.300 A  
HETATM   36  O   UNL     1     -11.770  13.541  70.108  1.00  0.00    -0.433 OA 
HETATM   37  C   UNL     1     -11.355  11.196  69.796  1.00  0.00    -0.278 A  
HETATM   38  H   UNL     1     -11.143  13.743  69.423  1.00  0.00     0.000 HD 
HETATM   39  C   UNL     1     -11.507   9.873  70.234  1.00  0.00    -0.349 A  
HETATM   40  C   UNL     1     -10.455   8.979  69.638  1.00  0.00    -0.227 C  
HETATM   41  C   UNL     1      -9.489  10.181  69.212  1.00  0.00    -0.218 C  
HETATM   42  C   UNL     1     -10.908   7.481  68.738  1.00  0.00    -0.047 C  
HETATM   43  O   UNL     1     -10.329  11.318  68.873  1.00  0.00    -0.201 OA 
HETATM   44  C   UNL     1     -10.883   5.962  69.702  1.00  0.00    -0.374 C  
HETATM   45  N   UNL     1     -11.173   6.094  71.150  1.00  0.00    -0.299 NA 
BRANCH  45  46
HETATM   46  C   UNL     1     -10.274   5.601  72.178  1.00  0.00    -0.202 C  
BRANCH  46  47
HETATM   47  C   UNL     1     -10.945   4.925  73.327  1.00  0.00    -0.390 C  
HETATM   48  C   UNL     1     -11.084   3.598  73.414  1.00  0.00    -0.297 C  
ENDBRANCH  46  47
ENDBRANCH  45  46
ENDBRANCH  23  24
ENDBRANCH  22  23
ENDBRANCH  21  22
ENDBRANCH  20  21
ENDBRANCH  19  20
ENDBRANCH  18  19
ENDBRANCH  17  18
ENDBRANCH  16  17
ENDBRANCH  15  16
ENDBRANCH  14  15
ENDBRANCH  13  14
ENDBRANCH  12  13
ENDBRANCH  11  12
ENDBRANCH  10  11
ENDBRANCH   9  10
ENDBRANCH   8   9
ENDBRANCH   7   8
ENDBRANCH   6   7
ENDBRANCH   5   6
ENDBRANCH   4   5
ENDBRANCH   3   4
ENDBRANCH   2   3
TORSDOF 24
ENDMDL
MODEL        5
REMARK 921   NORMALIZED FREE ENERGY PREDICTED BY IDOCK:   -5.87 KCAL/MOL
REMARK 922        TOTAL FREE ENERGY PREDICTED BY IDOCK:  -16.39 KCAL/MOL
REMARK 923 INTER-LIGAND FREE ENERGY PREDICTED BY IDOCK:  -13.80 KCAL/MOL
REMARK 924 INTRA-LIGAND FREE ENERGY PREDICTED BY IDOCK:   -2.59 KCAL/MOL
REMARK 927      BINDING AFFINITY PREDICTED BY RF-SCORE:    0.00 PKD
ROOT
HETATM    1  C   UNL     1     -12.120  12.702  63.618  1.00  0.00    -0.547 C  
HETATM    2  O   UNL     1     -12.854  12.747  64.835  1.00  0.00    -0.722 OA 
ENDROOT
BRANCH   2   3
HETATM    3  C   UNL     1     -11.983  12.817  65.962  1.00  0.00    -0.432 C  
BRANCH   3   4
HETATM    4  C   UNL     1     -10.697  13.524  65.561  1.00  0.00    -0.290 C  
BRANCH   4   5
HETATM    5  O   UNL     1     -10.443  14.585  66.481  1.00  0.00    -0.277 OA 
BRANCH   5   6
HETATM    6  C   UNL     1     -10.012  15.759  65.798  1.00  0.00    -0.358 C  
BRANCH   6   7
HETATM    7  C   UNL     1     -11.091  16.203  64.824  1.00  0.00    -0.333 C  
BRANCH   7   8
HETATM    8  O   UNL     1     -11.040  17.624  64.713  1.00  0.00    -0.915 OA 
BRANCH   8   9
HETATM    9  C   UNL     1     -10.510  18.217  65.893  1.00  0.00    -0.307 C  
BRANCH   9  10
HETATM   10  C   UNL     1     -10.634  19.727  65.781  1.00  0.00    -0.419 C  
BRANCH  10  11
HETATM   11  O   UNL     1      -9.664  20.323  66.632  1.00  0.00    -0.415 OA 
BRANCH  11  12
HETATM   12  C   UNL     1      -8.357  19.842  66.344  1.00  0.00    -0.350 C  
BRANCH  12  13
HETATM   13  C   UNL     1      -7.438  20.218  67.493  1.00  0.00    -0.312 C  
BRANCH  13  14
HETATM   14  O   UNL     1      -7.780  19.453  68.640  1.00  0.00    -0.337 OA 
BRANCH  14  15
HETATM   15  C   UNL     1      -6.740  18.533  68.950  1.00  0.00    -0.268 C  
BRANCH  15  16
HETATM   16  C   UNL     1      -7.278  17.113  68.940  1.00  0.00    -0.242 C  
BRANCH  16  17
HETATM   17  O   UNL     1      -7.053  16.579  67.642  1.00  0.00    -0.119 OA 
BRANCH  17  18
HETATM   18  C   UNL     1      -6.608  15.233  67.679  1.00  0.00    -0.171 C  
BRANCH  18  19
HETATM   19  C   UNL     1      -7.162  14.599  68.941  1.00  0.00    -0.124 C  
BRANCH  19  20
HETATM   20  O   UNL     1      -7.594  13.274  68.663  1.00  0.00    -0.126 OA 
BRANCH  20  21
HETATM   21  C   UNL     1      -7.236  12.863  67.345  1.00  0.00    -0.126 C  
BRANCH  21  22
HETATM   22  C   UNL     1      -6.636  11.453  67.355  1.00  0.00    -0.090 C  
BRANCH  22  23
HETATM   23  O   UNL     1      -7.066  10.595  68.443  1.00  0.00    -0.074 OA 
BRANCH  23  24
HETATM   24  C   UNL     1      -8.336   9.935  68.226  1.00  0.00    -0.110 C  
HETATM   25  C   UNL     1      -8.183   8.447  68.372  1.00  0.00    -0.124 C  
HETATM   26  C   UNL     1      -8.451   7.877  69.882  1.00  0.00    -0.127 C  
HETATM   27  C   UNL     1      -9.797   8.348  70.706  1.00  0.00    -0.182 C  
HETATM   28  C   UNL     1     -11.220   7.595  71.143  1.00  0.00    -0.261 C  
HETATM   29  O   UNL     1      -9.280   9.063  71.837  1.00  0.00    -0.353 OA 
HETATM   30  C   UNL     1     -12.213   8.366  72.017  1.00  0.00    -0.419 C  
HETATM   31  H   UNL     1     -10.057   9.335  72.312  1.00  0.00     0.000 HD 
HETATM   32  C   UNL     1     -12.364   9.692  71.314  1.00  0.00    -0.449 A  
HETATM   33  C   UNL     1     -13.151  10.707  71.824  1.00  0.00    -0.571 A  
HETATM   34  C   UNL     1     -13.023  12.010  71.367  1.00  0.00    -0.362 A  
HETATM   35  C   UNL     1     -12.052  12.334  70.378  1.00  0.00    -0.300 A  
HETATM   36  O   UNL     1     -11.768  13.639  70.119  1.00  0.00    -0.406 OA 
HETATM   37  C   UNL     1     -11.341  11.301  69.772  1.00  0.00    -0.271 A  
HETATM   38  H   UNL     1     -11.119  13.855  69.459  1.00  0.00     0.000 HD 
HETATM   39  C   UNL     1     -11.505   9.969  70.177  1.00  0.00    -0.344 A  
HETATM   40  C   UNL     1     -10.434   9.087  69.596  1.00  0.00    -0.227 C  
HETATM   41  C   UNL     1      -9.457  10.299  69.225  1.00  0.00    -0.215 C  
HETATM   42  C   UNL     1     -10.858   7.609  68.651  1.00  0.00    -0.013 C  
HETATM   43  O   UNL     1     -10.287  11.442  68.884  1.00  0.00    -0.206 OA 
HETATM   44  C   UNL     1     -10.861   6.070  69.584  1.00  0.00    -0.369 C  
HETATM   45  N   UNL     1     -11.198   6.172  71.024  1.00  0.00    -0.304 NA 
BRANCH  45  46
HETATM   46  C   UNL     1     -10.330   5.657  72.069  1.00  0.00    -0.212 C  
BRANCH  46  47
HETATM   47  C   UNL     1     -11.041   5.118  73.266  1.00  0.00    -0.392 C  
HETATM   48  C   UNL     1     -11.376   3.830  73.398  1.00  0.00    -0.224 C  
ENDBRANCH  46  47
ENDBRANCH  45  46
ENDBRANCH  23  24
ENDBRANCH  22  23
ENDBRANCH  21  22
ENDBRANCH  20  21
ENDBRANCH  19  20
ENDBRANCH  18  19
ENDBRANCH  17  18
ENDBRANCH  16  17
ENDBRANCH  15  16
ENDBRANCH  14  15
ENDBRANCH  13  14
ENDBRANCH  12  13
ENDBRANCH  11  12
ENDBRANCH  10  11
ENDBRANCH   9  10
ENDBRANCH   8   9
ENDBRANCH   7   8
ENDBRANCH   6   7
ENDBRANCH   5   6
ENDBRANCH   4   5
ENDBRANCH   3   4
ENDBRANCH   2   3
TORSDOF 24
ENDMDL
MODEL        6
REMARK 921   NORMALIZED FREE ENERGY PREDICTED BY IDOCK:   -5.86 KCAL/MOL
REMARK 922        TOTAL FREE ENERGY PREDICTED BY IDOCK:  -16.37 KCAL/MOL
REMARK 923 INTER-LIGAND FREE ENERGY PREDICTED BY IDOCK:  -12.55 KCAL/MOL
REMARK 924 INTRA-LIGAND FREE ENERGY PREDICTED BY IDOCK:   -3.82 KCAL/MOL
REMARK 927      BINDING AFFINITY PREDICTED BY RF-SCORE:    0.00 PKD
ROOT
HETATM    1  C   UNL     1     -11.277   6.230  68.959  1.00  0.00    -0.343 C  
HETATM    2  O   UNL     1     -10.547   5.480  69.920  1.00  0.00    -0.296 OA 
ENDROOT
BRANCH   2   3
HETATM    3  C   UNL     1      -9.147   5.728  69.816  1.00  0.00    -0.136 C  
BRANCH   3   4
HETATM    4  C   UNL     1      -8.507   5.581  71.189  1.00  0.00    -0.126 C  
BRANCH   4   5
HETATM    5  O   UNL     1      -8.847   6.715  71.984  1.00  0.00    -0.135 OA 
BRANCH   5   6
HETATM    6  C   UNL     1      -9.294   6.317  73.277  1.00  0.00    -0.131 C  
BRANCH   6   7
HETATM    7  C   UNL     1     -10.556   7.082  73.635  1.00  0.00    -0.345 C  
BRANCH   7   8
HETATM    8  O   UNL     1     -11.328   7.257  72.449  1.00  0.00    -0.261 OA 
BRANCH   8   9
HETATM    9  C   UNL     1     -12.080   8.464  72.493  1.00  0.00    -0.337 C  
BRANCH   9  10
HETATM   10  C   UNL     1     -11.762   9.285  71.256  1.00  0.00    -0.346 C  
BRANCH  10  11
HETATM   11  O   UNL     1     -10.367   9.561  71.244  1.00  0.00    -0.312 OA 
BRANCH  11  12
HETATM   12  C   UNL     1      -9.830   9.448  69.931  1.00  0.00    -0.210 C  
BRANCH  12  13
HETATM   13  C   UNL     1      -8.388   9.926  69.956  1.00  0.00    -0.168 C  
BRANCH  13  14
HETATM   14  O   UNL     1      -8.230  10.995  69.035  1.00  0.00    -0.150 OA 
BRANCH  14  15
HETATM   15  C   UNL     1      -6.859  11.155  68.691  1.00  0.00    -0.070 C  
BRANCH  15  16
HETATM   16  C   UNL     1      -6.287  12.382  69.379  1.00  0.00    -0.119 C  
BRANCH  16  17
HETATM   17  O   UNL     1      -7.054  13.503  68.961  1.00  0.00    -0.110 OA 
BRANCH  17  18
HETATM   18  C   UNL     1      -6.780  14.664  69.728  1.00  0.00    -0.165 C  
BRANCH  18  19
HETATM   19  C   UNL     1      -6.591  15.821  68.764  1.00  0.00    -0.113 C  
BRANCH  19  20
HETATM   20  O   UNL     1      -6.817  15.379  67.433  1.00  0.00    -0.181 OA 
BRANCH  20  21
HETATM   21  C   UNL     1      -7.201  16.451  66.574  1.00  0.00    -0.092 C  
BRANCH  21  22
HETATM   22  C   UNL     1      -8.420  17.192  67.135  1.00  0.00    -0.200 C  
BRANCH  22  23
HETATM   23  O   UNL     1      -9.393  17.634  66.154  1.00  0.00    -0.445 OA 
BRANCH  23  24
HETATM   24  C   UNL     1     -10.611  16.851  66.116  1.00  0.00    -0.194 C  
HETATM   25  C   UNL     1     -10.571  15.880  64.970  1.00  0.00    -0.372 C  
HETATM   26  C   UNL     1      -9.956  14.409  65.341  1.00  0.00    -0.344 C  
HETATM   27  C   UNL     1     -10.489  13.616  66.683  1.00  0.00    -0.272 C  
HETATM   28  C   UNL     1     -11.451  12.278  66.940  1.00  0.00    -0.356 C  
HETATM   29  O   UNL     1      -9.325  13.522  67.516  1.00  0.00    -0.205 OA 
HETATM   30  C   UNL     1     -11.638  11.781  68.376  1.00  0.00    -0.380 C  
HETATM   31  H   UNL     1      -9.633  13.064  68.291  1.00  0.00     0.000 HD 
HETATM   32  C   UNL     1     -12.024  13.022  69.143  1.00  0.00    -0.320 A  
HETATM   33  C   UNL     1     -12.235  13.004  70.508  1.00  0.00    -0.392 A  
HETATM   34  C   UNL     1     -12.254  14.179  71.245  1.00  0.00    -0.419 A  
HETATM   35  C   UNL     1     -12.028  15.432  70.608  1.00  0.00    -0.356 A  
HETATM   36  O   UNL     1     -11.806  16.539  71.366  1.00  0.00    -0.640 OA 
HETATM   37  C   UNL     1     -11.938  15.471  69.218  1.00  0.00    -0.316 A  
HETATM   38  H   UNL     1     -11.655  17.376  70.941  1.00  0.00     0.000 HD 
HETATM   39  C   UNL     1     -11.981  14.298  68.453  1.00  0.00    -0.344 A  
HETATM   40  C   UNL     1     -11.570  14.561  67.030  1.00  0.00    -0.402 C  
HETATM   41  C   UNL     1     -10.872  15.964  67.354  1.00  0.00    -0.291 C  
HETATM   42  C   UNL     1     -12.635  14.088  65.652  1.00  0.00    -0.542 C  
HETATM   43  O   UNL     1     -11.606  16.575  68.450  1.00  0.00    -0.231 OA 
HETATM   44  C   UNL     1     -12.261  12.499  64.896  1.00  0.00    -0.470 C  
HETATM   45  N   UNL     1     -11.666  11.471  65.781  1.00  0.00    -0.184 NA 
BRANCH  45  46
HETATM   46  C   UNL     1     -10.414  10.802  65.474  1.00  0.00    -0.194 C  
BRANCH  46  47
HETATM   47  C   UNL     1     -10.223   9.485  66.150  1.00  0.00    -0.272 C  
HETATM   48  C   UNL     1      -9.219   8.652  65.858  1.00  0.00    -0.264 C  
ENDBRANCH  46  47
ENDBRANCH  45  46
ENDBRANCH  23  24
ENDBRANCH  22  23
ENDBRANCH  21  22
ENDBRANCH  20  21
ENDBRANCH  19  20
ENDBRANCH  18  19
ENDBRANCH  17  18
ENDBRANCH  16  17
ENDBRANCH  15  16
ENDBRANCH  14  15
ENDBRANCH  13  14
ENDBRANCH  12  13
ENDBRANCH  11  12
ENDBRANCH  10  11
ENDBRANCH   9  10
ENDBRANCH   8   9
ENDBRANCH   7   8
ENDBRANCH   6   7
ENDBRANCH   5   6
ENDBRANCH   4   5
ENDBRANCH   3   4
ENDBRANCH   2   3
TORSDOF 24
ENDMDL
MODEL        7
REMARK 921   NORMALIZED FREE ENERGY PREDICTED BY IDOCK:   -5.85 KCAL/MOL
REMARK 922        TOTAL FREE ENERGY PREDICTED BY IDOCK:  -16.35 KCAL/MOL
REMARK 923 INTER-LIGAND FREE ENERGY PREDICTED BY IDOCK:  -13.54 KCAL/MOL
REMARK 924 INTRA-LIGAND FREE ENERGY PREDICTED BY IDOCK:   -2.81 KCAL/MOL
REMARK 927      BINDING AFFINITY PREDICTED BY RF-SCORE:    0.00 PKD
ROOT
HETATM    1  C   UNL     1     -10.741   5.524  72.928  1.00  0.00    -0.249 C  
HETATM    2  O   UNL     1     -10.585   6.714  73.689  1.00  0.00    -0.295 OA 
ENDROOT
BRANCH   2   3
HETATM    3  C   UNL     1     -11.217   7.823  73.052  1.00  0.00    -0.321 C  
BRANCH   3   4
HETATM    4  C   UNL     1     -12.008   7.328  71.850  1.00  0.00    -0.306 C  
BRANCH   4   5
HETATM    5  O   UNL     1     -12.482   8.453  71.111  1.00  0.00    -0.274 OA 
BRANCH   5   6
HETATM    6  C   UNL     1     -13.048   9.432  71.978  1.00  0.00    -0.433 C  
BRANCH   6   7
HETATM    7  C   UNL     1     -12.729  10.821  71.451  1.00  0.00    -0.439 C  
BRANCH   7   8
HETATM    8  O   UNL     1     -13.406  11.777  72.265  1.00  0.00    -0.455 OA 
BRANCH   8   9
HETATM    9  C   UNL     1     -13.098  13.107  71.867  1.00  0.00    -0.385 C  
BRANCH   9  10
HETATM   10  C   UNL     1     -14.269  14.008  72.220  1.00  0.00    -0.504 C  
BRANCH  10  11
HETATM   11  O   UNL     1     -14.137  15.224  71.495  1.00  0.00    -0.479 OA 
BRANCH  11  12
HETATM   12  C   UNL     1     -12.820  15.751  71.605  1.00  0.00    -0.448 C  
BRANCH  12  13
HETATM   13  C   UNL     1     -12.242  15.905  70.209  1.00  0.00    -0.237 C  
BRANCH  13  14
HETATM   14  O   UNL     1     -10.828  16.020  70.295  1.00  0.00    -0.324 OA 
BRANCH  14  15
HETATM   15  C   UNL     1     -10.372  17.115  69.509  1.00  0.00    -0.117 C  
BRANCH  15  16
HETATM   16  C   UNL     1     -11.013  17.073  68.132  1.00  0.00    -0.263 C  
BRANCH  16  17
HETATM   17  O   UNL     1     -10.189  17.828  67.254  1.00  0.00    -0.324 OA 
BRANCH  17  18
HETATM   18  C   UNL     1     -10.312  19.226  67.464  1.00  0.00    -0.439 C  
BRANCH  18  19
HETATM   19  C   UNL     1      -8.965  19.857  67.166  1.00  0.00    -0.338 C  
BRANCH  19  20
HETATM   20  O   UNL     1      -7.969  19.280  67.999  1.00  0.00    -0.284 OA 
BRANCH  20  21
HETATM   21  C   UNL     1      -6.839  18.837  67.249  1.00  0.00    -0.203 C  
BRANCH  21  22
HETATM   22  C   UNL     1      -6.261  17.546  67.840  1.00  0.00    -0.158 C  
BRANCH  22  23
HETATM   23  O   UNL     1      -7.233  16.536  68.213  1.00  0.00    -0.150 OA 
BRANCH  23  24
HETATM   24  C   UNL     1      -7.238  15.361  67.365  1.00  0.00    -0.209 C  
HETATM   25  C   UNL     1      -6.737  14.166  68.127  1.00  0.00    -0.125 C  
HETATM   26  C   UNL     1      -7.901  13.298  68.880  1.00  0.00     0.104 C  
HETATM   27  C   UNL     1      -9.258  12.861  68.054  1.00  0.00    -0.212 C  
HETATM   28  C   UNL     1      -9.839  11.421  67.446  1.00  0.00    -0.182 C  
HETATM   29  O   UNL     1     -10.317  13.540  68.742  1.00  0.00    -0.302 OA 
HETATM   30  C   UNL     1     -11.230  11.409  66.806  1.00  0.00    -0.319 C  
HETATM   31  H   UNL     1     -11.100  13.288  68.265  1.00  0.00     0.000 HD 
HETATM   32  C   UNL     1     -11.193  12.562  65.834  1.00  0.00    -0.356 A  
HETATM   33  C   UNL     1     -12.294  12.923  65.082  1.00  0.00    -0.547 A  
HETATM   34  C   UNL     1     -12.361  14.160  64.458  1.00  0.00    -0.419 A  
HETATM   35  C   UNL     1     -11.301  15.098  64.605  1.00  0.00    -0.356 A  
HETATM   36  O   UNL     1     -11.483  16.384  64.200  1.00  0.00    -1.277 OA 
HETATM   37  C   UNL     1     -10.137  14.698  65.257  1.00  0.00    -0.360 A  
HETATM   38  H   UNL     1     -10.775  17.011  64.298  1.00  0.00     0.000 HD 
HETATM   39  C   UNL     1     -10.028  13.428  65.838  1.00  0.00    -0.287 A  
HETATM   40  C   UNL     1      -8.817  13.337  66.726  1.00  0.00    -0.140 C  
HETATM   41  C   UNL     1      -8.624  14.922  66.843  1.00  0.00    -0.239 C  
HETATM   42  C   UNL     1      -7.590  12.034  66.496  1.00  0.00     0.197 C  
HETATM   43  O   UNL     1      -9.064  15.510  65.589  1.00  0.00    -0.211 OA 
HETATM   44  C   UNL     1      -7.795  10.585  67.541  1.00  0.00    -0.106 C  
HETATM   45  N   UNL     1      -9.182  10.257  67.950  1.00  0.00    -0.137 NA 
BRANCH  45  46
HETATM   46  C   UNL     1      -9.572  10.098  69.339  1.00  0.00    -0.232 C  
BRANCH  46  47
HETATM   47  C   UNL     1      -8.458   9.751  70.269  1.00  0.00    -0.163 C  
HETATM   48  C   UNL     1      -8.527   8.748  71.151  1.00  0.00    -0.233 C  
ENDBRANCH  46  47
ENDBRANCH  45  46
ENDBRANCH  23  24
ENDBRANCH  22  23
ENDBRANCH  21  22
ENDBRANCH  20  21
ENDBRANCH  19  20
ENDBRANCH  18  19
ENDBRANCH  17  18
ENDBRANCH  16  17
ENDBRANCH  15  16
ENDBRANCH  14  15
ENDBRANCH  13  14
ENDBRANCH  12  13
ENDBRANCH  11  12
ENDBRANCH  10  11
ENDBRANCH   9  10
ENDBRANCH   8   9
ENDBRANCH   7   8
ENDBRANCH   6   7
ENDBRANCH   5   6
ENDBRANCH   4   5
ENDBRANCH   3   4
ENDBRANCH   2   3
TORSDOF 24
ENDMDL
MODEL        8
REMARK 921   NORMALIZED FREE ENERGY PREDICTED BY IDOCK:   -5.76 KCAL/MOL
REMARK 922        TOTAL FREE ENERGY PREDICTED BY IDOCK:  -16.14 KCAL/MOL
REMARK 923 INTER-LIGAND FREE ENERGY PREDICTED BY IDOCK:  -13.14 KCAL/MOL
REMARK 924 INTRA-LIGAND FREE ENERGY PREDICTED BY IDOCK:   -3.00 KCAL/MOL
REMARK 927      BINDING AFFINITY PREDICTED BY RF-SCORE:    0.00 PKD
ROOT
HETATM    1  C   UNL     1     -10.228  19.850  66.256  1.00  0.00    -0.502 C  
HETATM    2  O   UNL     1     -10.850  19.337  67.426  1.00  0.00    -0.486 OA 
ENDROOT
BRANCH   2   3
HETATM    3  C   UNL     1      -9.936  19.283  68.519  1.00  0.00    -0.433 C  
BRANCH   3   4
HETATM    4  C   UNL     1      -9.076  18.033  68.394  1.00  0.00    -0.286 C  
BRANCH   4   5
HETATM    5  O   UNL     1      -9.918  16.918  68.102  1.00  0.00    -0.264 OA 
BRANCH   5   6
HETATM    6  C   UNL     1      -9.167  15.847  67.537  1.00  0.00    -0.207 C  
BRANCH   6   7
HETATM    7  C   UNL     1      -9.548  15.677  66.076  1.00  0.00    -0.351 C  
BRANCH   7   8
HETATM    8  O   UNL     1     -10.922  15.304  66.010  1.00  0.00    -0.332 OA 
BRANCH   8   9
HETATM    9  C   UNL     1     -11.375  15.228  64.663  1.00  0.00    -0.358 C  
BRANCH   9  10
HETATM   10  C   UNL     1     -12.574  14.298  64.600  1.00  0.00    -0.255 C  
BRANCH  10  11
HETATM   11  O   UNL     1     -12.492  13.537  63.402  1.00  0.00    -0.750 OA 
BRANCH  11  12
HETATM   12  C   UNL     1     -12.482  12.141  63.676  1.00  0.00    -0.549 C  
BRANCH  12  13
HETATM   13  C   UNL     1     -11.045  11.651  63.637  1.00  0.00    -0.425 C  
BRANCH  13  14
HETATM   14  O   UNL     1     -10.780  10.877  64.799  1.00  0.00    -0.292 OA 
BRANCH  14  15
HETATM   15  C   UNL     1     -10.385  11.719  65.876  1.00  0.00    -0.241 C  
BRANCH  15  16
HETATM   16  C   UNL     1     -11.151  11.350  67.135  1.00  0.00    -0.305 C  
BRANCH  16  17
HETATM   17  O   UNL     1     -12.125  12.361  67.355  1.00  0.00    -0.505 OA 
BRANCH  17  18
HETATM   18  C   UNL     1     -11.874  13.106  68.536  1.00  0.00    -0.342 C  
BRANCH  18  19
HETATM   19  C   UNL     1     -11.566  12.120  69.647  1.00  0.00    -0.291 C  
BRANCH  19  20
HETATM   20  O   UNL     1     -12.363  12.415  70.786  1.00  0.00    -0.377 OA 
BRANCH  20  21
HETATM   21  C   UNL     1     -12.905  11.234  71.376  1.00  0.00    -0.410 C  
BRANCH  21  22
HETATM   22  C   UNL     1     -12.494   9.988  70.583  1.00  0.00    -0.236 C  
BRANCH  22  23
HETATM   23  O   UNL     1     -12.313   8.779  71.363  1.00  0.00    -0.299 OA 
BRANCH  23  24
HETATM   24  C   UNL     1     -11.051   8.102  71.143  1.00  0.00    -0.245 C  
HETATM   25  C   UNL     1     -11.288   6.665  70.771  1.00  0.00    -0.389 C  
HETATM   26  C   UNL     1     -11.411   6.386  69.163  1.00  0.00    -0.366 C  
HETATM   27  C   UNL     1     -10.286   7.015  68.137  1.00  0.00    -0.181 C  
HETATM   28  C   UNL     1      -9.037   6.369  67.240  1.00  0.00    -0.117 C  
HETATM   29  O   UNL     1     -11.034   7.921  67.314  1.00  0.00    -0.518 OA 
HETATM   30  C   UNL     1      -8.257   7.297  66.305  1.00  0.00    -0.123 C  
HETATM   31  H   UNL     1     -10.384   8.284  66.722  1.00  0.00     0.000 HD 
HETATM   32  C   UNL     1      -7.894   8.473  67.179  1.00  0.00    -0.097 A  
HETATM   33  C   UNL     1      -7.217   9.571  66.686  1.00  0.00    -0.086 A  
HETATM   34  C   UNL     1      -7.186  10.767  67.389  1.00  0.00    -0.093 A  
HETATM   35  C   UNL     1      -7.879  10.893  68.626  1.00  0.00    -0.126 A  
HETATM   36  O   UNL     1      -8.046  12.125  69.178  1.00  0.00    -0.343 OA 
HETATM   37  C   UNL     1      -8.459   9.759  69.188  1.00  0.00    -0.143 A  
HETATM   38  H   UNL     1      -8.509  12.210  70.003  1.00  0.00     0.000 HD 
HETATM   39  C   UNL     1      -8.444   8.526  68.521  1.00  0.00    -0.131 A  
HETATM   40  C   UNL     1      -9.375   7.542  69.175  1.00  0.00    -0.147 C  
HETATM   41  C   UNL     1     -10.192   8.655  69.985  1.00  0.00    -0.194 C  
HETATM   42  C   UNL     1      -8.790   5.919  69.704  1.00  0.00    -0.131 C  
HETATM   43  O   UNL     1      -9.264   9.724  70.316  1.00  0.00    -0.246 OA 
HETATM   44  C   UNL     1      -9.065   4.579  68.536  1.00  0.00    -0.121 C  
HETATM   45  N   UNL     1      -9.081   4.948  67.100  1.00  0.00    -0.117 NA 
BRANCH  45  46
HETATM   46  C   UNL     1     -10.191   4.627  66.221  1.00  0.00    -0.275 C  
BRANCH  46  47
HETATM   47  C   UNL     1      -9.803   3.998  64.924  1.00  0.00    -0.203 C  
HETATM   48  C   UNL     1     -10.692   3.636  63.993  1.00  0.00    -0.250 C  
ENDBRANCH  46  47
ENDBRANCH  45  46
ENDBRANCH  23  24
ENDBRANCH  22  23
ENDBRANCH  21  22
ENDBRANCH  20  21
ENDBRANCH  19  20
ENDBRANCH  18  19
ENDBRANCH  17  18
ENDBRANCH  16  17
ENDBRANCH  15  16
ENDBRANCH  14  15
ENDBRANCH  13  14
ENDBRANCH  12  13
ENDBRANCH  11  12
ENDBRANCH  10  11
ENDBRANCH   9  10
ENDBRANCH   8   9
ENDBRANCH   7   8
ENDBRANCH   6   7
ENDBRANCH   5   6
ENDBRANCH   4   5
ENDBRANCH   3   4
ENDBRANCH   2   3
TORSDOF 24
ENDMDL
MODEL        9
REMARK 921   NORMALIZED FREE ENERGY PREDICTED BY IDOCK:   -5.64 KCAL/MOL
REMARK 922        TOTAL FREE ENERGY PREDICTED BY IDOCK:  -15.84 KCAL/MOL
REMARK 923 INTER-LIGAND FREE ENERGY PREDICTED BY IDOCK:  -12.51 KCAL/MOL
REMARK 924 INTRA-LIGAND FREE ENERGY PREDICTED BY IDOCK:   -3.33 KCAL/MOL
REMARK 927      BINDING AFFINITY PREDICTED BY RF-SCORE:    0.00 PKD
ROOT
HETATM    1  C   UNL     1     -12.220  14.619  64.363  1.00  0.00    -0.452 C  
HETATM    2  O   UNL     1     -12.553  13.800  63.251  1.00  0.00    -0.830 OA 
ENDROOT
BRANCH   2   3
HETATM    3  C   UNL     1     -12.354  12.419  63.548  1.00  0.00    -0.546 C  
BRANCH   3   4
HETATM    4  C   UNL     1     -10.865  12.108  63.520  1.00  0.00    -0.458 C  
BRANCH   4   5
HETATM    5  O   UNL     1     -10.635  10.875  64.200  1.00  0.00    -0.375 OA 
BRANCH   5   6
HETATM    6  C   UNL     1      -9.939  11.090  65.425  1.00  0.00    -0.260 C  
BRANCH   6   7
HETATM    7  C   UNL     1     -10.722  10.468  66.569  1.00  0.00    -0.121 C  
BRANCH   7   8
HETATM    8  O   UNL     1     -11.631  11.443  67.075  1.00  0.00    -0.510 OA 
BRANCH   8   9
HETATM    9  C   UNL     1     -10.971  12.673  67.350  1.00  0.00    -0.254 C  
BRANCH   9  10
HETATM   10  C   UNL     1     -11.911  13.569  68.138  1.00  0.00    -0.341 C  
BRANCH  10  11
HETATM   11  O   UNL     1     -11.377  13.744  69.444  1.00  0.00    -0.257 OA 
BRANCH  11  12
HETATM   12  C   UNL     1     -10.750  15.014  69.579  1.00  0.00    -0.256 C  
BRANCH  12  13
HETATM   13  C   UNL     1     -11.635  16.063  68.930  1.00  0.00    -0.354 C  
BRANCH  13  14
HETATM   14  O   UNL     1     -10.832  16.947  68.160  1.00  0.00    -0.362 OA 
BRANCH  14  15
HETATM   15  C   UNL     1      -9.505  16.445  68.054  1.00  0.00    -0.217 C  
BRANCH  15  16
HETATM   16  C   UNL     1      -9.010  16.575  66.624  1.00  0.00    -0.255 C  
BRANCH  16  17
HETATM   17  O   UNL     1      -7.845  15.769  66.500  1.00  0.00    -0.220 OA 
BRANCH  17  18
HETATM   18  C   UNL     1      -7.907  14.600  67.301  1.00  0.00    -0.186 C  
BRANCH  18  19
HETATM   19  C   UNL     1      -6.484  14.166  67.595  1.00  0.00    -0.135 C  
BRANCH  19  20
HETATM   20  O   UNL     1      -6.287  12.831  67.148  1.00  0.00    -0.227 OA 
BRANCH  20  21
HETATM   21  C   UNL     1      -7.112  11.906  67.855  1.00  0.00    -0.093 C  
BRANCH  21  22
HETATM   22  C   UNL     1      -6.393  11.369  69.097  1.00  0.00    -0.074 C  
BRANCH  22  23
HETATM   23  O   UNL     1      -7.225  10.650  70.043  1.00  0.00    -0.147 OA 
BRANCH  23  24
HETATM   24  C   UNL     1      -8.257   9.832  69.439  1.00  0.00    -0.135 C  
HETATM   25  C   UNL     1      -7.778   8.416  69.287  1.00  0.00    -0.098 C  
HETATM   26  C   UNL     1      -8.120   7.438  70.554  1.00  0.00    -0.104 C  
HETATM   27  C   UNL     1      -9.645   7.412  71.177  1.00  0.00    -0.159 C  
HETATM   28  C   UNL     1     -10.896   6.309  71.148  1.00  0.00    -0.266 C  
HETATM   29  O   UNL     1      -9.483   7.901  72.515  1.00  0.00    -0.162 OA 
HETATM   30  C   UNL     1     -12.160   6.622  71.954  1.00  0.00    -0.385 C  
HETATM   31  H   UNL     1     -10.363   7.885  72.874  1.00  0.00     0.000 HD 
HETATM   32  C   UNL     1     -12.518   8.028  71.539  1.00  0.00    -0.334 A  
HETATM   33  C   UNL     1     -13.589   8.705  72.090  1.00  0.00    -0.447 A  
HETATM   34  C   UNL     1     -13.708  10.081  71.962  1.00  0.00    -0.252 A  
HETATM   35  C   UNL     1     -12.708  10.830  71.279  1.00  0.00    -0.441 A  
HETATM   36  O   UNL     1     -12.707  12.187  71.371  1.00  0.00    -0.358 OA 
HETATM   37  C   UNL     1     -11.692  10.144  70.617  1.00  0.00    -0.338 A  
HETATM   38  H   UNL     1     -12.040  12.687  70.915  1.00  0.00     0.000 HD 
HETATM   39  C   UNL     1     -11.593   8.748  70.683  1.00  0.00    -0.236 A  
HETATM   40  C   UNL     1     -10.270   8.270  70.149  1.00  0.00    -0.199 C  
HETATM   41  C   UNL     1      -9.565   9.703  70.251  1.00  0.00    -0.254 C  
HETATM   42  C   UNL     1     -10.189   7.029  68.842  1.00  0.00    -0.183 C  
HETATM   43  O   UNL     1     -10.584  10.711  70.008  1.00  0.00    -0.230 OA 
HETATM   44  C   UNL     1      -9.963   5.333  69.399  1.00  0.00    -0.218 C  
HETATM   45  N   UNL     1     -10.520   4.996  70.730  1.00  0.00    -0.199 NA 
BRANCH  45  46
HETATM   46  C   UNL     1      -9.717   4.411  71.790  1.00  0.00    -0.170 C  
BRANCH  46  47
HETATM   47  C   UNL     1     -10.469   3.535  72.736  1.00  0.00    -0.216 C  
HETATM   48  C   UNL     1     -10.161   3.425  74.033  1.00  0.00    -0.194 C  
ENDBRANCH  46  47
ENDBRANCH  45  46
ENDBRANCH  23  24
ENDBRANCH  22  23
ENDBRANCH  21  22
ENDBRANCH  20  21
ENDBRANCH  19  20
ENDBRANCH  18  19
ENDBRANCH  17  18
ENDBRANCH  16  17
ENDBRANCH  15  16
ENDBRANCH  14  15
ENDBRANCH  13  14
ENDBRANCH  12  13
ENDBRANCH  11  12
ENDBRANCH  10  11
ENDBRANCH   9  10
ENDBRANCH   8   9
ENDBRANCH   7   8
ENDBRANCH   6   7
ENDBRANCH   5   6
ENDBRANCH   4   5
ENDBRANCH   3   4
ENDBRANCH   2   3
TORSDOF 24
ENDMDL
MODEL       10
REMARK 921   NORMALIZED FREE ENERGY PREDICTED BY IDOCK:   -5.61 KCAL/MOL
REMARK 922        TOTAL FREE ENERGY PREDICTED BY IDOCK:  -15.77 KCAL/MOL
REMARK 923 INTER-LIGAND FREE ENERGY PREDICTED BY IDOCK:  -13.26 KCAL/MOL
REMARK 924 INTRA-LIGAND FREE ENERGY PREDICTED BY IDOCK:   -2.52 KCAL/MOL
REMARK 927      BINDING AFFINITY PREDICTED BY RF-SCORE:    0.00 PKD
ROOT
HETATM    1  C   UNL     1      -5.585  19.931  70.845  1.00  0.00    -0.282 C  
HETATM    2  O   UNL     1      -6.417  20.356  69.774  1.00  0.00    -0.287 OA 
ENDROOT
BRANCH   2   3
HETATM    3  C   UNL     1      -7.120  19.257  69.197  1.00  0.00    -0.335 C  
BRANCH   3   4
HETATM    4  C   UNL     1      -7.422  19.564  67.738  1.00  0.00    -0.269 C  
BRANCH   4   5
HETATM    5  O   UNL     1      -8.714  20.164  67.647  1.00  0.00    -0.324 OA 
BRANCH   5   6
HETATM    6  C   UNL     1      -9.513  19.508  66.667  1.00  0.00    -0.360 C  
BRANCH   6   7
HETATM    7  C   UNL     1     -10.772  18.964  67.321  1.00  0.00    -0.449 C  
BRANCH   7   8
HETATM    8  O   UNL     1     -10.643  17.549  67.439  1.00  0.00    -0.351 OA 
BRANCH   8   9
HETATM    9  C   UNL     1     -10.634  17.141  68.802  1.00  0.00    -0.336 C  
BRANCH   9  10
HETATM   10  C   UNL     1     -11.205  15.737  68.897  1.00  0.00    -0.332 C  
BRANCH  10  11
HETATM   11  O   UNL     1     -12.242  15.738  69.870  1.00  0.00    -0.352 OA 
BRANCH  11  12
HETATM   12  C   UNL     1     -11.719  15.890  71.184  1.00  0.00    -0.442 C  
BRANCH  12  13
HETATM   13  C   UNL     1     -12.832  15.623  72.182  1.00  0.00    -0.439 C  
BRANCH  13  14
HETATM   14  O   UNL     1     -13.799  14.766  71.591  1.00  0.00    -0.379 OA 
BRANCH  14  15
HETATM   15  C   UNL     1     -13.871  13.536  72.302  1.00  0.00    -0.581 C  
BRANCH  15  16
HETATM   16  C   UNL     1     -13.024  12.483  71.610  1.00  0.00    -0.302 C  
BRANCH  16  17
HETATM   17  O   UNL     1     -13.409  11.216  72.129  1.00  0.00    -0.452 OA 
BRANCH  17  18
HETATM   18  C   UNL     1     -13.153  10.158  71.220  1.00  0.00    -0.396 C  
BRANCH  18  19
HETATM   19  C   UNL     1     -11.717   9.712  71.423  1.00  0.00    -0.404 C  
BRANCH  19  20
HETATM   20  O   UNL     1     -11.658   8.735  72.453  1.00  0.00    -0.352 OA 
BRANCH  20  21
HETATM   21  C   UNL     1     -10.347   8.192  72.596  1.00  0.00    -0.328 C  
BRANCH  21  22
HETATM   22  C   UNL     1      -9.431   8.664  71.461  1.00  0.00    -0.250 C  
BRANCH  22  23
HETATM   23  O   UNL     1      -9.190   7.698  70.406  1.00  0.00    -0.156 OA 
BRANCH  23  24
HETATM   24  C   UNL     1      -8.579   8.247  69.213  1.00  0.00    -0.138 C  
HETATM   25  C   UNL     1      -9.542   8.189  68.060  1.00  0.00    -0.174 C  
HETATM   26  C   UNL     1     -10.470   9.525  67.876  1.00  0.00    -0.293 C  
HETATM   27  C   UNL     1      -9.769  11.015  67.898  1.00  0.00    -0.172 C  
HETATM   28  C   UNL     1      -9.455  12.173  66.740  1.00  0.00    -0.212 C  
HETATM   29  O   UNL     1     -10.338  11.650  69.052  1.00  0.00    -0.339 OA 
HETATM   30  C   UNL     1      -8.858  13.510  67.189  1.00  0.00    -0.231 C  
HETATM   31  H   UNL     1      -9.933  12.510  69.065  1.00  0.00     0.000 HD 
HETATM   32  C   UNL     1      -7.685  13.112  68.051  1.00  0.00    -0.146 A  
HETATM   33  C   UNL     1      -6.901  14.047  68.699  1.00  0.00    -0.103 A  
HETATM   34  C   UNL     1      -6.056  13.679  69.736  1.00  0.00    -0.126 A  
HETATM   35  C   UNL     1      -6.002  12.325  70.173  1.00  0.00    -0.148 A  
HETATM   36  O   UNL     1      -5.366  12.022  71.336  1.00  0.00    -0.325 OA 
HETATM   37  C   UNL     1      -6.694  11.358  69.448  1.00  0.00    -0.122 A  
HETATM   38  H   UNL     1      -5.329  11.118  71.628  1.00  0.00     0.000 HD 
HETATM   39  C   UNL     1      -7.502  11.705  68.356  1.00  0.00    -0.107 A  
HETATM   40  C   UNL     1      -8.366  10.550  67.930  1.00  0.00    -0.115 C  
HETATM   41  C   UNL     1      -8.178   9.737  69.295  1.00  0.00    -0.132 C  
HETATM   42  C   UNL     1      -8.360   9.966  66.222  1.00  0.00    -0.125 C  
HETATM   43  O   UNL     1      -6.845  10.025  69.796  1.00  0.00    -0.066 OA 
HETATM   44  C   UNL     1      -9.665  10.627  65.174  1.00  0.00    -0.271 C  
HETATM   45  N   UNL     1     -10.156  11.985  65.509  1.00  0.00    -0.247 NA 
BRANCH  45  46
HETATM   46  C   UNL     1     -11.558  12.273  65.754  1.00  0.00    -0.388 C  
BRANCH  46  47
HETATM   47  C   UNL     1     -12.372  12.518  64.527  1.00  0.00    -0.545 C  
HETATM   48  C   UNL     1     -11.840  12.898  63.361  1.00  0.00    -0.576 C  
ENDBRANCH  46  47
ENDBRANCH  45  46
ENDBRANCH  23  24
ENDBRANCH  22  23
ENDBRANCH  21  22
ENDBRANCH  20  21
ENDBRANCH  19  20
ENDBRANCH  18  19
ENDBRANCH  17  18
ENDBRANCH  16  17
ENDBRANCH  15  16
ENDBRANCH  14  15
ENDBRANCH  13  14
ENDBRANCH  12  13
ENDBRANCH  11  12
ENDBRANCH  10  11
ENDBRANCH   9  10
ENDBRANCH   8   9
ENDBRANCH   7   8
ENDBRANCH   6   7
ENDBRANCH   5   6
ENDBRANCH   4   5
ENDBRANCH   3   4
ENDBRANCH   2   3
TORSDOF 24
ENDMDL
MODEL       11
REMARK 921   NORMALIZED FREE ENERGY PREDICTED BY IDOCK:   -5.55 KCAL/MOL
REMARK 922        TOTAL FREE ENERGY PREDICTED BY IDOCK:  -15.63 KCAL/MOL
REMARK 923 INTER-LIGAND FREE ENERGY PREDICTED BY IDOCK:  -12.12 KCAL/MOL
REMARK 924 INTRA-LIGAND FREE ENERGY PREDICTED BY IDOCK:   -3.52 KCAL/MOL
REMARK 927      BINDING AFFINITY PREDICTED BY RF-SCORE:    0.00 PKD
ROOT
HETATM    1  C   UNL     1     -11.398   5.037  72.978  1.00  0.00    -0.298 C  
HETATM    2  O   UNL     1     -11.519   6.444  72.823  1.00  0.00    -0.229 OA 
ENDROOT
BRANCH   2   3
HETATM    3  C   UNL     1     -12.124   6.777  71.575  1.00  0.00    -0.363 C  
BRANCH   3   4
HETATM    4  C   UNL     1     -11.343   7.908  70.923  1.00  0.00    -0.277 C  
BRANCH   4   5
HETATM    5  O   UNL     1     -11.341   9.036  71.797  1.00  0.00    -0.334 OA 
BRANCH   5   6
HETATM    6  C   UNL     1     -12.661   9.538  71.984  1.00  0.00    -0.396 C  
BRANCH   6   7
HETATM    7  C   UNL     1     -12.846  10.800  71.157  1.00  0.00    -0.414 C  
BRANCH   7   8
HETATM    8  O   UNL     1     -13.232  11.858  72.031  1.00  0.00    -0.495 OA 
BRANCH   8   9
HETATM    9  C   UNL     1     -12.964  13.131  71.455  1.00  0.00    -0.321 C  
BRANCH   9  10
HETATM   10  C   UNL     1     -12.109  12.938  70.215  1.00  0.00    -0.302 C  
BRANCH  10  11
HETATM   11  O   UNL     1     -12.122  14.146  69.466  1.00  0.00    -0.316 OA 
BRANCH  11  12
HETATM   12  C   UNL     1     -12.031  15.283  70.317  1.00  0.00    -0.330 C  
BRANCH  12  13
HETATM   13  C   UNL     1     -11.005  16.240  69.736  1.00  0.00    -0.354 C  
BRANCH  13  14
HETATM   14  O   UNL     1     -10.300  15.595  68.685  1.00  0.00    -0.208 OA 
BRANCH  14  15
HETATM   15  C   UNL     1      -9.844  16.551  67.735  1.00  0.00    -0.240 C  
BRANCH  15  16
HETATM   16  C   UNL     1      -9.850  15.946  66.342  1.00  0.00    -0.282 C  
BRANCH  16  17
HETATM   17  O   UNL     1     -10.335  16.939  65.447  1.00  0.00    -0.609 OA 
BRANCH  17  18
HETATM   18  C   UNL     1     -11.357  16.447  64.594  1.00  0.00    -0.161 C  
BRANCH  18  19
HETATM   19  C   UNL     1     -11.265  14.933  64.589  1.00  0.00    -0.341 C  
BRANCH  19  20
HETATM   20  O   UNL     1     -12.498  14.378  64.153  1.00  0.00    -0.676 OA 
BRANCH  20  21
HETATM   21  C   UNL     1     -12.772  13.128  64.785  1.00  0.00    -0.308 C  
BRANCH  21  22
HETATM   22  C   UNL     1     -12.390  13.170  66.268  1.00  0.00    -0.276 C  
BRANCH  22  23
HETATM   23  O   UNL     1     -12.031  11.895  66.860  1.00  0.00    -0.614 OA 
BRANCH  23  24
HETATM   24  C   UNL     1     -10.738  11.384  66.454  1.00  0.00    -0.275 C  
HETATM   25  C   UNL     1      -9.666  12.401  66.725  1.00  0.00    -0.226 C  
HETATM   26  C   UNL     1      -8.955  12.271  68.193  1.00  0.00    -0.192 C  
HETATM   27  C   UNL     1      -8.428  10.801  68.719  1.00  0.00    -0.148 C  
HETATM   28  C   UNL     1      -6.925  10.111  68.931  1.00  0.00    -0.063 C  
HETATM   29  O   UNL     1      -9.233  10.537  69.876  1.00  0.00    -0.398 OA 
HETATM   30  C   UNL     1      -6.848   8.713  69.552  1.00  0.00    -0.044 C  
HETATM   31  H   UNL     1      -8.929   9.688  70.179  1.00  0.00     0.000 HD 
HETATM   32  C   UNL     1      -7.833   7.902  68.746  1.00  0.00    -0.118 A  
HETATM   33  C   UNL     1      -8.098   6.576  69.032  1.00  0.00    -0.112 A  
HETATM   34  C   UNL     1      -9.223   5.945  68.521  1.00  0.00    -0.119 A  
HETATM   35  C   UNL     1     -10.146   6.665  67.711  1.00  0.00    -0.148 A  
HETATM   36  O   UNL     1     -11.356   6.115  67.424  1.00  0.00    -0.528 OA 
HETATM   37  C   UNL     1      -9.825   7.962  67.318  1.00  0.00    -0.195 A  
HETATM   38  H   UNL     1     -11.973   6.595  66.883  1.00  0.00     0.000 HD 
HETATM   39  C   UNL     1      -8.659   8.593  67.773  1.00  0.00    -0.136 A  
HETATM   40  C   UNL     1      -8.679  10.065  67.462  1.00  0.00    -0.125 C  
HETATM   41  C   UNL     1     -10.257  10.120  67.201  1.00  0.00    -0.225 C  
HETATM   42  C   UNL     1      -7.326  10.842  66.556  1.00  0.00    -0.142 C  
HETATM   43  O   UNL     1     -10.651   8.840  66.635  1.00  0.00    -0.226 OA 
HETATM   44  C   UNL     1      -6.064  11.625  67.572  1.00  0.00    -0.079 C  
HETATM   45  N   UNL     1      -5.839  11.038  68.914  1.00  0.00    -0.040 NA 
BRANCH  45  46
HETATM   46  C   UNL     1      -5.911  11.821  70.134  1.00  0.00    -0.156 C  
BRANCH  46  47
HETATM   47  C   UNL     1      -5.578  13.267  69.972  1.00  0.00    -0.117 C  
HETATM   48  C   UNL     1      -6.272  14.248  70.559  1.00  0.00    -0.157 C  
ENDBRANCH  46  47
ENDBRANCH  45  46
ENDBRANCH  23  24
ENDBRANCH  22  23
ENDBRANCH  21  22
ENDBRANCH  20  21
ENDBRANCH  19  20
ENDBRANCH  18  19
ENDBRANCH  17  18
ENDBRANCH  16  17
ENDBRANCH  15  16
ENDBRANCH  14  15
ENDBRANCH  13  14
ENDBRANCH  12  13
ENDBRANCH  11  12
ENDBRANCH  10  11
ENDBRANCH   9  10
ENDBRANCH   8   9
ENDBRANCH   7   8
ENDBRANCH   6   7
ENDBRANCH   5   6
ENDBRANCH   4   5
ENDBRANCH   3   4
ENDBRANCH   2   3
TORSDOF 24
ENDMDL
MODEL       12
REMARK 921   NORMALIZED FREE ENERGY PREDICTED BY IDOCK:   -5.54 KCAL/MOL
REMARK 922        TOTAL FREE ENERGY PREDICTED BY IDOCK:  -15.60 KCAL/MOL
REMARK 923 INTER-LIGAND FREE ENERGY PREDICTED BY IDOCK:  -12.57 KCAL/MOL
REMARK 924 INTRA-LIGAND FREE ENERGY PREDICTED BY IDOCK:   -3.03 KCAL/MOL
REMARK 927      BINDING AFFINITY PREDICTED BY RF-SCORE:    0.00 PKD
ROOT
HETATM    1  C   UNL     1     -10.588   3.611  63.394  1.00  0.00    -0.251 C  
HETATM    2  O   UNL     1      -9.312   4.222  63.525  1.00  0.00    -0.147 OA 
ENDROOT
BRANCH   2   3
HETATM    3  C   UNL     1      -9.051   4.592  64.878  1.00  0.00    -0.152 C  
BRANCH   3   4
HETATM    4  C   UNL     1     -10.323   4.432  65.697  1.00  0.00    -0.225 C  
BRANCH   4   5
HETATM    5  O   UNL     1     -10.565   5.638  66.421  1.00  0.00    -0.244 OA 
BRANCH   5   6
HETATM    6  C   UNL     1     -10.375   5.440  67.819  1.00  0.00    -0.166 C  
BRANCH   6   7
HETATM    7  C   UNL     1     -10.973   6.611  68.582  1.00  0.00    -0.251 C  
BRANCH   7   8
HETATM    8  O   UNL     1     -11.670   6.099  69.716  1.00  0.00    -0.340 OA 
BRANCH   8   9
HETATM    9  C   UNL     1     -11.695   7.045  70.779  1.00  0.00    -0.349 C  
BRANCH   9  10
HETATM   10  C   UNL     1     -10.375   6.979  71.526  1.00  0.00    -0.203 C  
BRANCH  10  11
HETATM   11  O   UNL     1     -10.046   8.287  71.976  1.00  0.00    -0.212 OA 
BRANCH  11  12
HETATM   12  C   UNL     1     -10.059   9.221  70.903  1.00  0.00    -0.302 C  
BRANCH  12  13
HETATM   13  C   UNL     1      -8.630   9.447  70.441  1.00  0.00    -0.230 C  
BRANCH  13  14
HETATM   14  O   UNL     1      -8.608  10.481  69.467  1.00  0.00    -0.131 OA 
BRANCH  14  15
HETATM   15  C   UNL     1      -7.324  10.563  68.860  1.00  0.00    -0.098 C  
BRANCH  15  16
HETATM   16  C   UNL     1      -6.287  10.984  69.886  1.00  0.00    -0.137 C  
BRANCH  16  17
HETATM   17  O   UNL     1      -6.287  12.405  69.936  1.00  0.00    -0.124 OA 
BRANCH  17  18
HETATM   18  C   UNL     1      -5.854  12.990  68.719  1.00  0.00    -0.074 C  
BRANCH  18  19
HETATM   19  C   UNL     1      -5.881  14.497  68.894  1.00  0.00    -0.085 C  
BRANCH  19  20
HETATM   20  O   UNL     1      -6.955  15.049  68.146  1.00  0.00    -0.104 OA 
BRANCH  20  21
HETATM   21  C   UNL     1      -6.541  16.170  67.368  1.00  0.00    -0.185 C  
BRANCH  21  22
HETATM   22  C   UNL     1      -7.676  16.655  66.459  1.00  0.00    -0.302 C  
BRANCH  22  23
HETATM   23  O   UNL     1      -8.765  17.343  67.126  1.00  0.00    -0.218 OA 
BRANCH  23  24
HETATM   24  C   UNL     1     -10.059  16.710  66.980  1.00  0.00    -0.281 C  
HETATM   25  C   UNL     1     -10.017  15.682  65.884  1.00  0.00    -0.379 C  
HETATM   26  C   UNL     1      -9.632  14.170  66.379  1.00  0.00    -0.310 C  
HETATM   27  C   UNL     1     -10.402  13.516  67.681  1.00  0.00    -0.239 C  
HETATM   28  C   UNL     1     -11.545  12.318  67.878  1.00  0.00    -0.354 C  
HETATM   29  O   UNL     1      -9.356  13.329  68.644  1.00  0.00    -0.365 OA 
HETATM   30  C   UNL     1     -11.946  11.923  69.302  1.00  0.00    -0.342 C  
HETATM   31  H   UNL     1      -9.800  12.952  69.396  1.00  0.00     0.000 HD 
HETATM   32  C   UNL     1     -12.255  13.239  69.972  1.00  0.00    -0.345 A  
HETATM   33  C   UNL     1     -12.613  13.318  71.304  1.00  0.00    -0.398 A  
HETATM   34  C   UNL     1     -12.566  14.523  71.988  1.00  0.00    -0.400 A  
HETATM   35  C   UNL     1     -12.119  15.706  71.333  1.00  0.00    -0.418 A  
HETATM   36  O   UNL     1     -11.844  16.816  72.068  1.00  0.00    -0.608 OA 
HETATM   37  C   UNL     1     -11.875  15.661  69.962  1.00  0.00    -0.367 A  
HETATM   38  H   UNL     1     -11.546  17.605  71.631  1.00  0.00     0.000 HD 
HETATM   39  C   UNL     1     -11.980  14.463  69.242  1.00  0.00    -0.362 A  
HETATM   40  C   UNL     1     -11.388  14.601  67.866  1.00  0.00    -0.332 C  
HETATM   41  C   UNL     1     -10.560  15.926  68.214  1.00  0.00    -0.276 C  
HETATM   42  C   UNL     1     -12.349  14.187  66.395  1.00  0.00    -0.431 C  
HETATM   43  O   UNL     1     -11.327  16.676  69.195  1.00  0.00    -0.218 OA 
HETATM   44  C   UNL     1     -12.095  12.527  65.748  1.00  0.00    -0.378 C  
HETATM   45  N   UNL     1     -11.731  11.483  66.735  1.00  0.00    -0.479 NA 
BRANCH  45  46
HETATM   46  C   UNL     1     -10.546  10.655  66.598  1.00  0.00    -0.214 C  
BRANCH  46  47
HETATM   47  C   UNL     1      -9.999  10.566  65.212  1.00  0.00    -0.364 C  
HETATM   48  C   UNL     1      -8.691  10.596  64.939  1.00  0.00    -0.178 C  
ENDBRANCH  46  47
ENDBRANCH  45  46
ENDBRANCH  23  24
ENDBRANCH  22  23
ENDBRANCH  21  22
ENDBRANCH  20  21
ENDBRANCH  19  20
ENDBRANCH  18  19
ENDBRANCH  17  18
ENDBRANCH  16  17
ENDBRANCH  15  16
ENDBRANCH  14  15
ENDBRANCH  13  14
ENDBRANCH  12  13
ENDBRANCH  11  12
ENDBRANCH  10  11
ENDBRANCH   9  10
ENDBRANCH   8   9
ENDBRANCH   7   8
ENDBRANCH   6   7
ENDBRANCH   5   6
ENDBRANCH   4   5
ENDBRANCH   3   4
ENDBRANCH   2   3
TORSDOF 24
ENDMDL
MODEL       13
REMARK 921   NORMALIZED FREE ENERGY PREDICTED BY IDOCK:   -5.51 KCAL/MOL
REMARK 922        TOTAL FREE ENERGY PREDICTED BY IDOCK:  -15.53 KCAL/MOL
REMARK 923 INTER-LIGAND FREE ENERGY PREDICTED BY IDOCK:  -13.41 KCAL/MOL
REMARK 924 INTRA-LIGAND FREE ENERGY PREDICTED BY IDOCK:   -2.12 KCAL/MOL
REMARK 927      BINDING AFFINITY PREDICTED BY RF-SCORE:    0.00 PKD
ROOT
HETATM    1  C   UNL     1     -12.540  15.798  73.916  1.00  0.00    -0.627 C  
HETATM    2  O   UNL     1     -13.753  16.033  73.214  1.00  0.00    -0.561 OA 
ENDROOT
BRANCH   2   3
HETATM    3  C   UNL     1     -13.722  15.448  71.914  1.00  0.00    -0.501 C  
BRANCH   3   4
HETATM    4  C   UNL     1     -12.309  15.539  71.356  1.00  0.00    -0.400 C  
BRANCH   4   5
HETATM    5  O   UNL     1     -12.379  15.832  69.961  1.00  0.00    -0.354 OA 
BRANCH   5   6
HETATM    6  C   UNL     1     -11.631  14.884  69.203  1.00  0.00    -0.307 C  
BRANCH   6   7
HETATM    7  C   UNL     1     -11.123  15.541  67.930  1.00  0.00    -0.321 C  
BRANCH   7   8
HETATM    8  O   UNL     1     -10.986  14.536  66.929  1.00  0.00    -0.302 OA 
BRANCH   8   9
HETATM    9  C   UNL     1     -12.252  14.024  66.530  1.00  0.00    -0.451 C  
BRANCH   9  10
HETATM   10  C   UNL     1     -12.273  13.891  65.018  1.00  0.00    -0.425 C  
BRANCH  10  11
HETATM   11  O   UNL     1     -12.971  12.699  64.680  1.00  0.00    -0.768 OA 
BRANCH  11  12
HETATM   12  C   UNL     1     -12.339  12.017  63.603  1.00  0.00    -0.539 C  
BRANCH  12  13
HETATM   13  C   UNL     1     -10.969  11.550  64.064  1.00  0.00    -0.383 C  
BRANCH  13  14
HETATM   14  O   UNL     1     -10.131  11.359  62.932  1.00  0.00    -0.297 OA 
BRANCH  14  15
HETATM   15  C   UNL     1      -9.197  10.315  63.178  1.00  0.00    -0.287 C  
BRANCH  15  16
HETATM   16  C   UNL     1      -9.163   9.982  64.659  1.00  0.00    -0.258 C  
BRANCH  16  17
HETATM   17  O   UNL     1      -8.884   8.593  64.779  1.00  0.00    -0.123 OA 
BRANCH  17  18
HETATM   18  C   UNL     1      -7.886   8.161  63.868  1.00  0.00    -0.147 C  
BRANCH  18  19
HETATM   19  C   UNL     1      -7.212   6.941  64.466  1.00  0.00    -0.073 C  
BRANCH  19  20
HETATM   20  O   UNL     1      -8.090   5.826  64.401  1.00  0.00    -0.127 OA 
BRANCH  20  21
HETATM   21  C   UNL     1      -7.661   4.759  65.246  1.00  0.00    -0.081 C  
BRANCH  21  22
HETATM   22  C   UNL     1      -8.859   4.067  65.904  1.00  0.00    -0.123 C  
BRANCH  22  23
HETATM   23  O   UNL     1      -9.715   4.921  66.706  1.00  0.00    -0.149 OA 
BRANCH  23  24
HETATM   24  C   UNL     1      -9.071   5.504  67.865  1.00  0.00    -0.107 C  
HETATM   25  C   UNL     1      -9.172   7.003  67.819  1.00  0.00    -0.124 C  
HETATM   26  C   UNL     1     -10.486   7.623  68.571  1.00  0.00    -0.206 C  
HETATM   27  C   UNL     1     -10.871   7.119  70.092  1.00  0.00    -0.257 C  
HETATM   28  C   UNL     1     -10.794   7.815  71.605  1.00  0.00    -0.229 C  
HETATM   29  O   UNL     1     -12.147   6.482  69.934  1.00  0.00    -0.584 OA 
HETATM   30  C   UNL     1     -11.355   7.033  72.796  1.00  0.00    -0.256 C  
HETATM   31  H   UNL     1     -12.368   6.191  70.811  1.00  0.00     0.000 HD 
HETATM   32  C   UNL     1     -10.718   5.671  72.669  1.00  0.00    -0.285 A  
HETATM   33  C   UNL     1     -11.012   4.640  73.541  1.00  0.00    -0.395 A  
HETATM   34  C   UNL     1     -10.695   3.326  73.228  1.00  0.00    -0.288 A  
HETATM   35  C   UNL     1     -10.082   3.011  71.983  1.00  0.00    -0.110 A  
HETATM   36  O   UNL     1     -10.002   1.712  71.586  1.00  0.00    -0.141 OA 
HETATM   37  C   UNL     1      -9.671   4.052  71.155  1.00  0.00    -0.187 A  
HETATM   38  H   UNL     1      -9.592   1.501  70.755  1.00  0.00     0.000 HD 
HETATM   39  C   UNL     1      -9.926   5.390  71.486  1.00  0.00    -0.237 A  
HETATM   40  C   UNL     1      -9.661   6.300  70.318  1.00  0.00    -0.189 C  
HETATM   41  C   UNL     1      -9.687   5.126  69.231  1.00  0.00    -0.172 C  
HETATM   42  C   UNL     1      -8.548   7.712  70.473  1.00  0.00    -0.137 C  
HETATM   43  O   UNL     1      -9.170   3.927  69.869  1.00  0.00    -0.111 OA 
HETATM   44  C   UNL     1      -9.341   9.288  70.826  1.00  0.00    -0.258 C  
HETATM   45  N   UNL     1     -10.606   9.231  71.597  1.00  0.00    -0.348 NA 
BRANCH  45  46
HETATM   46  C   UNL     1     -11.839   9.835  71.124  1.00  0.00    -0.382 C  
BRANCH  46  47
HETATM   47  C   UNL     1     -11.659  11.062  70.293  1.00  0.00    -0.414 C  
HETATM   48  C   UNL     1     -11.940  11.107  68.986  1.00  0.00    -0.389 C  
ENDBRANCH  46  47
ENDBRANCH  45  46
ENDBRANCH  23  24
ENDBRANCH  22  23
ENDBRANCH  21  22
ENDBRANCH  20  21
ENDBRANCH  19  20
ENDBRANCH  18  19
ENDBRANCH  17  18
ENDBRANCH  16  17
ENDBRANCH  15  16
ENDBRANCH  14  15
ENDBRANCH  13  14
ENDBRANCH  12  13
ENDBRANCH  11  12
ENDBRANCH  10  11
ENDBRANCH   9  10
ENDBRANCH   8   9
ENDBRANCH   7   8
ENDBRANCH   6   7
ENDBRANCH   5   6
ENDBRANCH   4   5
ENDBRANCH   3   4
ENDBRANCH   2   3
TORSDOF 24
ENDMDL
MODEL       14
REMARK 921   NORMALIZED FREE ENERGY PREDICTED BY IDOCK:   -5.46 KCAL/MOL
REMARK 922        TOTAL FREE ENERGY PREDICTED BY IDOCK:  -15.42 KCAL/MOL
REMARK 923 INTER-LIGAND FREE ENERGY PREDICTED BY IDOCK:  -12.94 KCAL/MOL
REMARK 924 INTRA-LIGAND FREE ENERGY PREDICTED BY IDOCK:   -2.48 KCAL/MOL
REMARK 927      BINDING AFFINITY PREDICTED BY RF-SCORE:    0.00 PKD
ROOT
HETATM    1  C   UNL     1      -9.917  20.322  66.895  1.00  0.00    -0.452 C  
HETATM    2  O   UNL     1      -9.796  18.907  66.958  1.00  0.00    -0.301 OA 
ENDROOT
BRANCH   2   3
HETATM    3  C   UNL     1      -8.443  18.512  67.175  1.00  0.00    -0.265 C  
BRANCH   3   4
HETATM    4  C   UNL     1      -8.119  17.321  66.285  1.00  0.00    -0.280 C  
BRANCH   4   5
HETATM    5  O   UNL     1      -9.316  16.876  65.649  1.00  0.00    -0.519 OA 
BRANCH   5   6
HETATM    6  C   UNL     1      -9.497  15.474  65.826  1.00  0.00    -0.299 C  
BRANCH   6   7
HETATM    7  C   UNL     1     -10.862  15.212  66.439  1.00  0.00    -0.326 C  
BRANCH   7   8
HETATM    8  O   UNL     1     -10.702  15.064  67.848  1.00  0.00    -0.257 OA 
BRANCH   8   9
HETATM    9  C   UNL     1     -11.201  16.196  68.549  1.00  0.00    -0.365 C  
BRANCH   9  10
HETATM   10  C   UNL     1     -10.919  16.021  70.031  1.00  0.00    -0.365 C  
BRANCH  10  11
HETATM   11  O   UNL     1     -12.150  15.776  70.698  1.00  0.00    -0.370 OA 
BRANCH  11  12
HETATM   12  C   UNL     1     -12.050  16.061  72.088  1.00  0.00    -0.526 C  
BRANCH  12  13
HETATM   13  C   UNL     1     -13.333  15.614  72.767  1.00  0.00    -0.549 C  
BRANCH  13  14
HETATM   14  O   UNL     1     -13.996  14.665  71.944  1.00  0.00    -0.394 OA 
BRANCH  14  15
HETATM   15  C   UNL     1     -13.867  13.358  72.491  1.00  0.00    -0.489 C  
BRANCH  15  16
HETATM   16  C   UNL     1     -12.971  12.508  71.607  1.00  0.00    -0.302 C  
BRANCH  16  17
HETATM   17  O   UNL     1     -13.169  11.150  71.977  1.00  0.00    -0.493 OA 
BRANCH  17  18
HETATM   18  C   UNL     1     -12.819  10.249  70.940  1.00  0.00    -0.374 C  
BRANCH  18  19
HETATM   19  C   UNL     1     -11.982   9.141  71.552  1.00  0.00    -0.352 C  
BRANCH  19  20
HETATM   20  O   UNL     1     -12.735   7.937  71.593  1.00  0.00    -0.315 OA 
BRANCH  20  21
HETATM   21  C   UNL     1     -12.026   6.846  71.008  1.00  0.00    -0.374 C  
BRANCH  21  22
HETATM   22  C   UNL     1     -10.887   7.350  70.114  1.00  0.00    -0.256 C  
BRANCH  22  23
HETATM   23  O   UNL     1     -10.170   6.329  69.374  1.00  0.00    -0.172 OA 
BRANCH  23  24
HETATM   24  C   UNL     1      -9.210   6.840  68.416  1.00  0.00    -0.123 C  
HETATM   25  C   UNL     1      -9.849   6.981  67.063  1.00  0.00    -0.239 C  
HETATM   26  C   UNL     1     -10.516   8.446  66.771  1.00  0.00    -0.315 C  
HETATM   27  C   UNL     1      -9.653   9.814  67.089  1.00  0.00    -0.169 C  
HETATM   28  C   UNL     1      -8.908  10.967  66.144  1.00  0.00    -0.190 C  
HETATM   29  O   UNL     1     -10.408  10.469  68.119  1.00  0.00    -0.158 OA 
HETATM   30  C   UNL     1      -8.274  12.177  66.836  1.00  0.00    -0.134 C  
HETATM   31  H   UNL     1      -9.910  11.258  68.302  1.00  0.00     0.000 HD 
HETATM   32  C   UNL     1      -7.420  11.568  67.922  1.00  0.00    -0.103 A  
HETATM   33  C   UNL     1      -6.710  12.345  68.817  1.00  0.00    -0.092 A  
HETATM   34  C   UNL     1      -6.211  11.805  69.994  1.00  0.00    -0.136 A  
HETATM   35  C   UNL     1      -6.448  10.439  70.316  1.00  0.00    -0.141 A  
HETATM   36  O   UNL     1      -6.172   9.988  71.569  1.00  0.00    -0.311 OA 
HETATM   37  C   UNL     1      -7.054   9.621  69.365  1.00  0.00    -0.062 A  
HETATM   38  H   UNL     1      -6.330   9.076  71.784  1.00  0.00     0.000 HD 
HETATM   39  C   UNL     1      -7.507  10.137  68.143  1.00  0.00    -0.083 A  
HETATM   40  C   UNL     1      -8.378   9.145  67.423  1.00  0.00    -0.115 C  
HETATM   41  C   UNL     1      -8.651   8.248  68.719  1.00  0.00    -0.133 C  
HETATM   42  C   UNL     1      -8.017   8.650  65.725  1.00  0.00    -0.106 C  
HETATM   43  O   UNL     1      -7.462   8.310  69.553  1.00  0.00    -0.081 OA 
HETATM   44  C   UNL     1      -8.915   9.548  64.450  1.00  0.00    -0.212 C  
HETATM   45  N   UNL     1      -9.292  10.945  64.768  1.00  0.00    -0.218 NA 
BRANCH  45  46
HETATM   46  C   UNL     1     -10.660  11.426  64.687  1.00  0.00    -0.318 C  
BRANCH  46  47
HETATM   47  C   UNL     1     -10.878  12.541  63.719  1.00  0.00    -0.489 C  
HETATM   48  C   UNL     1     -12.083  13.059  63.460  1.00  0.00    -0.617 C  
ENDBRANCH  46  47
ENDBRANCH  45  46
ENDBRANCH  23  24
ENDBRANCH  22  23
ENDBRANCH  21  22
ENDBRANCH  20  21
ENDBRANCH  19  20
ENDBRANCH  18  19
ENDBRANCH  17  18
ENDBRANCH  16  17
ENDBRANCH  15  16
ENDBRANCH  14  15
ENDBRANCH  13  14
ENDBRANCH  12  13
ENDBRANCH  11  12
ENDBRANCH  10  11
ENDBRANCH   9  10
ENDBRANCH   8   9
ENDBRANCH   7   8
ENDBRANCH   6   7
ENDBRANCH   5   6
ENDBRANCH   4   5
ENDBRANCH   3   4
ENDBRANCH   2   3
TORSDOF 24
ENDMDL
MODEL       15
REMARK 921   NORMALIZED FREE ENERGY PREDICTED BY IDOCK:   -5.45 KCAL/MOL
REMARK 922        TOTAL FREE ENERGY PREDICTED BY IDOCK:  -15.39 KCAL/MOL
REMARK 923 INTER-LIGAND FREE ENERGY PREDICTED BY IDOCK:  -12.92 KCAL/MOL
REMARK 924 INTRA-LIGAND FREE ENERGY PREDICTED BY IDOCK:   -2.47 KCAL/MOL
REMARK 927      BINDING AFFINITY PREDICTED BY RF-SCORE:    0.00 PKD
ROOT
HETATM    1  C   UNL     1     -10.533  19.727  66.392  1.00  0.00    -0.507 C  
HETATM    2  O   UNL     1     -10.082  20.433  67.539  1.00  0.00    -0.411 OA 
ENDROOT
BRANCH   2   3
HETATM    3  C   UNL     1      -9.392  19.570  68.441  1.00  0.00    -0.367 C  
BRANCH   3   4
HETATM    4  C   UNL     1      -9.202  18.209  67.788  1.00  0.00    -0.263 C  
BRANCH   4   5
HETATM    5  O   UNL     1      -9.394  17.192  68.770  1.00  0.00    -0.266 OA 
BRANCH   5   6
HETATM    6  C   UNL     1     -10.760  16.791  68.829  1.00  0.00    -0.341 C  
BRANCH   6   7
HETATM    7  C   UNL     1     -10.992  15.961  70.080  1.00  0.00    -0.364 C  
BRANCH   7   8
HETATM    8  O   UNL     1     -12.327  15.462  70.049  1.00  0.00    -0.359 OA 
BRANCH   8   9
HETATM    9  C   UNL     1     -12.369  14.072  70.348  1.00  0.00    -0.359 C  
BRANCH   9  10
HETATM   10  C   UNL     1     -11.447  13.336  69.391  1.00  0.00    -0.263 C  
BRANCH  10  11
HETATM   11  O   UNL     1     -12.215  12.884  68.283  1.00  0.00    -0.206 OA 
BRANCH  11  12
HETATM   12  C   UNL     1     -11.549  13.143  67.053  1.00  0.00    -0.359 C  
BRANCH  12  13
HETATM   13  C   UNL     1     -12.262  14.284  66.348  1.00  0.00    -0.401 C  
BRANCH  13  14
HETATM   14  O   UNL     1     -13.087  13.759  65.318  1.00  0.00    -0.756 OA 
BRANCH  14  15
HETATM   15  C   UNL     1     -12.337  13.586  64.122  1.00  0.00    -0.328 C  
BRANCH  15  16
HETATM   16  C   UNL     1     -12.559  12.191  63.562  1.00  0.00    -0.506 C  
BRANCH  16  17
HETATM   17  O   UNL     1     -11.373  11.443  63.796  1.00  0.00    -0.382 OA 
BRANCH  17  18
HETATM   18  C   UNL     1     -10.198  12.205  63.572  1.00  0.00    -0.424 C  
BRANCH  18  19
HETATM   19  C   UNL     1      -9.188  11.306  62.884  1.00  0.00    -0.319 C  
BRANCH  19  20
HETATM   20  O   UNL     1      -9.463   9.947  63.197  1.00  0.00    -0.271 OA 
BRANCH  20  21
HETATM   21  C   UNL     1      -8.538   9.424  64.149  1.00  0.00    -0.198 C  
BRANCH  21  22
HETATM   22  C   UNL     1      -9.157   9.388  65.551  1.00  0.00    -0.218 C  
BRANCH  22  23
HETATM   23  O   UNL     1      -8.627  10.351  66.497  1.00  0.00    -0.127 OA 
BRANCH  23  24
HETATM   24  C   UNL     1      -8.343   9.814  67.811  1.00  0.00    -0.114 C  
HETATM   25  C   UNL     1      -9.217  10.469  68.843  1.00  0.00    -0.188 C  
HETATM   26  C   UNL     1     -10.633   9.700  69.129  1.00  0.00    -0.237 C  
HETATM   27  C   UNL     1     -10.640   8.073  69.393  1.00  0.00    -0.205 C  
HETATM   28  C   UNL     1     -10.884   7.112  70.733  1.00  0.00    -0.244 C  
HETATM   29  O   UNL     1     -11.396   7.546  68.294  1.00  0.00    -0.280 OA 
HETATM   30  C   UNL     1     -10.907   5.592  70.544  1.00  0.00    -0.315 C  
HETATM   31  H   UNL     1     -11.399   6.607  68.447  1.00  0.00     0.000 HD 
HETATM   32  C   UNL     1      -9.655   5.305  69.753  1.00  0.00    -0.230 A  
HETATM   33  C   UNL     1      -9.332   4.031  69.328  1.00  0.00    -0.238 A  
HETATM   34  C   UNL     1      -8.384   3.825  68.336  1.00  0.00    -0.098 A  
HETATM   35  C   UNL     1      -7.742   4.933  67.714  1.00  0.00    -0.083 A  
HETATM   36  O   UNL     1      -7.007   4.734  66.587  1.00  0.00    -0.064 OA 
HETATM   37  C   UNL     1      -7.971   6.211  68.219  1.00  0.00    -0.107 A  
HETATM   38  H   UNL     1      -6.579   5.474  66.171  1.00  0.00     0.000 HD 
HETATM   39  C   UNL     1      -8.878   6.429  69.264  1.00  0.00    -0.128 A  
HETATM   40  C   UNL     1      -9.173   7.895  69.431  1.00  0.00    -0.145 C  
HETATM   41  C   UNL     1      -8.619   8.304  67.987  1.00  0.00    -0.132 C  
HETATM   42  C   UNL     1      -8.962   8.710  71.028  1.00  0.00    -0.242 C  
HETATM   43  O   UNL     1      -7.525   7.401  67.666  1.00  0.00    -0.093 OA 
HETATM   44  C   UNL     1     -10.451   8.849  72.028  1.00  0.00    -0.313 C  
HETATM   45  N   UNL     1     -11.468   7.787  71.849  1.00  0.00    -0.263 NA 
BRANCH  45  46
HETATM   46  C   UNL     1     -12.851   8.075  71.512  1.00  0.00    -0.311 C  
BRANCH  46  47
HETATM   47  C   UNL     1     -13.492   9.134  72.346  1.00  0.00    -0.535 C  
HETATM   48  C   UNL     1     -13.520  10.424  71.995  1.00  0.00    -0.360 C  
ENDBRANCH  46  47
ENDBRANCH  45  46
ENDBRANCH  23  24
ENDBRANCH  22  23
ENDBRANCH  21  22
ENDBRANCH  20  21
ENDBRANCH  19  20
ENDBRANCH  18  19
ENDBRANCH  17  18
ENDBRANCH  16  17
ENDBRANCH  15  16
ENDBRANCH  14  15
ENDBRANCH  13  14
ENDBRANCH  12  13
ENDBRANCH  11  12
ENDBRANCH  10  11
ENDBRANCH   9  10
ENDBRANCH   8   9
ENDBRANCH   7   8
ENDBRANCH   6   7
ENDBRANCH   5   6
ENDBRANCH   4   5
ENDBRANCH   3   4
ENDBRANCH   2   3
TORSDOF 24
ENDMDL
MODEL       16
REMARK 921   NORMALIZED FREE ENERGY PREDICTED BY IDOCK:   -5.40 KCAL/MOL
REMARK 922        TOTAL FREE ENERGY PREDICTED BY IDOCK:  -15.26 KCAL/MOL
REMARK 923 INTER-LIGAND FREE ENERGY PREDICTED BY IDOCK:  -12.68 KCAL/MOL
REMARK 924 INTRA-LIGAND FREE ENERGY PREDICTED BY IDOCK:   -2.58 KCAL/MOL
REMARK 927      BINDING AFFINITY PREDICTED BY RF-SCORE:    0.00 PKD
ROOT
HETATM    1  C   UNL     1     -10.786  18.784  67.678  1.00  0.00    -0.385 C  
HETATM    2  O   UNL     1     -10.437  20.045  67.123  1.00  0.00    -0.427 OA 
ENDROOT
BRANCH   2   3
HETATM    3  C   UNL     1      -9.225  19.964  66.375  1.00  0.00    -0.380 C  
BRANCH   3   4
HETATM    4  C   UNL     1      -8.051  20.299  67.282  1.00  0.00    -0.338 C  
BRANCH   4   5
HETATM    5  O   UNL     1      -7.352  19.096  67.601  1.00  0.00    -0.225 OA 
BRANCH   5   6
HETATM    6  C   UNL     1      -6.937  18.419  66.417  1.00  0.00    -0.230 C  
BRANCH   6   7
HETATM    7  C   UNL     1      -7.275  16.942  66.535  1.00  0.00    -0.262 C  
BRANCH   7   8
HETATM    8  O   UNL     1      -8.511  16.708  65.865  1.00  0.00    -0.451 OA 
BRANCH   8   9
HETATM    9  C   UNL     1      -9.098  15.479  66.275  1.00  0.00    -0.334 C  
BRANCH   9  10
HETATM   10  C   UNL     1     -10.588  15.524  65.980  1.00  0.00    -0.325 C  
BRANCH  10  11
HETATM   11  O   UNL     1     -11.288  15.066  67.130  1.00  0.00    -0.338 OA 
BRANCH  11  12
HETATM   12  C   UNL     1     -10.446  15.049  68.276  1.00  0.00    -0.237 C  
BRANCH  12  13
HETATM   13  C   UNL     1     -11.244  15.544  69.470  1.00  0.00    -0.299 C  
BRANCH  13  14
HETATM   14  O   UNL     1     -12.393  14.727  69.640  1.00  0.00    -0.286 OA 
BRANCH  14  15
HETATM   15  C   UNL     1     -12.222  13.855  70.751  1.00  0.00    -0.369 C  
BRANCH  15  16
HETATM   16  C   UNL     1     -13.361  14.039  71.739  1.00  0.00    -0.386 C  
BRANCH  16  17
HETATM   17  O   UNL     1     -13.647  12.765  72.302  1.00  0.00    -0.556 OA 
BRANCH  17  18
HETATM   18  C   UNL     1     -12.983  11.711  71.624  1.00  0.00    -0.378 C  
BRANCH  18  19
HETATM   19  C   UNL     1     -13.531  10.401  72.158  1.00  0.00    -0.196 C  
BRANCH  19  20
HETATM   20  O   UNL     1     -13.020   9.319  71.392  1.00  0.00    -0.327 OA 
BRANCH  20  21
HETATM   21  C   UNL     1     -11.762   8.862  71.888  1.00  0.00    -0.369 C  
BRANCH  21  22
HETATM   22  C   UNL     1     -10.648   9.110  70.865  1.00  0.00    -0.273 C  
BRANCH  22  23
HETATM   23  O   UNL     1     -11.082   9.597  69.569  1.00  0.00    -0.229 OA 
BRANCH  23  24
HETATM   24  C   UNL     1     -10.098  10.391  68.862  1.00  0.00    -0.201 C  
HETATM   25  C   UNL     1      -8.761   9.704  68.882  1.00  0.00    -0.132 C  
HETATM   26  C   UNL     1      -8.482   8.714  67.609  1.00  0.00    -0.125 C  
HETATM   27  C   UNL     1      -8.775   9.249  66.078  1.00  0.00    -0.153 C  
HETATM   28  C   UNL     1      -7.807   9.689  64.794  1.00  0.00    -0.128 C  
HETATM   29  O   UNL     1      -9.821   8.391  65.604  1.00  0.00    -0.412 OA 
HETATM   30  C   UNL     1      -8.480  10.048  63.465  1.00  0.00    -0.187 C  
HETATM   31  H   UNL     1      -9.990   8.700  64.721  1.00  0.00     0.000 HD 
HETATM   32  C   UNL     1      -9.544  11.044  63.854  1.00  0.00    -0.309 A  
HETATM   33  C   UNL     1     -10.419  11.580  62.929  1.00  0.00    -0.114 A  
HETATM   34  C   UNL     1     -11.584  12.217  63.331  1.00  0.00    -0.530 A  
HETATM   35  C   UNL     1     -11.915  12.306  64.712  1.00  0.00    -0.362 A  
HETATM   36  O   UNL     1     -13.163  12.708  65.078  1.00  0.00    -0.753 OA 
HETATM   37  C   UNL     1     -10.983  11.879  65.655  1.00  0.00    -0.304 A  
HETATM   38  H   UNL     1     -13.384  12.767  66.000  1.00  0.00     0.000 HD 
HETATM   39  C   UNL     1      -9.771  11.291  65.266  1.00  0.00    -0.280 A  
HETATM   40  C   UNL     1      -9.077  10.651  66.436  1.00  0.00    -0.183 C  
HETATM   41  C   UNL     1     -10.382  10.622  67.361  1.00  0.00    -0.219 C  
HETATM   42  C   UNL     1      -7.372  11.074  66.850  1.00  0.00    -0.133 C  
HETATM   43  O   UNL     1     -11.185  11.785  67.022  1.00  0.00    -0.289 OA 
HETATM   44  C   UNL     1      -6.118   9.964  66.192  1.00  0.00    -0.067 C  
HETATM   45  N   UNL     1      -6.442   9.286  64.914  1.00  0.00    -0.073 NA 
BRANCH  45  46
HETATM   46  C   UNL     1      -6.395   7.843  64.759  1.00  0.00    -0.048 C  
BRANCH  46  47
HETATM   47  C   UNL     1      -5.745   7.368  63.502  1.00  0.00    -0.044 C  
HETATM   48  C   UNL     1      -6.194   6.324  62.797  1.00  0.00    -0.030 C  
ENDBRANCH  46  47
ENDBRANCH  45  46
ENDBRANCH  23  24
ENDBRANCH  22  23
ENDBRANCH  21  22
ENDBRANCH  20  21
ENDBRANCH  19  20
ENDBRANCH  18  19
ENDBRANCH  17  18
ENDBRANCH  16  17
ENDBRANCH  15  16
ENDBRANCH  14  15
ENDBRANCH  13  14
ENDBRANCH  12  13
ENDBRANCH  11  12
ENDBRANCH  10  11
ENDBRANCH   9  10
ENDBRANCH   8   9
ENDBRANCH   7   8
ENDBRANCH   6   7
ENDBRANCH   5   6
ENDBRANCH   4   5
ENDBRANCH   3   4
ENDBRANCH   2   3
TORSDOF 24
ENDMDL
MODEL       17
REMARK 921   NORMALIZED FREE ENERGY PREDICTED BY IDOCK:   -5.37 KCAL/MOL
REMARK 922        TOTAL FREE ENERGY PREDICTED BY IDOCK:  -15.19 KCAL/MOL
REMARK 923 INTER-LIGAND FREE ENERGY PREDICTED BY IDOCK:  -11.92 KCAL/MOL
REMARK 924 INTRA-LIGAND FREE ENERGY PREDICTED BY IDOCK:   -3.27 KCAL/MOL
REMARK 927      BINDING AFFINITY PREDICTED BY RF-SCORE:    0.00 PKD
ROOT
HETATM    1  C   UNL     1      -7.202   2.844  69.691  1.00  0.00    -0.044 C  
HETATM    2  O   UNL     1      -7.283   4.184  69.226  1.00  0.00    -0.049 OA 
ENDROOT
BRANCH   2   3
HETATM    3  C   UNL     1      -8.473   4.400  68.470  1.00  0.00    -0.092 C  
BRANCH   3   4
HETATM    4  C   UNL     1      -9.684   4.114  69.346  1.00  0.00    -0.163 C  
BRANCH   4   5
HETATM    5  O   UNL     1      -9.952   5.259  70.155  1.00  0.00    -0.201 OA 
BRANCH   5   6
HETATM    6  C   UNL     1      -9.919   4.923  71.540  1.00  0.00    -0.194 C  
BRANCH   6   7
HETATM    7  C   UNL     1     -11.110   5.554  72.242  1.00  0.00    -0.237 C  
BRANCH   7   8
HETATM    8  O   UNL     1     -11.880   6.262  71.274  1.00  0.00    -0.303 OA 
BRANCH   8   9
HETATM    9  C   UNL     1     -12.450   7.442  71.826  1.00  0.00    -0.336 C  
BRANCH   9  10
HETATM   10  C   UNL     1     -11.379   8.188  72.602  1.00  0.00    -0.381 C  
BRANCH  10  11
HETATM   11  O   UNL     1     -10.809   9.174  71.751  1.00  0.00    -0.351 OA 
BRANCH  11  12
HETATM   12  C   UNL     1      -9.444   8.887  71.470  1.00  0.00    -0.277 C  
BRANCH  12  13
HETATM   13  C   UNL     1      -9.175   9.198  70.008  1.00  0.00    -0.192 C  
BRANCH  13  14
HETATM   14  O   UNL     1     -10.244   8.699  69.216  1.00  0.00    -0.201 OA 
BRANCH  14  15
HETATM   15  C   UNL     1      -9.743   8.109  68.022  1.00  0.00    -0.161 C  
BRANCH  15  16
HETATM   16  C   UNL     1      -8.259   8.399  67.879  1.00  0.00    -0.127 C  
BRANCH  16  17
HETATM   17  O   UNL     1      -8.085   9.158  66.689  1.00  0.00    -0.109 OA 
BRANCH  17  18
HETATM   18  C   UNL     1      -8.912   8.703  65.631  1.00  0.00    -0.182 C  
BRANCH  18  19
HETATM   19  C   UNL     1      -8.192   8.989  64.327  1.00  0.00    -0.164 C  
BRANCH  19  20
HETATM   20  O   UNL     1      -9.131   9.389  63.337  1.00  0.00    -0.198 OA 
BRANCH  20  21
HETATM   21  C   UNL     1      -9.102  10.798  63.116  1.00  0.00    -0.270 C  
BRANCH  21  22
HETATM   22  C   UNL     1     -10.522  11.376  63.081  1.00  0.00    -0.260 C  
BRANCH  22  23
HETATM   23  O   UNL     1     -11.162  11.548  64.371  1.00  0.00    -0.321 OA 
BRANCH  23  24
HETATM   24  C   UNL     1     -10.305  12.096  65.402  1.00  0.00    -0.269 C  
HETATM   25  C   UNL     1      -9.735  13.415  64.960  1.00  0.00     0.064 C  
HETATM   26  C   UNL     1     -10.626  14.721  65.383  1.00  0.00    -0.395 C  
HETATM   27  C   UNL     1     -11.165  14.875  66.932  1.00  0.00    -0.343 C  
HETATM   28  C   UNL     1     -10.760  15.863  68.213  1.00  0.00    -0.291 C  
HETATM   29  O   UNL     1     -12.594  14.830  66.809  1.00  0.00    -0.311 OA 
HETATM   30  C   UNL     1     -11.587  15.762  69.499  1.00  0.00    -0.368 C  
HETATM   31  H   UNL     1     -12.905  14.919  67.703  1.00  0.00     0.000 HD 
HETATM   32  C   UNL     1     -11.618  14.283  69.796  1.00  0.00    -0.350 A  
HETATM   33  C   UNL     1     -12.320  13.766  70.868  1.00  0.00    -0.456 A  
HETATM   34  C   UNL     1     -12.621  12.414  70.941  1.00  0.00    -0.337 A  
HETATM   35  C   UNL     1     -12.233  11.533  69.892  1.00  0.00    -0.258 A  
HETATM   36  O   UNL     1     -12.742  10.271  69.854  1.00  0.00    -0.563 OA 
HETATM   37  C   UNL     1     -11.421  12.021  68.872  1.00  0.00    -0.301 A  
HETATM   38  H   UNL     1     -12.483   9.683  69.154  1.00  0.00     0.000 HD 
HETATM   39  C   UNL     1     -11.054  13.373  68.817  1.00  0.00    -0.297 A  
HETATM   40  C   UNL     1     -10.437  13.716  67.489  1.00  0.00    -0.241 C  
HETATM   41  C   UNL     1     -10.999  12.415  66.745  1.00  0.00    -0.263 C  
HETATM   42  C   UNL     1      -8.812  14.496  67.392  1.00  0.00    -0.207 C  
HETATM   43  O   UNL     1     -11.051  11.341  67.723  1.00  0.00    -0.230 OA 
HETATM   44  C   UNL     1      -8.823  16.289  67.240  1.00  0.00    -0.188 C  
HETATM   45  N   UNL     1      -9.968  16.997  67.860  1.00  0.00    -0.271 NA 
BRANCH  45  46
HETATM   46  C   UNL     1     -10.817  17.913  67.119  1.00  0.00    -0.136 C  
BRANCH  46  47
HETATM   47  C   UNL     1     -10.720  19.341  67.543  1.00  0.00    -0.571 C  
HETATM   48  C   UNL     1      -9.577  20.032  67.525  1.00  0.00    -0.523 C  
ENDBRANCH  46  47
ENDBRANCH  45  46
ENDBRANCH  23  24
ENDBRANCH  22  23
ENDBRANCH  21  22
ENDBRANCH  20  21
ENDBRANCH  19  20
ENDBRANCH  18  19
ENDBRANCH  17  18
ENDBRANCH  16  17
ENDBRANCH  15  16
ENDBRANCH  14  15
ENDBRANCH  13  14
ENDBRANCH  12  13
ENDBRANCH  11  12
ENDBRANCH  10  11
ENDBRANCH   9  10
ENDBRANCH   8   9
ENDBRANCH   7   8
ENDBRANCH   6   7
ENDBRANCH   5   6
ENDBRANCH   4   5
ENDBRANCH   3   4
ENDBRANCH   2   3
TORSDOF 24
ENDMDL
MODEL       18
REMARK 921   NORMALIZED FREE ENERGY PREDICTED BY IDOCK:   -5.37 KCAL/MOL
REMARK 922        TOTAL FREE ENERGY PREDICTED BY IDOCK:  -15.19 KCAL/MOL
REMARK 923 INTER-LIGAND FREE ENERGY PREDICTED BY IDOCK:  -12.76 KCAL/MOL
REMARK 924 INTRA-LIGAND FREE ENERGY PREDICTED BY IDOCK:   -2.43 KCAL/MOL
REMARK 927      BINDING AFFINITY PREDICTED BY RF-SCORE:    0.00 PKD
ROOT
HETATM    1  C   UNL     1     -12.722  15.951  73.542  1.00  0.00    -0.585 C  
HETATM    2  O   UNL     1     -13.983  15.882  72.892  1.00  0.00    -0.592 OA 
ENDROOT
BRANCH   2   3
HETATM    3  C   UNL     1     -13.899  15.145  71.674  1.00  0.00    -0.503 C  
BRANCH   3   4
HETATM    4  C   UNL     1     -13.708  13.669  71.992  1.00  0.00    -0.493 C  
BRANCH   4   5
HETATM    5  O   UNL     1     -12.640  13.156  71.196  1.00  0.00    -0.370 OA 
BRANCH   5   6
HETATM    6  C   UNL     1     -12.330  14.045  70.126  1.00  0.00    -0.345 C  
BRANCH   6   7
HETATM    7  C   UNL     1     -11.744  13.256  68.967  1.00  0.00    -0.322 C  
BRANCH   7   8
HETATM    8  O   UNL     1     -12.148  13.879  67.749  1.00  0.00    -0.371 OA 
BRANCH   8   9
HETATM    9  C   UNL     1     -11.905  13.035  66.630  1.00  0.00    -0.393 C  
BRANCH   9  10
HETATM   10  C   UNL     1     -12.773  13.495  65.472  1.00  0.00    -0.440 C  
BRANCH  10  11
HETATM   11  O   UNL     1     -11.926  13.868  64.393  1.00  0.00    -0.412 OA 
BRANCH  11  12
HETATM   12  C   UNL     1     -11.975  15.271  64.159  1.00  0.00    -0.130 C  
BRANCH  12  13
HETATM   13  C   UNL     1     -10.826  15.927  64.905  1.00  0.00    -0.400 C  
BRANCH  13  14
HETATM   14  O   UNL     1     -10.934  17.339  64.790  1.00  0.00    -0.950 OA 
BRANCH  14  15
HETATM   15  C   UNL     1     -10.517  17.968  65.996  1.00  0.00    -0.313 C  
BRANCH  15  16
HETATM   16  C   UNL     1     -10.691  17.018  67.168  1.00  0.00    -0.177 C  
BRANCH  16  17
HETATM   17  O   UNL     1      -9.559  17.172  68.015  1.00  0.00    -0.255 OA 
BRANCH  17  18
HETATM   18  C   UNL     1      -9.205  15.966  68.671  1.00  0.00    -0.209 C  
BRANCH  18  19
HETATM   19  C   UNL     1      -8.114  15.299  67.855  1.00  0.00    -0.138 C  
BRANCH  19  20
HETATM   20  O   UNL     1      -7.930  13.962  68.299  1.00  0.00    -0.131 OA 
BRANCH  20  21
HETATM   21  C   UNL     1      -8.342  13.013  67.317  1.00  0.00    -0.185 C  
BRANCH  21  22
HETATM   22  C   UNL     1      -8.593  11.641  67.952  1.00  0.00    -0.150 C  
BRANCH  22  23
HETATM   23  O   UNL     1      -8.298  10.496  67.112  1.00  0.00    -0.125 OA 
BRANCH  23  24
HETATM   24  C   UNL     1      -9.352   9.503  67.053  1.00  0.00    -0.148 C  
HETATM   25  C   UNL     1      -8.874   8.279  66.324  1.00  0.00    -0.192 C  
HETATM   26  C   UNL     1      -8.211   7.128  67.280  1.00  0.00    -0.119 C  
HETATM   27  C   UNL     1      -8.996   6.651  68.648  1.00  0.00    -0.124 C  
HETATM   28  C   UNL     1      -9.820   5.273  69.098  1.00  0.00    -0.187 C  
HETATM   29  O   UNL     1      -8.109   7.034  69.709  1.00  0.00    -0.121 OA 
HETATM   30  C   UNL     1     -10.338   5.172  70.536  1.00  0.00    -0.314 C  
HETATM   31  H   UNL     1      -8.563   6.759  70.498  1.00  0.00     0.000 HD 
HETATM   32  C   UNL     1     -11.072   6.473  70.750  1.00  0.00    -0.354 A  
HETATM   33  C   UNL     1     -11.652   6.796  71.962  1.00  0.00    -0.327 A  
HETATM   34  C   UNL     1     -12.021   8.101  72.254  1.00  0.00    -0.434 A  
HETATM   35  C   UNL     1     -11.781   9.143  71.315  1.00  0.00    -0.326 A  
HETATM   36  O   UNL     1     -11.918  10.440  71.703  1.00  0.00    -0.291 OA 
HETATM   37  C   UNL     1     -11.312   8.809  70.047  1.00  0.00    -0.032 A  
HETATM   38  H   UNL     1     -11.758  11.136  71.076  1.00  0.00     0.000 HD 
HETATM   39  C   UNL     1     -10.995   7.485  69.713  1.00  0.00    -0.195 A  
HETATM   40  C   UNL     1     -10.239   7.417  68.415  1.00  0.00    -0.207 C  
HETATM   41  C   UNL     1      -9.837   8.965  68.418  1.00  0.00    -0.174 C  
HETATM   42  C   UNL     1     -10.810   6.370  67.060  1.00  0.00    -0.464 C  
HETATM   43  O   UNL     1     -10.917   9.697  69.059  1.00  0.00    -0.208 OA 
HETATM   44  C   UNL     1     -10.048   4.743  66.965  1.00  0.00    -0.189 C  
HETATM   45  N   UNL     1      -9.602   4.147  68.247  1.00  0.00    -0.151 NA 
BRANCH  45  46
HETATM   46  C   UNL     1      -8.242   3.688  68.466  1.00  0.00    -0.073 C  
BRANCH  46  47
HETATM   47  C   UNL     1      -8.125   2.414  69.235  1.00  0.00    -0.060 C  
HETATM   48  C   UNL     1      -8.287   2.343  70.560  1.00  0.00    -0.079 C  
ENDBRANCH  46  47
ENDBRANCH  45  46
ENDBRANCH  23  24
ENDBRANCH  22  23
ENDBRANCH  21  22
ENDBRANCH  20  21
ENDBRANCH  19  20
ENDBRANCH  18  19
ENDBRANCH  17  18
ENDBRANCH  16  17
ENDBRANCH  15  16
ENDBRANCH  14  15
ENDBRANCH  13  14
ENDBRANCH  12  13
ENDBRANCH  11  12
ENDBRANCH  10  11
ENDBRANCH   9  10
ENDBRANCH   8   9
ENDBRANCH   7   8
ENDBRANCH   6   7
ENDBRANCH   5   6
ENDBRANCH   4   5
ENDBRANCH   3   4
ENDBRANCH   2   3
TORSDOF 24
ENDMDL
MODEL       19
REMARK 921   NORMALIZED FREE ENERGY PREDICTED BY IDOCK:   -5.35 KCAL/MOL
REMARK 922        TOTAL FREE ENERGY PREDICTED BY IDOCK:  -15.15 KCAL/MOL
REMARK 923 INTER-LIGAND FREE ENERGY PREDICTED BY IDOCK:  -12.26 KCAL/MOL
REMARK 924 INTRA-LIGAND FREE ENERGY PREDICTED BY IDOCK:   -2.89 KCAL/MOL
REMARK 927      BINDING AFFINITY PREDICTED BY RF-SCORE:    0.00 PKD
ROOT
HETATM    1  C   UNL     1     -10.792  19.432  67.260  1.00  0.00    -0.448 C  
HETATM    2  O   UNL     1      -9.708  20.343  67.132  1.00  0.00    -0.423 OA 
ENDROOT
BRANCH   2   3
HETATM    3  C   UNL     1      -8.650  19.783  66.357  1.00  0.00    -0.360 C  
BRANCH   3   4
HETATM    4  C   UNL     1      -7.321  20.345  66.840  1.00  0.00    -0.300 C  
BRANCH   4   5
HETATM    5  O   UNL     1      -7.223  20.157  68.251  1.00  0.00    -0.293 OA 
BRANCH   5   6
HETATM    6  C   UNL     1      -6.039  19.439  68.589  1.00  0.00    -0.233 C  
BRANCH   6   7
HETATM    7  C   UNL     1      -6.399  18.254  69.469  1.00  0.00    -0.230 C  
BRANCH   7   8
HETATM    8  O   UNL     1      -6.811  17.178  68.628  1.00  0.00    -0.177 OA 
BRANCH   8   9
HETATM    9  C   UNL     1      -8.151  16.789  68.903  1.00  0.00    -0.230 C  
BRANCH   9  10
HETATM   10  C   UNL     1      -8.854  16.488  67.591  1.00  0.00    -0.192 C  
BRANCH  10  11
HETATM   11  O   UNL     1     -10.187  16.083  67.876  1.00  0.00    -0.247 OA 
BRANCH  11  12
HETATM   12  C   UNL     1     -10.289  15.519  69.178  1.00  0.00    -0.237 C  
BRANCH  12  13
HETATM   13  C   UNL     1     -11.733  15.619  69.636  1.00  0.00    -0.361 C  
BRANCH  13  14
HETATM   14  O   UNL     1     -12.223  14.320  69.940  1.00  0.00    -0.324 OA 
BRANCH  14  15
HETATM   15  C   UNL     1     -12.325  14.146  71.347  1.00  0.00    -0.344 C  
BRANCH  15  16
HETATM   16  C   UNL     1     -13.722  13.675  71.715  1.00  0.00    -0.331 C  
BRANCH  16  17
HETATM   17  O   UNL     1     -13.594  12.412  72.354  1.00  0.00    -0.478 OA 
BRANCH  17  18
HETATM   18  C   UNL     1     -12.971  11.446  71.524  1.00  0.00    -0.399 C  
BRANCH  18  19
HETATM   19  C   UNL     1     -13.330  10.074  72.063  1.00  0.00    -0.409 C  
BRANCH  19  20
HETATM   20  O   UNL     1     -12.998   9.079  71.104  1.00  0.00    -0.262 OA 
BRANCH  20  21
HETATM   21  C   UNL     1     -12.645   7.842  71.721  1.00  0.00    -0.329 C  
BRANCH  21  22
HETATM   22  C   UNL     1     -11.337   7.294  71.139  1.00  0.00    -0.267 C  
BRANCH  22  23
HETATM   23  O   UNL     1     -10.189   8.177  71.231  1.00  0.00    -0.189 OA 
BRANCH  23  24
HETATM   24  C   UNL     1      -9.469   8.363  69.988  1.00  0.00    -0.164 C  
HETATM   25  C   UNL     1     -10.422   8.351  68.826  1.00  0.00    -0.202 C  
HETATM   26  C   UNL     1     -11.000   9.821  68.399  1.00  0.00    -0.200 C  
HETATM   27  C   UNL     1      -9.959  11.084  68.210  1.00  0.00    -0.179 C  
HETATM   28  C   UNL     1      -9.379  11.929  66.894  1.00  0.00    -0.196 C  
HETATM   29  O   UNL     1     -10.353  12.015  69.228  1.00  0.00    -0.429 OA 
HETATM   30  C   UNL     1      -8.474  13.138  67.147  1.00  0.00    -0.173 C  
HETATM   31  H   UNL     1      -9.752  12.743  69.118  1.00  0.00     0.000 HD 
HETATM   32  C   UNL     1      -7.429  12.617  68.102  1.00  0.00    -0.122 A  
HETATM   33  C   UNL     1      -6.439  13.430  68.621  1.00  0.00    -0.091 A  
HETATM   34  C   UNL     1      -5.705  13.043  69.732  1.00  0.00    -0.114 A  
HETATM   35  C   UNL     1      -5.978  11.805  70.380  1.00  0.00    -0.123 A  
HETATM   36  O   UNL     1      -5.429  11.551  71.599  1.00  0.00    -0.355 OA 
HETATM   37  C   UNL     1      -6.886  10.927  69.794  1.00  0.00    -0.134 A  
HETATM   38  H   UNL     1      -5.611  10.725  72.031  1.00  0.00     0.000 HD 
HETATM   39  C   UNL     1      -7.591  11.276  68.633  1.00  0.00    -0.129 A  
HETATM   40  C   UNL     1      -8.710  10.308  68.364  1.00  0.00    -0.129 C  
HETATM   41  C   UNL     1      -8.719   9.706  69.847  1.00  0.00    -0.219 C  
HETATM   42  C   UNL     1      -8.853   9.470  66.772  1.00  0.00    -0.145 C  
HETATM   43  O   UNL     1      -7.354   9.745  70.343  1.00  0.00    -0.134 OA 
HETATM   44  C   UNL     1      -9.963  10.245  65.587  1.00  0.00    -0.280 C  
HETATM   45  N   UNL     1     -10.109  11.717  65.685  1.00  0.00    -0.230 NA 
BRANCH  45  46
HETATM   46  C   UNL     1     -11.399  12.368  65.831  1.00  0.00    -0.356 C  
BRANCH  46  47
HETATM   47  C   UNL     1     -11.919  13.017  64.592  1.00  0.00    -0.445 C  
HETATM   48  C   UNL     1     -12.431  12.329  63.566  1.00  0.00    -0.642 C  
ENDBRANCH  46  47
ENDBRANCH  45  46
ENDBRANCH  23  24
ENDBRANCH  22  23
ENDBRANCH  21  22
ENDBRANCH  20  21
ENDBRANCH  19  20
ENDBRANCH  18  19
ENDBRANCH  17  18
ENDBRANCH  16  17
ENDBRANCH  15  16
ENDBRANCH  14  15
ENDBRANCH  13  14
ENDBRANCH  12  13
ENDBRANCH  11  12
ENDBRANCH  10  11
ENDBRANCH   9  10
ENDBRANCH   8   9
ENDBRANCH   7   8
ENDBRANCH   6   7
ENDBRANCH   5   6
ENDBRANCH   4   5
ENDBRANCH   3   4
ENDBRANCH   2   3
TORSDOF 24
ENDMDL
MODEL       20
REMARK 921   NORMALIZED FREE ENERGY PREDICTED BY IDOCK:   -5.30 KCAL/MOL
REMARK 922        TOTAL FREE ENERGY PREDICTED BY IDOCK:  -15.02 KCAL/MOL
REMARK 923 INTER-LIGAND FREE ENERGY PREDICTED BY IDOCK:  -11.75 KCAL/MOL
REMARK 924 INTRA-LIGAND FREE ENERGY PREDICTED BY IDOCK:   -3.27 KCAL/MOL
REMARK 927      BINDING AFFINITY PREDICTED BY RF-SCORE:    0.00 PKD
ROOT
HETATM    1  C   UNL     1     -11.215  16.578  64.693  1.00  0.00    -0.115 C  
HETATM    2  O   UNL     1     -10.085  16.858  65.507  1.00  0.00    -0.575 OA 
ENDROOT
BRANCH   2   3
HETATM    3  C   UNL     1      -9.430  15.659  65.916  1.00  0.00    -0.341 C  
BRANCH   3   4
HETATM    4  C   UNL     1      -8.466  15.974  67.050  1.00  0.00    -0.214 C  
BRANCH   4   5
HETATM    5  O   UNL     1      -7.928  14.753  67.555  1.00  0.00    -0.157 OA 
BRANCH   5   6
HETATM    6  C   UNL     1      -8.663  13.633  67.072  1.00  0.00    -0.192 C  
BRANCH   6   7
HETATM    7  C   UNL     1      -8.302  12.400  67.885  1.00  0.00    -0.165 C  
BRANCH   7   8
HETATM    8  O   UNL     1      -9.057  11.297  67.388  1.00  0.00    -0.149 OA 
BRANCH   8   9
HETATM    9  C   UNL     1      -8.929  11.175  65.977  1.00  0.00    -0.200 C  
BRANCH   9  10
HETATM   10  C   UNL     1     -10.022  10.254  65.463  1.00  0.00    -0.296 C  
BRANCH  10  11
HETATM   11  O   UNL     1     -10.133  10.427  64.056  1.00  0.00    -0.307 OA 
BRANCH  11  12
HETATM   12  C   UNL     1     -10.021  11.799  63.693  1.00  0.00    -0.381 C  
BRANCH  12  13
HETATM   13  C   UNL     1     -11.408  12.330  63.377  1.00  0.00    -0.428 C  
BRANCH  13  14
HETATM   14  O   UNL     1     -11.705  13.416  64.244  1.00  0.00    -0.376 OA 
BRANCH  14  15
HETATM   15  C   UNL     1     -12.602  13.002  65.268  1.00  0.00    -0.457 C  
BRANCH  15  16
HETATM   16  C   UNL     1     -12.153  13.553  66.610  1.00  0.00    -0.396 C  
BRANCH  16  17
HETATM   17  O   UNL     1     -12.144  12.473  67.534  1.00  0.00    -0.453 OA 
BRANCH  17  18
HETATM   18  C   UNL     1     -11.862  12.896  68.859  1.00  0.00    -0.309 C  
BRANCH  18  19
HETATM   19  C   UNL     1     -11.896  11.670  69.752  1.00  0.00    -0.357 C  
BRANCH  19  20
HETATM   20  O   UNL     1     -12.547  11.984  70.975  1.00  0.00    -0.364 OA 
BRANCH  20  21
HETATM   21  C   UNL     1     -12.941  10.811  71.685  1.00  0.00    -0.476 C  
BRANCH  21  22
HETATM   22  C   UNL     1     -12.090   9.606  71.266  1.00  0.00    -0.371 C  
BRANCH  22  23
HETATM   23  O   UNL     1     -11.828   8.630  72.307  1.00  0.00    -0.367 OA 
BRANCH  23  24
HETATM   24  C   UNL     1     -10.769   7.690  72.000  1.00  0.00    -0.227 C  
HETATM   25  C   UNL     1     -11.341   6.442  71.388  1.00  0.00    -0.354 C  
HETATM   26  C   UNL     1     -11.432   6.460  69.755  1.00  0.00    -0.468 C  
HETATM   27  C   UNL     1     -10.123   6.925  68.869  1.00  0.00    -0.170 C  
HETATM   28  C   UNL     1      -9.028   6.124  67.899  1.00  0.00    -0.112 C  
HETATM   29  O   UNL     1     -10.564   8.113  68.195  1.00  0.00    -0.338 OA 
HETATM   30  C   UNL     1      -7.981   6.951  67.148  1.00  0.00    -0.113 C  
HETATM   31  H   UNL     1      -9.808   8.381  67.685  1.00  0.00     0.000 HD 
HETATM   32  C   UNL     1      -7.385   7.838  68.213  1.00  0.00    -0.102 A  
HETATM   33  C   UNL     1      -6.421   8.785  67.923  1.00  0.00    -0.057 A  
HETATM   34  C   UNL     1      -6.129   9.806  68.816  1.00  0.00    -0.042 A  
HETATM   35  C   UNL     1      -6.842   9.913  70.044  1.00  0.00    -0.110 A  
HETATM   36  O   UNL     1      -6.723  11.044  70.791  1.00  0.00    -0.444 OA 
HETATM   37  C   UNL     1      -7.725   8.896  70.398  1.00  0.00    -0.098 A  
HETATM   38  H   UNL     1      -7.199  11.116  71.610  1.00  0.00     0.000 HD 
HETATM   39  C   UNL     1      -7.984   7.823  69.535  1.00  0.00    -0.117 A  
HETATM   40  C   UNL     1      -9.174   7.027  69.997  1.00  0.00    -0.148 C  
HETATM   41  C   UNL     1      -9.728   8.173  70.966  1.00  0.00    -0.162 C  
HETATM   42  C   UNL     1      -9.055   5.245  70.258  1.00  0.00    -0.169 C  
HETATM   43  O   UNL     1      -8.580   8.897  71.489  1.00  0.00    -0.234 OA 
HETATM   44  C   UNL     1      -9.590   4.224  68.877  1.00  0.00    -0.157 C  
HETATM   45  N   UNL     1      -9.424   4.804  67.524  1.00  0.00    -0.138 NA 
BRANCH  45  46
HETATM   46  C   UNL     1     -10.523   4.927  66.583  1.00  0.00    -0.219 C  
BRANCH  46  47
HETATM   47  C   UNL     1     -10.330   4.199  65.293  1.00  0.00    -0.184 C  
HETATM   48  C   UNL     1      -9.125   3.901  64.796  1.00  0.00    -0.141 C  
ENDBRANCH  46  47
ENDBRANCH  45  46
ENDBRANCH  23  24
ENDBRANCH  22  23
ENDBRANCH  21  22
ENDBRANCH  20  21
ENDBRANCH  19  20
ENDBRANCH  18  19
ENDBRANCH  17  18
ENDBRANCH  16  17
ENDBRANCH  15  16
ENDBRANCH  14  15
ENDBRANCH  13  14
ENDBRANCH  12  13
ENDBRANCH  11  12
ENDBRANCH  10  11
ENDBRANCH   9  10
ENDBRANCH   8   9
ENDBRANCH   7   8
ENDBRANCH   6   7
ENDBRANCH   5   6
ENDBRANCH   4   5
ENDBRANCH   3   4
ENDBRANCH   2   3
TORSDOF 24
ENDMDL
MODEL       21
REMARK 921   NORMALIZED FREE ENERGY PREDICTED BY IDOCK:   -5.29 KCAL/MOL
REMARK 922        TOTAL FREE ENERGY PREDICTED BY IDOCK:  -14.99 KCAL/MOL
REMARK 923 INTER-LIGAND FREE ENERGY PREDICTED BY IDOCK:  -12.17 KCAL/MOL
REMARK 924 INTRA-LIGAND FREE ENERGY PREDICTED BY IDOCK:   -2.82 KCAL/MOL
REMARK 927      BINDING AFFINITY PREDICTED BY RF-SCORE:    0.00 PKD
ROOT
HETATM    1  C   UNL     1     -14.150   6.763  72.162  1.00  0.00     0.093 C  
HETATM    2  O   UNL     1     -13.332   7.175  71.075  1.00  0.00    -0.270 OA 
ENDROOT
BRANCH   2   3
HETATM    3  C   UNL     1     -11.975   6.780  71.269  1.00  0.00    -0.365 C  
BRANCH   3   4
HETATM    4  C   UNL     1     -11.180   7.074  70.005  1.00  0.00    -0.269 C  
BRANCH   4   5
HETATM    5  O   UNL     1     -11.185   5.915  69.173  1.00  0.00    -0.340 OA 
BRANCH   5   6
HETATM    6  C   UNL     1     -10.859   6.252  67.828  1.00  0.00    -0.338 C  
BRANCH   6   7
HETATM    7  C   UNL     1     -10.127   7.584  67.802  1.00  0.00    -0.185 C  
BRANCH   7   8
HETATM    8  O   UNL     1      -8.766   7.343  67.454  1.00  0.00    -0.120 OA 
BRANCH   8   9
HETATM    9  C   UNL     1      -7.879   8.073  68.293  1.00  0.00    -0.123 C  
BRANCH   9  10
HETATM   10  C   UNL     1      -8.299   9.532  68.300  1.00  0.00    -0.118 C  
BRANCH  10  11
HETATM   11  O   UNL     1      -8.418   9.961  69.650  1.00  0.00    -0.157 OA 
BRANCH  11  12
HETATM   12  C   UNL     1      -7.606   9.176  70.515  1.00  0.00    -0.125 C  
BRANCH  12  13
HETATM   13  C   UNL     1      -6.200   9.751  70.513  1.00  0.00    -0.085 C  
BRANCH  13  14
HETATM   14  O   UNL     1      -6.248  11.113  70.915  1.00  0.00    -0.361 OA 
BRANCH  14  15
HETATM   15  C   UNL     1      -5.605  11.937  69.949  1.00  0.00    -0.108 C  
BRANCH  15  16
HETATM   16  C   UNL     1      -5.672  13.393  70.378  1.00  0.00    -0.164 C  
BRANCH  16  17
HETATM   17  O   UNL     1      -5.535  14.189  69.208  1.00  0.00    -0.081 OA 
BRANCH  17  18
HETATM   18  C   UNL     1      -5.296  15.554  69.507  1.00  0.00    -0.100 C  
BRANCH  18  19
HETATM   19  C   UNL     1      -6.589  16.313  69.271  1.00  0.00    -0.197 C  
BRANCH  19  20
HETATM   20  O   UNL     1      -7.327  15.691  68.227  1.00  0.00    -0.111 OA 
BRANCH  20  21
HETATM   21  C   UNL     1      -7.424  16.526  67.074  1.00  0.00    -0.204 C  
BRANCH  21  22
HETATM   22  C   UNL     1      -8.582  17.520  67.215  1.00  0.00    -0.225 C  
BRANCH  22  23
HETATM   23  O   UNL     1      -9.410  17.690  66.036  1.00  0.00    -0.494 OA 
BRANCH  23  24
HETATM   24  C   UNL     1     -10.623  16.897  66.030  1.00  0.00    -0.218 C  
HETATM   25  C   UNL     1     -10.603  15.923  64.886  1.00  0.00    -0.281 C  
HETATM   26  C   UNL     1      -9.968  14.459  65.245  1.00  0.00    -0.314 C  
HETATM   27  C   UNL     1     -10.461  13.664  66.601  1.00  0.00    -0.272 C  
HETATM   28  C   UNL     1     -11.406  12.320  66.885  1.00  0.00    -0.333 C  
HETATM   29  O   UNL     1      -9.277  13.582  67.406  1.00  0.00    -0.204 OA 
HETATM   30  C   UNL     1     -11.554  11.826  68.327  1.00  0.00    -0.373 C  
HETATM   31  H   UNL     1      -9.562  13.124  68.189  1.00  0.00     0.000 HD 
HETATM   32  C   UNL     1     -11.931  13.066  69.100  1.00  0.00    -0.320 A  
HETATM   33  C   UNL     1     -12.108  13.050  70.470  1.00  0.00    -0.373 A  
HETATM   34  C   UNL     1     -12.118  14.227  71.204  1.00  0.00    -0.409 A  
HETATM   35  C   UNL     1     -11.918  15.480  70.558  1.00  0.00    -0.371 A  
HETATM   36  O   UNL     1     -11.686  16.591  71.308  1.00  0.00    -0.637 OA 
HETATM   37  C   UNL     1     -11.862  15.516  69.167  1.00  0.00    -0.354 A  
HETATM   38  H   UNL     1     -11.552  17.427  70.877  1.00  0.00     0.000 HD 
HETATM   39  C   UNL     1     -11.914  14.340  68.406  1.00  0.00    -0.344 A  
HETATM   40  C   UNL     1     -11.541  14.603  66.972  1.00  0.00    -0.385 C  
HETATM   41  C   UNL     1     -10.846  16.012  67.276  1.00  0.00    -0.255 C  
HETATM   42  C   UNL     1     -12.636  14.118  65.622  1.00  0.00    -0.495 C  
HETATM   43  O   UNL     1     -11.557  16.620  68.388  1.00  0.00    -0.170 OA 
HETATM   44  C   UNL     1     -12.268  12.529  64.861  1.00  0.00    -0.470 C  
HETATM   45  N   UNL     1     -11.643  11.508  65.735  1.00  0.00    -0.208 NA 
BRANCH  45  46
HETATM   46  C   UNL     1     -10.394  10.848  65.398  1.00  0.00    -0.261 C  
BRANCH  46  47
HETATM   47  C   UNL     1     -10.062  10.836  63.943  1.00  0.00    -0.397 C  
HETATM   48  C   UNL     1      -9.272   9.916  63.381  1.00  0.00    -0.278 C  
ENDBRANCH  46  47
ENDBRANCH  45  46
ENDBRANCH  23  24
ENDBRANCH  22  23
ENDBRANCH  21  22
ENDBRANCH  20  21
ENDBRANCH  19  20
ENDBRANCH  18  19
ENDBRANCH  17  18
ENDBRANCH  16  17
ENDBRANCH  15  16
ENDBRANCH  14  15
ENDBRANCH  13  14
ENDBRANCH  12  13
ENDBRANCH  11  12
ENDBRANCH  10  11
ENDBRANCH   9  10
ENDBRANCH   8   9
ENDBRANCH   7   8
ENDBRANCH   6   7
ENDBRANCH   5   6
ENDBRANCH   4   5
ENDBRANCH   3   4
ENDBRANCH   2   3
TORSDOF 24
ENDMDL
MODEL       22
REMARK 921   NORMALIZED FREE ENERGY PREDICTED BY IDOCK:   -5.24 KCAL/MOL
REMARK 922        TOTAL FREE ENERGY PREDICTED BY IDOCK:  -14.89 KCAL/MOL
REMARK 923 INTER-LIGAND FREE ENERGY PREDICTED BY IDOCK:  -12.02 KCAL/MOL
REMARK 924 INTRA-LIGAND FREE ENERGY PREDICTED BY IDOCK:   -2.87 KCAL/MOL
REMARK 927      BINDING AFFINITY PREDICTED BY RF-SCORE:    0.00 PKD
ROOT
HETATM    1  C   UNL     1     -12.406  15.827  73.906  1.00  0.00    -0.604 C  
HETATM    2  O   UNL     1     -13.748  16.171  73.591  1.00  0.00    -0.504 OA 
ENDROOT
BRANCH   2   3
HETATM    3  C   UNL     1     -14.110  15.711  72.290  1.00  0.00    -0.475 C  
BRANCH   3   4
HETATM    4  C   UNL     1     -13.652  14.269  72.123  1.00  0.00    -0.455 C  
BRANCH   4   5
HETATM    5  O   UNL     1     -13.027  14.126  70.848  1.00  0.00    -0.336 OA 
BRANCH   5   6
HETATM    6  C   UNL     1     -12.625  15.392  70.331  1.00  0.00    -0.389 C  
BRANCH   6   7
HETATM    7  C   UNL     1     -11.648  15.184  69.185  1.00  0.00    -0.323 C  
BRANCH   7   8
HETATM    8  O   UNL     1     -12.237  14.284  68.250  1.00  0.00    -0.292 OA 
BRANCH   8   9
HETATM    9  C   UNL     1     -11.270  13.779  67.337  1.00  0.00    -0.310 C  
BRANCH   9  10
HETATM   10  C   UNL     1     -11.637  14.230  65.934  1.00  0.00    -0.358 C  
BRANCH  10  11
HETATM   11  O   UNL     1     -10.548  14.971  65.398  1.00  0.00    -0.322 OA 
BRANCH  11  12
HETATM   12  C   UNL     1     -10.671  16.357  65.692  1.00  0.00    -0.270 C  
BRANCH  12  13
HETATM   13  C   UNL     1      -9.424  16.807  66.432  1.00  0.00    -0.282 C  
BRANCH  13  14
HETATM   14  O   UNL     1      -8.336  15.963  66.080  1.00  0.00    -0.282 OA 
BRANCH  14  15
HETATM   15  C   UNL     1      -7.374  15.932  67.127  1.00  0.00    -0.223 C  
BRANCH  15  16
HETATM   16  C   UNL     1      -8.069  15.952  68.477  1.00  0.00    -0.157 C  
BRANCH  16  17
HETATM   17  O   UNL     1      -7.103  15.603  69.461  1.00  0.00    -0.188 OA 
BRANCH  17  18
HETATM   18  C   UNL     1      -6.720  14.240  69.383  1.00  0.00    -0.130 C  
BRANCH  18  19
HETATM   19  C   UNL     1      -5.928  13.911  70.634  1.00  0.00    -0.174 C  
BRANCH  19  20
HETATM   20  O   UNL     1      -5.829  12.501  70.784  1.00  0.00    -0.261 OA 
BRANCH  20  21
HETATM   21  C   UNL     1      -6.430  11.807  69.693  1.00  0.00    -0.113 C  
BRANCH  21  22
HETATM   22  C   UNL     1      -6.524  10.305  69.985  1.00  0.00    -0.116 C  
BRANCH  22  23
HETATM   23  O   UNL     1      -6.392   9.431  68.835  1.00  0.00    -0.043 OA 
BRANCH  23  24
HETATM   24  C   UNL     1      -7.583   8.672  68.513  1.00  0.00    -0.095 C  
HETATM   25  C   UNL     1      -7.315   7.199  68.647  1.00  0.00    -0.097 C  
HETATM   26  C   UNL     1      -7.642   6.576  70.123  1.00  0.00    -0.096 C  
HETATM   27  C   UNL     1      -9.080   6.915  70.853  1.00  0.00    -0.153 C  
HETATM   28  C   UNL     1     -10.462   6.037  71.170  1.00  0.00    -0.230 C  
HETATM   29  O   UNL     1      -8.709   7.646  72.030  1.00  0.00    -0.111 OA 
HETATM   30  C   UNL     1     -11.577   6.703  71.981  1.00  0.00    -0.341 C  
HETATM   31  H   UNL     1      -9.539   7.842  72.450  1.00  0.00     0.000 HD 
HETATM   32  C   UNL     1     -11.789   8.027  71.289  1.00  0.00    -0.321 A  
HETATM   33  C   UNL     1     -12.694   8.961  71.755  1.00  0.00    -0.421 A  
HETATM   34  C   UNL     1     -12.644  10.280  71.330  1.00  0.00    -0.522 A  
HETATM   35  C   UNL     1     -11.635  10.706  70.420  1.00  0.00    -0.351 A  
HETATM   36  O   UNL     1     -11.444  12.035  70.204  1.00  0.00    -0.511 OA 
HETATM   37  C   UNL     1     -10.797   9.748  69.853  1.00  0.00    -0.272 A  
HETATM   38  H   UNL     1     -10.771  12.319  69.597  1.00  0.00     0.000 HD 
HETATM   39  C   UNL     1     -10.877   8.399  70.223  1.00  0.00    -0.244 A  
HETATM   40  C   UNL     1      -9.695   7.623  69.710  1.00  0.00    -0.171 C  
HETATM   41  C   UNL     1      -8.800   8.919  69.432  1.00  0.00    -0.143 C  
HETATM   42  C   UNL     1      -9.922   6.135  68.713  1.00  0.00    -0.175 C  
HETATM   43  O   UNL     1      -9.697   9.997  69.048  1.00  0.00    -0.179 OA 
HETATM   44  C   UNL     1      -9.863   4.582  69.619  1.00  0.00    -0.218 C  
HETATM   45  N   UNL     1     -10.310   4.623  71.031  1.00  0.00    -0.133 NA 
BRANCH  45  46
HETATM   46  C   UNL     1      -9.481   4.160  72.130  1.00  0.00    -0.133 C  
BRANCH  46  47
HETATM   47  C   UNL     1     -10.116   3.132  73.006  1.00  0.00    -0.220 C  
HETATM   48  C   UNL     1     -11.031   3.429  73.935  1.00  0.00    -0.275 C  
ENDBRANCH  46  47
ENDBRANCH  45  46
ENDBRANCH  23  24
ENDBRANCH  22  23
ENDBRANCH  21  22
ENDBRANCH  20  21
ENDBRANCH  19  20
ENDBRANCH  18  19
ENDBRANCH  17  18
ENDBRANCH  16  17
ENDBRANCH  15  16
ENDBRANCH  14  15
ENDBRANCH  13  14
ENDBRANCH  12  13
ENDBRANCH  11  12
ENDBRANCH  10  11
ENDBRANCH   9  10
ENDBRANCH   8   9
ENDBRANCH   7   8
ENDBRANCH   6   7
ENDBRANCH   5   6
ENDBRANCH   4   5
ENDBRANCH   3   4
ENDBRANCH   2   3
TORSDOF 24
ENDMDL
MODEL       23
REMARK 921   NORMALIZED FREE ENERGY PREDICTED BY IDOCK:   -5.23 KCAL/MOL
REMARK 922        TOTAL FREE ENERGY PREDICTED BY IDOCK:  -14.85 KCAL/MOL
REMARK 923 INTER-LIGAND FREE ENERGY PREDICTED BY IDOCK:  -12.43 KCAL/MOL
REMARK 924 INTRA-LIGAND FREE ENERGY PREDICTED BY IDOCK:   -2.43 KCAL/MOL
REMARK 927      BINDING AFFINITY PREDICTED BY RF-SCORE:    0.00 PKD
ROOT
HETATM    1  C   UNL     1     -10.214  17.869  68.658  1.00  0.00    -0.385 C  
HETATM    2  O   UNL     1      -9.258  16.843  68.888  1.00  0.00    -0.263 OA 
ENDROOT
BRANCH   2   3
HETATM    3  C   UNL     1      -9.862  15.697  69.486  1.00  0.00    -0.289 C  
BRANCH   3   4
HETATM    4  C   UNL     1     -11.117  16.123  70.233  1.00  0.00    -0.369 C  
BRANCH   4   5
HETATM    5  O   UNL     1     -11.098  15.550  71.540  1.00  0.00    -0.359 OA 
BRANCH   5   6
HETATM    6  C   UNL     1     -11.964  16.259  72.421  1.00  0.00    -0.540 C  
BRANCH   6   7
HETATM    7  C   UNL     1     -13.006  15.307  72.983  1.00  0.00    -0.493 C  
BRANCH   7   8
HETATM    8  O   UNL     1     -13.542  14.541  71.906  1.00  0.00    -0.338 OA 
BRANCH   8   9
HETATM    9  C   UNL     1     -13.987  13.265  72.349  1.00  0.00    -0.456 C  
BRANCH   9  10
HETATM   10  C   UNL     1     -13.061  12.200  71.786  1.00  0.00    -0.352 C  
BRANCH  10  11
HETATM   11  O   UNL     1     -12.520  12.675  70.561  1.00  0.00    -0.284 OA 
BRANCH  11  12
HETATM   12  C   UNL     1     -12.087  11.600  69.735  1.00  0.00    -0.289 C  
BRANCH  12  13
HETATM   13  C   UNL     1     -11.324  12.174  68.554  1.00  0.00    -0.275 C  
BRANCH  13  14
HETATM   14  O   UNL     1     -12.231  12.442  67.493  1.00  0.00    -0.442 OA 
BRANCH  14  15
HETATM   15  C   UNL     1     -11.890  13.663  66.847  1.00  0.00    -0.411 C  
BRANCH  15  16
HETATM   16  C   UNL     1     -12.897  13.973  65.752  1.00  0.00    -0.377 C  
BRANCH  16  17
HETATM   17  O   UNL     1     -12.720  13.008  64.723  1.00  0.00    -0.651 OA 
BRANCH  17  18
HETATM   18  C   UNL     1     -11.498  13.180  64.024  1.00  0.00    -0.406 C  
BRANCH  18  19
HETATM   19  C   UNL     1     -11.233  11.910  63.238  1.00  0.00    -0.294 C  
BRANCH  19  20
HETATM   20  O   UNL     1     -10.708  10.911  64.101  1.00  0.00    -0.362 OA 
BRANCH  20  21
HETATM   21  C   UNL     1      -9.712  11.435  64.979  1.00  0.00    -0.250 C  
BRANCH  21  22
HETATM   22  C   UNL     1      -9.460  10.481  66.152  1.00  0.00    -0.180 C  
BRANCH  22  23
HETATM   23  O   UNL     1      -8.351  10.832  67.019  1.00  0.00    -0.124 OA 
BRANCH  23  24
HETATM   24  C   UNL     1      -7.743   9.711  67.705  1.00  0.00    -0.094 C  
HETATM   25  C   UNL     1      -7.879   9.874  69.193  1.00  0.00    -0.105 C  
HETATM   26  C   UNL     1      -9.221   9.195  69.836  1.00  0.00    -0.194 C  
HETATM   27  C   UNL     1      -9.623   7.647  69.440  1.00  0.00    -0.159 C  
HETATM   28  C   UNL     1      -9.592   6.191  70.253  1.00  0.00    -0.163 C  
HETATM   29  O   UNL     1     -10.880   7.777  68.761  1.00  0.00    -0.397 OA 
HETATM   30  C   UNL     1     -10.157   4.953  69.550  1.00  0.00    -0.286 C  
HETATM   31  H   UNL     1     -11.112   6.883  68.533  1.00  0.00     0.000 HD 
HETATM   32  C   UNL     1      -9.485   4.963  68.199  1.00  0.00    -0.178 A  
HETATM   33  C   UNL     1      -9.772   4.020  67.231  1.00  0.00    -0.199 A  
HETATM   34  C   UNL     1      -9.418   4.224  65.905  1.00  0.00    -0.176 A  
HETATM   35  C   UNL     1      -8.773   5.431  65.510  1.00  0.00    -0.154 A  
HETATM   36  O   UNL     1      -8.654   5.725  64.188  1.00  0.00    -0.324 OA 
HETATM   37  C   UNL     1      -8.371   6.330  66.496  1.00  0.00    -0.114 A  
HETATM   38  H   UNL     1      -8.224   6.531  63.924  1.00  0.00     0.000 HD 
HETATM   39  C   UNL     1      -8.664   6.107  67.848  1.00  0.00    -0.113 A  
HETATM   40  C   UNL     1      -8.399   7.338  68.672  1.00  0.00    -0.125 C  
HETATM   41  C   UNL     1      -8.376   8.331  67.418  1.00  0.00    -0.125 C  
HETATM   42  C   UNL     1      -7.323   7.273  70.119  1.00  0.00    -0.079 C  
HETATM   43  O   UNL     1      -7.842   7.593  66.285  1.00  0.00    -0.087 OA 
HETATM   44  C   UNL     1      -8.160   7.056  71.697  1.00  0.00    -0.103 C  
HETATM   45  N   UNL     1      -9.437   6.305  71.668  1.00  0.00    -0.148 NA 
BRANCH  45  46
HETATM   46  C   UNL     1     -10.675   6.844  72.203  1.00  0.00    -0.219 C  
BRANCH  46  47
HETATM   47  C   UNL     1     -11.657   5.820  72.667  1.00  0.00    -0.304 C  
HETATM   48  C   UNL     1     -11.297   4.682  73.269  1.00  0.00    -0.393 C  
ENDBRANCH  46  47
ENDBRANCH  45  46
ENDBRANCH  23  24
ENDBRANCH  22  23
ENDBRANCH  21  22
ENDBRANCH  20  21
ENDBRANCH  19  20
ENDBRANCH  18  19
ENDBRANCH  17  18
ENDBRANCH  16  17
ENDBRANCH  15  16
ENDBRANCH  14  15
ENDBRANCH  13  14
ENDBRANCH  12  13
ENDBRANCH  11  12
ENDBRANCH  10  11
ENDBRANCH   9  10
ENDBRANCH   8   9
ENDBRANCH   7   8
ENDBRANCH   6   7
ENDBRANCH   5   6
ENDBRANCH   4   5
ENDBRANCH   3   4
ENDBRANCH   2   3
TORSDOF 24
ENDMDL
MODEL       24
REMARK 921   NORMALIZED FREE ENERGY PREDICTED BY IDOCK:   -5.22 KCAL/MOL
REMARK 922        TOTAL FREE ENERGY PREDICTED BY IDOCK:  -14.83 KCAL/MOL
REMARK 923 INTER-LIGAND FREE ENERGY PREDICTED BY IDOCK:  -12.53 KCAL/MOL
REMARK 924 INTRA-LIGAND FREE ENERGY PREDICTED BY IDOCK:   -2.31 KCAL/MOL
REMARK 927      BINDING AFFINITY PREDICTED BY RF-SCORE:    0.00 PKD
ROOT
HETATM    1  C   UNL     1      -8.862  19.231  68.537  1.00  0.00    -0.369 C  
HETATM    2  O   UNL     1     -10.075  18.693  68.030  1.00  0.00    -0.339 OA 
ENDROOT
BRANCH   2   3
HETATM    3  C   UNL     1      -9.838  17.853  66.902  1.00  0.00    -0.321 C  
BRANCH   3   4
HETATM    4  C   UNL     1     -10.528  18.444  65.681  1.00  0.00    -0.099 C  
BRANCH   4   5
HETATM    5  O   UNL     1     -10.953  17.382  64.828  1.00  0.00    -0.964 OA 
BRANCH   5   6
HETATM    6  C   UNL     1     -10.858  16.125  65.492  1.00  0.00    -0.270 C  
BRANCH   6   7
HETATM    7  C   UNL     1     -11.167  15.008  64.509  1.00  0.00    -0.265 C  
BRANCH   7   8
HETATM    8  O   UNL     1     -12.422  14.431  64.864  1.00  0.00    -0.487 OA 
BRANCH   8   9
HETATM    9  C   UNL     1     -12.304  13.031  65.086  1.00  0.00    -0.484 C  
BRANCH   9  10
HETATM   10  C   UNL     1     -12.465  12.308  63.760  1.00  0.00    -0.515 C  
BRANCH  10  11
HETATM   11  O   UNL     1     -11.172  12.003  63.254  1.00  0.00    -0.386 OA 
BRANCH  11  12
HETATM   12  C   UNL     1     -10.532  11.004  64.038  1.00  0.00    -0.366 C  
BRANCH  12  13
HETATM   13  C   UNL     1      -9.107  10.836  63.538  1.00  0.00    -0.226 C  
BRANCH  13  14
HETATM   14  O   UNL     1      -8.853   9.459  63.293  1.00  0.00    -0.227 OA 
BRANCH  14  15
HETATM   15  C   UNL     1      -7.544   9.112  63.730  1.00  0.00    -0.113 C  
BRANCH  15  16
HETATM   16  C   UNL     1      -7.031   7.918  62.944  1.00  0.00    -0.085 C  
BRANCH  16  17
HETATM   17  O   UNL     1      -7.680   6.760  63.453  1.00  0.00    -0.097 OA 
BRANCH  17  18
HETATM   18  C   UNL     1      -7.363   6.516  64.814  1.00  0.00    -0.077 C  
BRANCH  18  19
HETATM   19  C   UNL     1      -7.962   5.175  65.195  1.00  0.00    -0.106 C  
BRANCH  19  20
HETATM   20  O   UNL     1      -9.367   5.308  65.365  1.00  0.00    -0.133 OA 
BRANCH  20  21
HETATM   21  C   UNL     1      -9.879   4.374  66.314  1.00  0.00    -0.231 C  
BRANCH  21  22
HETATM   22  C   UNL     1     -10.324   5.086  67.597  1.00  0.00    -0.068 C  
BRANCH  22  23
HETATM   23  O   UNL     1      -9.589   4.736  68.797  1.00  0.00    -0.141 OA 
BRANCH  23  24
HETATM   24  C   UNL     1      -9.224   5.862  69.632  1.00  0.00    -0.136 C  
HETATM   25  C   UNL     1      -8.195   6.712  68.940  1.00  0.00    -0.120 C  
HETATM   26  C   UNL     1      -8.810   7.928  68.034  1.00  0.00    -0.124 C  
HETATM   27  C   UNL     1      -9.966   8.916  68.667  1.00  0.00    -0.177 C  
HETATM   28  C   UNL     1      -9.988  10.501  69.186  1.00  0.00    -0.220 C  
HETATM   29  O   UNL     1     -11.117   8.676  67.845  1.00  0.00    -0.481 OA 
HETATM   30  C   UNL     1     -11.324  11.102  69.631  1.00  0.00    -0.366 C  
HETATM   31  H   UNL     1     -11.784   9.246  68.211  1.00  0.00     0.000 HD 
HETATM   32  C   UNL     1     -11.873  10.087  70.604  1.00  0.00    -0.411 A  
HETATM   33  C   UNL     1     -13.110  10.240  71.202  1.00  0.00    -0.481 A  
HETATM   34  C   UNL     1     -13.745   9.170  71.816  1.00  0.00    -0.465 A  
HETATM   35  C   UNL     1     -13.142   7.880  71.817  1.00  0.00    -0.325 A  
HETATM   36  O   UNL     1     -13.874   6.799  72.198  1.00  0.00    -0.545 OA 
HETATM   37  C   UNL     1     -11.845   7.745  71.327  1.00  0.00    -0.295 A  
HETATM   38  H   UNL     1     -13.472   5.938  72.199  1.00  0.00     0.000 HD 
HETATM   39  C   UNL     1     -11.164   8.831  70.761  1.00  0.00    -0.309 A  
HETATM   40  C   UNL     1      -9.921   8.381  70.044  1.00  0.00    -0.188 C  
HETATM   41  C   UNL     1     -10.369   6.847  69.960  1.00  0.00    -0.200 C  
HETATM   42  C   UNL     1      -8.311   9.098  70.434  1.00  0.00    -0.206 C  
HETATM   43  O   UNL     1     -11.158   6.556  71.146  1.00  0.00    -0.256 OA 
HETATM   44  C   UNL     1      -7.786  10.447  69.364  1.00  0.00    -0.161 C  
HETATM   45  N   UNL     1      -8.862  11.276  68.771  1.00  0.00    -0.140 NA 
BRANCH  45  46
HETATM   46  C   UNL     1      -8.983  11.496  67.341  1.00  0.00    -0.156 C  
BRANCH  46  47
HETATM   47  C   UNL     1      -8.953  12.928  66.922  1.00  0.00    -0.210 C  
HETATM   48  C   UNL     1      -8.923  13.944  67.791  1.00  0.00    -0.188 C  
ENDBRANCH  46  47
ENDBRANCH  45  46
ENDBRANCH  23  24
ENDBRANCH  22  23
ENDBRANCH  21  22
ENDBRANCH  20  21
ENDBRANCH  19  20
ENDBRANCH  18  19
ENDBRANCH  17  18
ENDBRANCH  16  17
ENDBRANCH  15  16
ENDBRANCH  14  15
ENDBRANCH  13  14
ENDBRANCH  12  13
ENDBRANCH  11  12
ENDBRANCH  10  11
ENDBRANCH   9  10
ENDBRANCH   8   9
ENDBRANCH   7   8
ENDBRANCH   6   7
ENDBRANCH   5   6
ENDBRANCH   4   5
ENDBRANCH   3   4
ENDBRANCH   2   3
TORSDOF 24
ENDMDL
MODEL       25
REMARK 921   NORMALIZED FREE ENERGY PREDICTED BY IDOCK:   -5.21 KCAL/MOL
REMARK 922        TOTAL FREE ENERGY PREDICTED BY IDOCK:  -14.82 KCAL/MOL
REMARK 923 INTER-LIGAND FREE ENERGY PREDICTED BY IDOCK:  -12.14 KCAL/MOL
REMARK 924 INTRA-LIGAND FREE ENERGY PREDICTED BY IDOCK:   -2.69 KCAL/MOL
REMARK 927      BINDING AFFINITY PREDICTED BY RF-SCORE:    0.00 PKD
ROOT
HETATM    1  C   UNL     1      -7.178   9.405  62.873  1.00  0.00    -0.102 C  
HETATM    2  O   UNL     1      -8.403   9.324  63.589  1.00  0.00    -0.164 OA 
ENDROOT
BRANCH   2   3
HETATM    3  C   UNL     1      -9.380  10.211  63.047  1.00  0.00    -0.299 C  
BRANCH   3   4
HETATM    4  C   UNL     1     -10.099  10.921  64.184  1.00  0.00    -0.355 C  
BRANCH   4   5
HETATM    5  O   UNL     1     -10.300  12.288  63.826  1.00  0.00    -0.387 OA 
BRANCH   5   6
HETATM    6  C   UNL     1     -11.577  12.475  63.222  1.00  0.00    -0.371 C  
BRANCH   6   7
HETATM    7  C   UNL     1     -12.650  12.488  64.298  1.00  0.00    -0.396 C  
BRANCH   7   8
HETATM    8  O   UNL     1     -12.821  13.830  64.746  1.00  0.00    -0.685 OA 
BRANCH   8   9
HETATM    9  C   UNL     1     -12.838  13.906  66.166  1.00  0.00    -0.153 C  
BRANCH   9  10
HETATM   10  C   UNL     1     -11.434  14.213  66.658  1.00  0.00    -0.366 C  
BRANCH  10  11
HETATM   11  O   UNL     1     -11.444  14.209  68.079  1.00  0.00    -0.279 OA 
BRANCH  11  12
HETATM   12  C   UNL     1     -10.475  15.109  68.605  1.00  0.00    -0.234 C  
BRANCH  12  13
HETATM   13  C   UNL     1     -11.132  16.464  68.805  1.00  0.00    -0.337 C  
BRANCH  13  14
HETATM   14  O   UNL     1     -10.586  17.394  67.880  1.00  0.00    -0.367 OA 
BRANCH  14  15
HETATM   15  C   UNL     1      -9.570  18.173  68.501  1.00  0.00    -0.339 C  
BRANCH  15  16
HETATM   16  C   UNL     1      -8.366  18.290  67.582  1.00  0.00    -0.247 C  
BRANCH  16  17
HETATM   17  O   UNL     1      -7.674  17.049  67.625  1.00  0.00    -0.166 OA 
BRANCH  17  18
HETATM   18  C   UNL     1      -6.917  16.892  68.814  1.00  0.00    -0.204 C  
BRANCH  18  19
HETATM   19  C   UNL     1      -6.188  15.564  68.725  1.00  0.00    -0.099 C  
BRANCH  19  20
HETATM   20  O   UNL     1      -7.113  14.497  68.879  1.00  0.00    -0.105 OA 
BRANCH  20  21
HETATM   21  C   UNL     1      -6.495  13.225  68.688  1.00  0.00    -0.087 C  
BRANCH  21  22
HETATM   22  C   UNL     1      -7.504  12.200  68.158  1.00  0.00    -0.114 C  
BRANCH  22  23
HETATM   23  O   UNL     1      -7.296  10.832  68.592  1.00  0.00    -0.085 OA 
BRANCH  23  24
HETATM   24  C   UNL     1      -8.435   9.958  68.401  1.00  0.00    -0.111 C  
HETATM   25  C   UNL     1      -8.010   8.519  68.495  1.00  0.00    -0.117 C  
HETATM   26  C   UNL     1      -8.108   7.874  69.996  1.00  0.00    -0.117 C  
HETATM   27  C   UNL     1      -9.482   8.074  70.883  1.00  0.00    -0.161 C  
HETATM   28  C   UNL     1     -10.726   7.066  71.348  1.00  0.00    -0.219 C  
HETATM   29  O   UNL     1      -9.055   8.844  72.016  1.00  0.00    -0.353 OA 
HETATM   30  C   UNL     1     -11.804   7.623  72.282  1.00  0.00    -0.354 C  
HETATM   31  H   UNL     1      -9.848   8.959  72.527  1.00  0.00     0.000 HD 
HETATM   32  C   UNL     1     -12.220   8.917  71.626  1.00  0.00    -0.409 A  
HETATM   33  C   UNL     1     -13.155   9.759  72.195  1.00  0.00    -0.513 A  
HETATM   34  C   UNL     1     -13.283  11.075  71.775  1.00  0.00    -0.505 A  
HETATM   35  C   UNL     1     -12.428  11.593  70.761  1.00  0.00    -0.330 A  
HETATM   36  O   UNL     1     -12.394  12.933  70.533  1.00  0.00    -0.342 OA 
HETATM   37  C   UNL     1     -11.569  10.720  70.098  1.00  0.00    -0.337 A  
HETATM   38  H   UNL     1     -11.824  13.279  69.857  1.00  0.00     0.000 HD 
HETATM   39  C   UNL     1     -11.474   9.371  70.467  1.00  0.00    -0.317 A  
HETATM   40  C   UNL     1     -10.287   8.712  69.820  1.00  0.00    -0.212 C  
HETATM   41  C   UNL     1      -9.559  10.089  69.452  1.00  0.00    -0.222 C  
HETATM   42  C   UNL     1     -10.476   7.204  68.846  1.00  0.00    -0.218 C  
HETATM   43  O   UNL     1     -10.595  11.071  69.177  1.00  0.00    -0.211 OA 
HETATM   44  C   UNL     1     -10.164   5.669  69.730  1.00  0.00    -0.251 C  
HETATM   45  N   UNL     1     -10.453   5.673  71.184  1.00  0.00    -0.231 NA 
BRANCH  45  46
HETATM   46  C   UNL     1      -9.464   5.300  72.180  1.00  0.00    -0.143 C  
BRANCH  46  47
HETATM   47  C   UNL     1      -9.984   4.449  73.292  1.00  0.00    -0.183 C  
HETATM   48  C   UNL     1     -11.284   4.197  73.472  1.00  0.00    -0.341 C  
ENDBRANCH  46  47
ENDBRANCH  45  46
ENDBRANCH  23  24
ENDBRANCH  22  23
ENDBRANCH  21  22
ENDBRANCH  20  21
ENDBRANCH  19  20
ENDBRANCH  18  19
ENDBRANCH  17  18
ENDBRANCH  16  17
ENDBRANCH  15  16
ENDBRANCH  14  15
ENDBRANCH  13  14
ENDBRANCH  12  13
ENDBRANCH  11  12
ENDBRANCH  10  11
ENDBRANCH   9  10
ENDBRANCH   8   9
ENDBRANCH   7   8
ENDBRANCH   6   7
ENDBRANCH   5   6
ENDBRANCH   4   5
ENDBRANCH   3   4
ENDBRANCH   2   3
TORSDOF 24
ENDMDL
MODEL       26
REMARK 921   NORMALIZED FREE ENERGY PREDICTED BY IDOCK:   -5.17 KCAL/MOL
REMARK 922        TOTAL FREE ENERGY PREDICTED BY IDOCK:  -14.72 KCAL/MOL
REMARK 923 INTER-LIGAND FREE ENERGY PREDICTED BY IDOCK:  -12.04 KCAL/MOL
REMARK 924 INTRA-LIGAND FREE ENERGY PREDICTED BY IDOCK:   -2.68 KCAL/MOL
REMARK 927      BINDING AFFINITY PREDICTED BY RF-SCORE:    0.00 PKD
ROOT
HETATM    1  C   UNL     1     -10.830   3.298  62.657  1.00  0.00    -0.147 C  
HETATM    2  O   UNL     1     -10.887   3.846  63.966  1.00  0.00    -0.280 OA 
ENDROOT
BRANCH   2   3
HETATM    3  C   UNL     1      -9.580   4.071  64.492  1.00  0.00    -0.173 C  
BRANCH   3   4
HETATM    4  C   UNL     1      -9.694   4.561  65.928  1.00  0.00    -0.205 C  
BRANCH   4   5
HETATM    5  O   UNL     1     -10.971   5.169  66.112  1.00  0.00    -0.237 OA 
BRANCH   5   6
HETATM    6  C   UNL     1     -10.945   6.093  67.197  1.00  0.00    -0.331 C  
BRANCH   6   7
HETATM    7  C   UNL     1     -10.343   5.421  68.420  1.00  0.00    -0.146 C  
BRANCH   7   8
HETATM    8  O   UNL     1      -9.814   6.432  69.274  1.00  0.00    -0.145 OA 
BRANCH   8   9
HETATM    9  C   UNL     1      -9.790   7.698  68.626  1.00  0.00    -0.171 C  
BRANCH   9  10
HETATM   10  C   UNL     1      -9.456   8.768  69.651  1.00  0.00    -0.170 C  
BRANCH  10  11
HETATM   11  O   UNL     1      -8.853   8.143  70.776  1.00  0.00    -0.134 OA 
BRANCH  11  12
HETATM   12  C   UNL     1      -9.010   8.930  71.951  1.00  0.00    -0.084 C  
BRANCH  12  13
HETATM   13  C   UNL     1      -9.168   7.998  73.140  1.00  0.00    -0.279 C  
BRANCH  13  14
HETATM   14  O   UNL     1     -10.544   7.688  73.316  1.00  0.00    -0.365 OA 
BRANCH  14  15
HETATM   15  C   UNL     1     -10.789   6.324  72.998  1.00  0.00    -0.259 C  
BRANCH  15  16
HETATM   16  C   UNL     1     -11.955   6.214  72.031  1.00  0.00    -0.253 C  
BRANCH  16  17
HETATM   17  O   UNL     1     -12.171   7.505  71.474  1.00  0.00    -0.303 OA 
BRANCH  17  18
HETATM   18  C   UNL     1     -13.503   7.956  71.657  1.00  0.00    -0.341 C  
BRANCH  18  19
HETATM   19  C   UNL     1     -13.441   9.374  72.192  1.00  0.00    -0.471 C  
BRANCH  19  20
HETATM   20  O   UNL     1     -12.319  10.048  71.638  1.00  0.00    -0.378 OA 
BRANCH  20  21
HETATM   21  C   UNL     1     -12.710  11.159  70.832  1.00  0.00    -0.344 C  
BRANCH  21  22
HETATM   22  C   UNL     1     -11.683  11.418  69.724  1.00  0.00    -0.344 C  
BRANCH  22  23
HETATM   23  O   UNL     1     -12.114  11.088  68.378  1.00  0.00    -0.594 OA 
BRANCH  23  24
HETATM   24  C   UNL     1     -11.390  11.774  67.328  1.00  0.00    -0.315 C  
HETATM   25  C   UNL     1     -12.159  12.980  66.865  1.00  0.00    -0.349 C  
HETATM   26  C   UNL     1     -11.793  14.367  67.652  1.00  0.00    -0.412 C  
HETATM   27  C   UNL     1     -10.217  14.798  67.859  1.00  0.00    -0.229 C  
HETATM   28  C   UNL     1      -9.234  15.973  67.199  1.00  0.00    -0.207 C  
HETATM   29  O   UNL     1     -10.035  14.780  69.282  1.00  0.00    -0.307 OA 
HETATM   30  C   UNL     1      -7.809  16.117  67.741  1.00  0.00    -0.157 C  
HETATM   31  H   UNL     1      -9.125  15.029  69.400  1.00  0.00     0.000 HD 
HETATM   32  C   UNL     1      -7.262  14.711  67.705  1.00  0.00    -0.191 A  
HETATM   33  C   UNL     1      -5.997  14.406  68.169  1.00  0.00    -0.136 A  
HETATM   34  C   UNL     1      -5.633  13.096  68.445  1.00  0.00    -0.082 A  
HETATM   35  C   UNL     1      -6.572  12.038  68.281  1.00  0.00    -0.055 A  
HETATM   36  O   UNL     1      -6.288  10.806  68.783  1.00  0.00    -0.043 OA 
HETATM   37  C   UNL     1      -7.806  12.321  67.699  1.00  0.00    -0.156 A  
HETATM   38  H   UNL     1      -6.915  10.100  68.674  1.00  0.00     0.000 HD 
HETATM   39  C   UNL     1      -8.165  13.631  67.355  1.00  0.00    -0.187 A  
HETATM   40  C   UNL     1      -9.630  13.725  67.028  1.00  0.00    -0.251 C  
HETATM   41  C   UNL     1     -10.009  12.337  67.728  1.00  0.00    -0.200 C  
HETATM   42  C   UNL     1     -10.190  14.423  65.460  1.00  0.00    -0.386 C  
HETATM   43  O   UNL     1      -8.872  11.445  67.574  1.00  0.00    -0.142 OA 
HETATM   44  C   UNL     1     -10.642  16.164  65.507  1.00  0.00    -0.377 C  
HETATM   45  N   UNL     1      -9.931  17.004  66.500  1.00  0.00    -0.297 NA 
BRANCH  45  46
HETATM   46  C   UNL     1     -10.629  17.810  67.486  1.00  0.00    -0.359 C  
BRANCH  46  47
HETATM   47  C   UNL     1     -10.257  19.256  67.493  1.00  0.00    -0.514 C  
HETATM   48  C   UNL     1      -9.604  19.847  66.487  1.00  0.00    -0.534 C  
ENDBRANCH  46  47
ENDBRANCH  45  46
ENDBRANCH  23  24
ENDBRANCH  22  23
ENDBRANCH  21  22
ENDBRANCH  20  21
ENDBRANCH  19  20
ENDBRANCH  18  19
ENDBRANCH  17  18
ENDBRANCH  16  17
ENDBRANCH  15  16
ENDBRANCH  14  15
ENDBRANCH  13  14
ENDBRANCH  12  13
ENDBRANCH  11  12
ENDBRANCH  10  11
ENDBRANCH   9  10
ENDBRANCH   8   9
ENDBRANCH   7   8
ENDBRANCH   6   7
ENDBRANCH   5   6
ENDBRANCH   4   5
ENDBRANCH   3   4
ENDBRANCH   2   3
TORSDOF 24
ENDMDL
MODEL       27
REMARK 921   NORMALIZED FREE ENERGY PREDICTED BY IDOCK:   -5.16 KCAL/MOL
REMARK 922        TOTAL FREE ENERGY PREDICTED BY IDOCK:  -14.68 KCAL/MOL
REMARK 923 INTER-LIGAND FREE ENERGY PREDICTED BY IDOCK:  -12.58 KCAL/MOL
REMARK 924 INTRA-LIGAND FREE ENERGY PREDICTED BY IDOCK:   -2.10 KCAL/MOL
REMARK 927      BINDING AFFINITY PREDICTED BY RF-SCORE:    0.00 PKD
ROOT
HETATM    1  C   UNL     1     -11.235  15.868  64.761  1.00  0.00    -0.355 C  
HETATM    2  O   UNL     1     -11.046  17.274  64.688  1.00  0.00    -1.052 OA 
ENDROOT
BRANCH   2   3
HETATM    3  C   UNL     1     -10.465  17.782  65.888  1.00  0.00    -0.251 C  
BRANCH   3   4
HETATM    4  C   UNL     1     -10.602  19.297  65.911  1.00  0.00    -0.435 C  
BRANCH   4   5
HETATM    5  O   UNL     1     -10.148  19.786  67.172  1.00  0.00    -0.369 OA 
BRANCH   5   6
HETATM    6  C   UNL     1      -8.763  20.116  67.123  1.00  0.00    -0.344 C  
BRANCH   6   7
HETATM    7  C   UNL     1      -8.049  19.485  68.307  1.00  0.00    -0.334 C  
BRANCH   7   8
HETATM    8  O   UNL     1      -6.670  19.841  68.243  1.00  0.00    -0.260 OA 
BRANCH   8   9
HETATM    9  C   UNL     1      -5.903  18.830  67.600  1.00  0.00    -0.180 C  
BRANCH   9  10
HETATM   10  C   UNL     1      -6.227  17.489  68.236  1.00  0.00    -0.175 C  
BRANCH  10  11
HETATM   11  O   UNL     1      -6.420  16.535  67.200  1.00  0.00    -0.164 OA 
BRANCH  11  12
HETATM   12  C   UNL     1      -7.629  15.808  67.385  1.00  0.00    -0.191 C  
BRANCH  12  13
HETATM   13  C   UNL     1      -7.809  15.539  68.869  1.00  0.00    -0.182 C  
BRANCH  13  14
HETATM   14  O   UNL     1      -9.102  15.969  69.272  1.00  0.00    -0.246 OA 
BRANCH  14  15
HETATM   15  C   UNL     1     -10.103  15.148  68.682  1.00  0.00    -0.222 C  
BRANCH  15  16
HETATM   16  C   UNL     1     -11.447  15.409  69.340  1.00  0.00    -0.324 C  
BRANCH  16  17
HETATM   17  O   UNL     1     -11.228  16.309  70.419  1.00  0.00    -0.373 OA 
BRANCH  17  18
HETATM   18  C   UNL     1     -12.026  16.003  71.550  1.00  0.00    -0.475 C  
BRANCH  18  19
HETATM   19  C   UNL     1     -13.022  14.936  71.138  1.00  0.00    -0.367 C  
BRANCH  19  20
HETATM   20  O   UNL     1     -13.880  14.633  72.229  1.00  0.00    -0.405 OA 
BRANCH  20  21
HETATM   21  C   UNL     1     -13.863  13.242  72.549  1.00  0.00    -0.449 C  
BRANCH  21  22
HETATM   22  C   UNL     1     -12.994  12.463  71.556  1.00  0.00    -0.285 C  
BRANCH  22  23
HETATM   23  O   UNL     1     -12.781  11.063  71.871  1.00  0.00    -0.355 OA 
BRANCH  23  24
HETATM   24  C   UNL     1     -12.551  10.213  70.721  1.00  0.00    -0.317 C  
HETATM   25  C   UNL     1     -11.790  10.962  69.663  1.00  0.00    -0.416 C  
HETATM   26  C   UNL     1     -10.163  10.814  69.759  1.00  0.00    -0.017 C  
HETATM   27  C   UNL     1      -9.486   9.322  69.936  1.00  0.00    -0.197 C  
HETATM   28  C   UNL     1      -8.615   8.312  68.935  1.00  0.00    -0.132 C  
HETATM   29  O   UNL     1      -8.842   9.383  71.216  1.00  0.00    -0.287 OA 
HETATM   30  C   UNL     1      -8.062   7.009  69.519  1.00  0.00    -0.130 C  
HETATM   31  H   UNL     1      -8.452   8.521  71.317  1.00  0.00     0.000 HD 
HETATM   32  C   UNL     1      -9.252   6.384  70.205  1.00  0.00    -0.158 A  
HETATM   33  C   UNL     1      -9.153   5.200  70.910  1.00  0.00    -0.175 A  
HETATM   34  C   UNL     1     -10.142   4.813  71.802  1.00  0.00    -0.261 A  
HETATM   35  C   UNL     1     -11.271   5.648  72.031  1.00  0.00    -0.207 A  
HETATM   36  O   UNL     1     -12.101   5.383  73.076  1.00  0.00    -0.547 OA 
HETATM   37  C   UNL     1     -11.440   6.780  71.237  1.00  0.00    -0.302 A  
HETATM   38  H   UNL     1     -12.855   5.940  73.228  1.00  0.00     0.000 HD 
HETATM   39  C   UNL     1     -10.481   7.152  70.285  1.00  0.00    -0.232 A  
HETATM   40  C   UNL     1     -10.732   8.544  69.773  1.00  0.00    -0.213 C  
HETATM   41  C   UNL     1     -11.696   8.954  70.983  1.00  0.00    -0.289 C  
HETATM   42  C   UNL     1     -10.887   8.871  68.005  1.00  0.00    -0.079 C  
HETATM   43  O   UNL     1     -12.409   7.758  71.400  1.00  0.00    -0.312 OA 
HETATM   44  C   UNL     1      -9.384   9.423  67.186  1.00  0.00    -0.139 C  
HETATM   45  N   UNL     1      -8.105   8.940  67.758  1.00  0.00    -0.106 NA 
BRANCH  45  46
HETATM   46  C   UNL     1      -7.040   9.839  68.166  1.00  0.00    -0.078 C  
BRANCH  46  47
HETATM   47  C   UNL     1      -6.612  10.819  67.125  1.00  0.00    -0.079 C  
HETATM   48  C   UNL     1      -7.014  12.094  67.112  1.00  0.00    -0.117 C  
ENDBRANCH  46  47
ENDBRANCH  45  46
ENDBRANCH  23  24
ENDBRANCH  22  23
ENDBRANCH  21  22
ENDBRANCH  20  21
ENDBRANCH  19  20
ENDBRANCH  18  19
ENDBRANCH  17  18
ENDBRANCH  16  17
ENDBRANCH  15  16
ENDBRANCH  14  15
ENDBRANCH  13  14
ENDBRANCH  12  13
ENDBRANCH  11  12
ENDBRANCH  10  11
ENDBRANCH   9  10
ENDBRANCH   8   9
ENDBRANCH   7   8
ENDBRANCH   6   7
ENDBRANCH   5   6
ENDBRANCH   4   5
ENDBRANCH   3   4
ENDBRANCH   2   3
TORSDOF 24
ENDMDL
MODEL       28
REMARK 921   NORMALIZED FREE ENERGY PREDICTED BY IDOCK:   -5.15 KCAL/MOL
REMARK 922        TOTAL FREE ENERGY PREDICTED BY IDOCK:  -14.67 KCAL/MOL
REMARK 923 INTER-LIGAND FREE ENERGY PREDICTED BY IDOCK:  -11.73 KCAL/MOL
REMARK 924 INTRA-LIGAND FREE ENERGY PREDICTED BY IDOCK:   -2.94 KCAL/MOL
REMARK 927      BINDING AFFINITY PREDICTED BY RF-SCORE:    0.00 PKD
ROOT
HETATM    1  C   UNL     1      -7.085   7.076  73.862  1.00  0.00    -0.083 C  
HETATM    2  O   UNL     1      -8.093   6.984  72.864  1.00  0.00    -0.105 OA 
ENDROOT
BRANCH   2   3
HETATM    3  C   UNL     1      -9.294   7.631  73.280  1.00  0.00    -0.243 C  
BRANCH   3   4
HETATM    4  C   UNL     1      -9.711   8.644  72.224  1.00  0.00    -0.286 C  
BRANCH   4   5
HETATM    5  O   UNL     1     -11.135   8.661  72.132  1.00  0.00    -0.340 OA 
BRANCH   5   6
HETATM    6  C   UNL     1     -11.689   7.424  72.570  1.00  0.00    -0.234 C  
BRANCH   6   7
HETATM    7  C   UNL     1     -12.654   6.901  71.519  1.00  0.00    -0.367 C  
BRANCH   7   8
HETATM    8  O   UNL     1     -11.993   6.910  70.256  1.00  0.00    -0.305 OA 
BRANCH   8   9
HETATM    9  C   UNL     1     -11.039   5.859  70.162  1.00  0.00    -0.325 C  
BRANCH   9  10
HETATM   10  C   UNL     1      -9.921   6.292  69.230  1.00  0.00    -0.155 C  
BRANCH  10  11
HETATM   11  O   UNL     1     -10.213   7.599  68.752  1.00  0.00    -0.190 OA 
BRANCH  11  12
HETATM   12  C   UNL     1      -9.083   8.455  68.865  1.00  0.00    -0.147 C  
BRANCH  12  13
HETATM   13  C   UNL     1      -8.386   8.517  67.517  1.00  0.00    -0.128 C  
BRANCH  13  14
HETATM   14  O   UNL     1      -7.246   7.669  67.536  1.00  0.00    -0.082 OA 
BRANCH  14  15
HETATM   15  C   UNL     1      -6.185   8.249  66.787  1.00  0.00    -0.055 C  
BRANCH  15  16
HETATM   16  C   UNL     1      -6.373   7.965  65.307  1.00  0.00    -0.041 C  
BRANCH  16  17
HETATM   17  O   UNL     1      -5.612   8.926  64.587  1.00  0.00    -0.060 OA 
BRANCH  17  18
HETATM   18  C   UNL     1      -6.326  10.133  64.374  1.00  0.00    -0.127 C  
BRANCH  18  19
HETATM   19  C   UNL     1      -7.758   9.768  64.031  1.00  0.00    -0.134 C  
BRANCH  19  20
HETATM   20  O   UNL     1      -8.318  10.764  63.186  1.00  0.00    -0.138 OA 
BRANCH  20  21
HETATM   21  C   UNL     1      -9.670  10.468  62.838  1.00  0.00    -0.265 C  
BRANCH  21  22
HETATM   22  C   UNL     1     -10.618  11.556  63.355  1.00  0.00    -0.395 C  
BRANCH  22  23
HETATM   23  O   UNL     1     -11.148  11.346  64.689  1.00  0.00    -0.290 OA 
BRANCH  23  24
HETATM   24  C   UNL     1     -10.338  11.900  65.754  1.00  0.00    -0.248 C  
HETATM   25  C   UNL     1      -9.782  13.235  65.346  1.00  0.00    -0.030 C  
HETATM   26  C   UNL     1     -10.715  14.517  65.753  1.00  0.00    -0.320 C  
HETATM   27  C   UNL     1     -11.308  14.641  67.285  1.00  0.00    -0.353 C  
HETATM   28  C   UNL     1     -10.968  15.622  68.591  1.00  0.00    -0.294 C  
HETATM   29  O   UNL     1     -12.731  14.568  67.114  1.00  0.00    -0.404 OA 
HETATM   30  C   UNL     1     -11.834  15.488  69.846  1.00  0.00    -0.380 C  
HETATM   31  H   UNL     1     -13.073  14.639  67.998  1.00  0.00     0.000 HD 
HETATM   32  C   UNL     1     -11.843  14.005  70.126  1.00  0.00    -0.377 A  
HETATM   33  C   UNL     1     -12.569  13.461  71.168  1.00  0.00    -0.430 A  
HETATM   34  C   UNL     1     -12.843  12.102  71.215  1.00  0.00    -0.349 A  
HETATM   35  C   UNL     1     -12.402  11.241  70.170  1.00  0.00    -0.276 A  
HETATM   36  O   UNL     1     -12.881   9.970  70.101  1.00  0.00    -0.551 OA 
HETATM   37  C   UNL     1     -11.567  11.760  69.183  1.00  0.00    -0.310 A  
HETATM   38  H   UNL     1     -12.587   9.396  69.403  1.00  0.00     0.000 HD 
HETATM   39  C   UNL     1     -11.227  13.119  69.156  1.00  0.00    -0.303 A  
HETATM   40  C   UNL     1     -10.574  13.491  67.853  1.00  0.00    -0.255 C  
HETATM   41  C   UNL     1     -11.082  12.188  67.077  1.00  0.00    -0.294 C  
HETATM   42  C   UNL     1      -8.964  14.306  67.820  1.00  0.00    -0.188 C  
HETATM   43  O   UNL     1     -11.144  11.101  68.040  1.00  0.00    -0.232 OA 
HETATM   44  C   UNL     1      -9.008  16.100  67.688  1.00  0.00    -0.191 C  
HETATM   45  N   UNL     1     -10.188  16.777  68.277  1.00  0.00    -0.279 NA 
BRANCH  45  46
HETATM   46  C   UNL     1     -11.032  17.683  67.518  1.00  0.00    -0.077 C  
BRANCH  46  47
HETATM   47  C   UNL     1     -10.418  19.010  67.220  1.00  0.00    -0.533 C  
HETATM   48  C   UNL     1     -10.285  19.492  65.980  1.00  0.00    -0.567 C  
ENDBRANCH  46  47
ENDBRANCH  45  46
ENDBRANCH  23  24
ENDBRANCH  22  23
ENDBRANCH  21  22
ENDBRANCH  20  21
ENDBRANCH  19  20
ENDBRANCH  18  19
ENDBRANCH  17  18
ENDBRANCH  16  17
ENDBRANCH  15  16
ENDBRANCH  14  15
ENDBRANCH  13  14
ENDBRANCH  12  13
ENDBRANCH  11  12
ENDBRANCH  10  11
ENDBRANCH   9  10
ENDBRANCH   8   9
ENDBRANCH   7   8
ENDBRANCH   6   7
ENDBRANCH   5   6
ENDBRANCH   4   5
ENDBRANCH   3   4
ENDBRANCH   2   3
TORSDOF 24
ENDMDL
MODEL       29
REMARK 921   NORMALIZED FREE ENERGY PREDICTED BY IDOCK:   -5.13 KCAL/MOL
REMARK 922        TOTAL FREE ENERGY PREDICTED BY IDOCK:  -14.62 KCAL/MOL
REMARK 923 INTER-LIGAND FREE ENERGY PREDICTED BY IDOCK:  -11.49 KCAL/MOL
REMARK 924 INTRA-LIGAND FREE ENERGY PREDICTED BY IDOCK:   -3.13 KCAL/MOL
REMARK 927      BINDING AFFINITY PREDICTED BY RF-SCORE:    0.00 PKD
ROOT
HETATM    1  C   UNL     1     -14.380   7.260  71.902  1.00  0.00    -0.354 C  
HETATM    2  O   UNL     1     -13.224   7.253  71.076  1.00  0.00    -0.283 OA 
ENDROOT
BRANCH   2   3
HETATM    3  C   UNL     1     -12.089   6.747  71.776  1.00  0.00    -0.350 C  
BRANCH   3   4
HETATM    4  C   UNL     1     -11.577   7.809  72.737  1.00  0.00    -0.314 C  
BRANCH   4   5
HETATM    5  O   UNL     1     -10.991   8.872  71.987  1.00  0.00    -0.352 OA 
BRANCH   5   6
HETATM    6  C   UNL     1      -9.584   8.689  71.855  1.00  0.00    -0.307 C  
BRANCH   6   7
HETATM    7  C   UNL     1      -9.160   9.022  70.434  1.00  0.00    -0.210 C  
BRANCH   7   8
HETATM    8  O   UNL     1      -8.109   8.135  70.059  1.00  0.00    -0.109 OA 
BRANCH   8   9
HETATM    9  C   UNL     1      -8.485   6.776  70.247  1.00  0.00    -0.135 C  
BRANCH   9  10
HETATM   10  C   UNL     1      -9.098   6.254  68.959  1.00  0.00    -0.129 C  
BRANCH  10  11
HETATM   11  O   UNL     1      -8.645   4.923  68.751  1.00  0.00    -0.089 OA 
BRANCH  11  12
HETATM   12  C   UNL     1      -9.502   4.219  67.860  1.00  0.00    -0.165 C  
BRANCH  12  13
HETATM   13  C   UNL     1     -10.363   5.227  67.119  1.00  0.00    -0.216 C  
BRANCH  13  14
HETATM   14  O   UNL     1     -10.600   4.763  65.797  1.00  0.00    -0.286 OA 
BRANCH  14  15
HETATM   15  C   UNL     1      -9.516   3.957  65.353  1.00  0.00    -0.170 C  
BRANCH  15  16
HETATM   16  C   UNL     1      -8.822   4.619  64.175  1.00  0.00    -0.140 C  
BRANCH  16  17
HETATM   17  O   UNL     1      -7.779   5.432  64.695  1.00  0.00    -0.081 OA 
BRANCH  17  18
HETATM   18  C   UNL     1      -7.994   6.812  64.449  1.00  0.00    -0.096 C  
BRANCH  18  19
HETATM   19  C   UNL     1      -7.833   7.547  65.766  1.00  0.00    -0.107 C  
BRANCH  19  20
HETATM   20  O   UNL     1      -8.983   8.343  66.017  1.00  0.00    -0.166 OA 
BRANCH  20  21
HETATM   21  C   UNL     1      -9.002   9.520  65.212  1.00  0.00    -0.200 C  
BRANCH  21  22
HETATM   22  C   UNL     1     -10.407  10.131  65.169  1.00  0.00    -0.038 C  
BRANCH  22  23
HETATM   23  O   UNL     1     -10.466  11.578  65.264  1.00  0.00    -0.264 OA 
BRANCH  23  24
HETATM   24  C   UNL     1      -9.846  12.131  66.450  1.00  0.00    -0.227 C  
HETATM   25  C   UNL     1      -9.289  13.496  66.159  1.00  0.00    -0.082 C  
HETATM   26  C   UNL     1     -10.321  14.732  66.450  1.00  0.00    -0.297 C  
HETATM   27  C   UNL     1     -11.140  14.793  67.878  1.00  0.00    -0.293 C  
HETATM   28  C   UNL     1     -11.036  15.749  69.241  1.00  0.00    -0.297 C  
HETATM   29  O   UNL     1     -12.517  14.673  67.495  1.00  0.00    -0.551 OA 
HETATM   30  C   UNL     1     -12.073  15.550  70.350  1.00  0.00    -0.426 C  
HETATM   31  H   UNL     1     -12.990  14.709  68.319  1.00  0.00     0.000 HD 
HETATM   32  C   UNL     1     -12.065  14.061  70.593  1.00  0.00    -0.424 A  
HETATM   33  C   UNL     1     -12.916  13.462  71.502  1.00  0.00    -0.429 A  
HETATM   34  C   UNL     1     -13.140  12.093  71.479  1.00  0.00    -0.357 A  
HETATM   35  C   UNL     1     -12.515  11.279  70.493  1.00  0.00    -0.310 A  
HETATM   36  O   UNL     1     -12.928   9.994  70.325  1.00  0.00    -0.578 OA 
HETATM   37  C   UNL     1     -11.564  11.853  69.653  1.00  0.00    -0.317 A  
HETATM   38  H   UNL     1     -12.511   9.450  69.667  1.00  0.00     0.000 HD 
HETATM   39  C   UNL     1     -11.278  13.224  69.707  1.00  0.00    -0.029 A  
HETATM   40  C   UNL     1     -10.454  13.655  68.525  1.00  0.00    -0.249 C  
HETATM   41  C   UNL     1     -10.789  12.356  67.653  1.00  0.00    -0.225 C  
HETATM   42  C   UNL     1      -8.890  14.528  68.750  1.00  0.00    -0.153 C  
HETATM   43  O   UNL     1     -10.950  11.242  68.572  1.00  0.00    -0.188 OA 
HETATM   44  C   UNL     1      -8.985  16.322  68.652  1.00  0.00    -0.232 C  
HETATM   45  N   UNL     1     -10.265  16.939  69.073  1.00  0.00    -0.295 NA 
BRANCH  45  46
HETATM   46  C   UNL     1     -11.022  17.835  68.216  1.00  0.00     0.006 C  
BRANCH  46  47
HETATM   47  C   UNL     1     -10.208  18.878  67.525  1.00  0.00    -0.456 C  
HETATM   48  C   UNL     1     -10.085  20.130  67.979  1.00  0.00    -0.519 C  
ENDBRANCH  46  47
ENDBRANCH  45  46
ENDBRANCH  23  24
ENDBRANCH  22  23
ENDBRANCH  21  22
ENDBRANCH  20  21
ENDBRANCH  19  20
ENDBRANCH  18  19
ENDBRANCH  17  18
ENDBRANCH  16  17
ENDBRANCH  15  16
ENDBRANCH  14  15
ENDBRANCH  13  14
ENDBRANCH  12  13
ENDBRANCH  11  12
ENDBRANCH  10  11
ENDBRANCH   9  10
ENDBRANCH   8   9
ENDBRANCH   7   8
ENDBRANCH   6   7
ENDBRANCH   5   6
ENDBRANCH   4   5
ENDBRANCH   3   4
ENDBRANCH   2   3
TORSDOF 24
ENDMDL
MODEL       30
REMARK 921   NORMALIZED FREE ENERGY PREDICTED BY IDOCK:   -5.11 KCAL/MOL
REMARK 922        TOTAL FREE ENERGY PREDICTED BY IDOCK:  -14.58 KCAL/MOL
REMARK 923 INTER-LIGAND FREE ENERGY PREDICTED BY IDOCK:  -11.95 KCAL/MOL
REMARK 924 INTRA-LIGAND FREE ENERGY PREDICTED BY IDOCK:   -2.62 KCAL/MOL
REMARK 927      BINDING AFFINITY PREDICTED BY RF-SCORE:    0.00 PKD
ROOT
HETATM    1  C   UNL     1      -5.333  10.820  62.911  1.00  0.00    -0.162 C  
HETATM    2  O   UNL     1      -6.194  10.411  63.965  1.00  0.00    -0.128 OA 
ENDROOT
BRANCH   2   3
HETATM    3  C   UNL     1      -6.846   9.181  63.654  1.00  0.00    -0.090 C  
BRANCH   3   4
HETATM    4  C   UNL     1      -8.319   9.285  64.023  1.00  0.00    -0.178 C  
BRANCH   4   5
HETATM    5  O   UNL     1      -8.682  10.663  64.101  1.00  0.00    -0.178 OA 
BRANCH   5   6
HETATM    6  C   UNL     1      -9.423  11.061  62.951  1.00  0.00    -0.356 C  
BRANCH   6   7
HETATM    7  C   UNL     1     -10.649  11.847  63.385  1.00  0.00    -0.430 C  
BRANCH   7   8
HETATM    8  O   UNL     1     -10.480  12.228  64.748  1.00  0.00    -0.276 OA 
BRANCH   8   9
HETATM    9  C   UNL     1     -10.925  13.560  64.974  1.00  0.00    -0.335 C  
BRANCH   9  10
HETATM   10  C   UNL     1     -12.079  13.531  65.961  1.00  0.00    -0.445 C  
BRANCH  10  11
HETATM   11  O   UNL     1     -12.032  12.302  66.674  1.00  0.00    -0.598 OA 
BRANCH  11  12
HETATM   12  C   UNL     1     -11.545  12.490  67.997  1.00  0.00    -0.342 C  
BRANCH  12  13
HETATM   13  C   UNL     1     -11.999  13.853  68.490  1.00  0.00    -0.359 C  
BRANCH  13  14
HETATM   14  O   UNL     1     -11.369  14.139  69.732  1.00  0.00    -0.252 OA 
BRANCH  14  15
HETATM   15  C   UNL     1     -11.460  15.528  70.026  1.00  0.00    -0.331 C  
BRANCH  15  16
HETATM   16  C   UNL     1     -12.237  15.739  71.314  1.00  0.00    -0.438 C  
BRANCH  16  17
HETATM   17  O   UNL     1     -12.115  14.552  72.086  1.00  0.00    -0.285 OA 
BRANCH  17  18
HETATM   18  C   UNL     1     -13.291  14.263  72.825  1.00  0.00    -0.525 C  
BRANCH  18  19
HETATM   19  C   UNL     1     -13.889  12.988  72.260  1.00  0.00    -0.434 C  
BRANCH  19  20
HETATM   20  O   UNL     1     -12.858  12.170  71.724  1.00  0.00    -0.339 OA 
BRANCH  20  21
HETATM   21  C   UNL     1     -13.203  10.787  71.760  1.00  0.00    -0.418 C  
BRANCH  21  22
HETATM   22  C   UNL     1     -11.984   9.910  71.454  1.00  0.00    -0.404 C  
BRANCH  22  23
HETATM   23  O   UNL     1     -12.061   8.540  71.924  1.00  0.00    -0.304 OA 
BRANCH  23  24
HETATM   24  C   UNL     1     -10.886   7.739  71.645  1.00  0.00    -0.229 C  
HETATM   25  C   UNL     1     -11.288   6.392  71.114  1.00  0.00    -0.376 C  
HETATM   26  C   UNL     1     -11.402   6.306  69.483  1.00  0.00    -0.475 C  
HETATM   27  C   UNL     1     -10.182   6.897  68.547  1.00  0.00    -0.177 C  
HETATM   28  C   UNL     1      -8.999   6.202  67.599  1.00  0.00    -0.111 C  
HETATM   29  O   UNL     1     -10.792   7.973  67.820  1.00  0.00    -0.471 OA 
HETATM   30  C   UNL     1      -8.087   7.122  66.783  1.00  0.00    -0.113 C  
HETATM   31  H   UNL     1     -10.088   8.315  67.280  1.00  0.00     0.000 HD 
HETATM   32  C   UNL     1      -7.606   8.141  67.786  1.00  0.00    -0.098 A  
HETATM   33  C   UNL     1      -6.787   9.194  67.427  1.00  0.00    -0.077 A  
HETATM   34  C   UNL     1      -6.627  10.293  68.258  1.00  0.00    -0.057 A  
HETATM   35  C   UNL     1      -7.332  10.370  69.493  1.00  0.00    -0.144 A  
HETATM   36  O   UNL     1      -7.361  11.546  70.175  1.00  0.00    -0.224 OA 
HETATM   37  C   UNL     1      -8.061   9.262  69.918  1.00  0.00    -0.124 A  
HETATM   38  H   UNL     1      -7.831  11.597  71.000  1.00  0.00     0.000 HD 
HETATM   39  C   UNL     1      -8.180   8.117  69.119  1.00  0.00    -0.123 A  
HETATM   40  C   UNL     1      -9.241   7.192  69.648  1.00  0.00    -0.146 C  
HETATM   41  C   UNL     1      -9.936   8.303  70.566  1.00  0.00    -0.184 C  
HETATM   42  C   UNL     1      -8.873   5.461  70.002  1.00  0.00    -0.141 C  
HETATM   43  O   UNL     1      -8.893   9.206  71.025  1.00  0.00    -0.215 OA 
HETATM   44  C   UNL     1      -9.279   4.300  68.688  1.00  0.00    -0.140 C  
HETATM   45  N   UNL     1      -9.213   4.821  67.303  1.00  0.00    -0.123 NA 
BRANCH  45  46
HETATM   46  C   UNL     1     -10.331   4.738  66.380  1.00  0.00    -0.273 C  
BRANCH  46  47
HETATM   47  C   UNL     1     -10.037   4.027  65.101  1.00  0.00    -0.189 C  
HETATM   48  C   UNL     1      -8.897   4.184  64.422  1.00  0.00    -0.138 C  
ENDBRANCH  46  47
ENDBRANCH  45  46
ENDBRANCH  23  24
ENDBRANCH  22  23
ENDBRANCH  21  22
ENDBRANCH  20  21
ENDBRANCH  19  20
ENDBRANCH  18  19
ENDBRANCH  17  18
ENDBRANCH  16  17
ENDBRANCH  15  16
ENDBRANCH  14  15
ENDBRANCH  13  14
ENDBRANCH  12  13
ENDBRANCH  11  12
ENDBRANCH  10  11
ENDBRANCH   9  10
ENDBRANCH   8   9
ENDBRANCH   7   8
ENDBRANCH   6   7
ENDBRANCH   5   6
ENDBRANCH   4   5
ENDBRANCH   3   4
ENDBRANCH   2   3
TORSDOF 24
ENDMDL
MODEL       31
REMARK 921   NORMALIZED FREE ENERGY PREDICTED BY IDOCK:   -5.11 KCAL/MOL
REMARK 922        TOTAL FREE ENERGY PREDICTED BY IDOCK:  -14.57 KCAL/MOL
REMARK 923 INTER-LIGAND FREE ENERGY PREDICTED BY IDOCK:  -12.21 KCAL/MOL
REMARK 924 INTRA-LIGAND FREE ENERGY PREDICTED BY IDOCK:   -2.36 KCAL/MOL
REMARK 927      BINDING AFFINITY PREDICTED BY RF-SCORE:    0.00 PKD
ROOT
HETATM    1  C   UNL     1     -13.280  15.724  73.035  1.00  0.00    -0.573 C  
HETATM    2  O   UNL     1     -13.146  15.748  71.620  1.00  0.00    -0.481 OA 
ENDROOT
BRANCH   2   3
HETATM    3  C   UNL     1     -11.784  15.914  71.231  1.00  0.00    -0.448 C  
BRANCH   3   4
HETATM    4  C   UNL     1     -11.679  15.820  69.716  1.00  0.00    -0.348 C  
BRANCH   4   5
HETATM    5  O   UNL     1     -10.434  16.379  69.300  1.00  0.00    -0.262 OA 
BRANCH   5   6
HETATM    6  C   UNL     1      -9.907  15.674  68.180  1.00  0.00    -0.212 C  
BRANCH   6   7
HETATM    7  C   UNL     1      -8.586  15.027  68.564  1.00  0.00    -0.166 C  
BRANCH   7   8
HETATM    8  O   UNL     1      -8.640  13.648  68.207  1.00  0.00    -0.164 OA 
BRANCH   8   9
HETATM    9  C   UNL     1      -7.462  13.245  67.518  1.00  0.00    -0.157 C  
BRANCH   9  10
HETATM   10  C   UNL     1      -7.401  11.728  67.497  1.00  0.00    -0.127 C  
BRANCH  10  11
HETATM   11  O   UNL     1      -8.170  11.261  66.396  1.00  0.00    -0.165 OA 
BRANCH  11  12
HETATM   12  C   UNL     1      -7.409  10.391  65.566  1.00  0.00    -0.139 C  
BRANCH  12  13
HETATM   13  C   UNL     1      -8.283   9.939  64.409  1.00  0.00    -0.164 C  
BRANCH  13  14
HETATM   14  O   UNL     1      -7.780  10.485  63.197  1.00  0.00    -0.133 OA 
BRANCH  14  15
HETATM   15  C   UNL     1      -8.846  10.981  62.397  1.00  0.00    -0.307 C  
BRANCH  15  16
HETATM   16  C   UNL     1     -10.086  11.188  63.248  1.00  0.00    -0.380 C  
BRANCH  16  17
HETATM   17  O   UNL     1     -10.404  12.573  63.212  1.00  0.00    -0.344 OA 
BRANCH  17  18
HETATM   18  C   UNL     1     -11.775  12.822  63.473  1.00  0.00    -0.530 C  
BRANCH  18  19
HETATM   19  C   UNL     1     -11.857  13.739  64.678  1.00  0.00    -0.402 C  
BRANCH  19  20
HETATM   20  O   UNL     1     -12.610  13.114  65.708  1.00  0.00    -0.444 OA 
BRANCH  20  21
HETATM   21  C   UNL     1     -11.816  12.849  66.863  1.00  0.00    -0.379 C  
BRANCH  21  22
HETATM   22  C   UNL     1     -11.530  11.349  66.998  1.00  0.00    -0.156 C  
BRANCH  22  23
HETATM   23  O   UNL     1     -11.780  10.777  68.307  1.00  0.00    -0.468 OA 
BRANCH  23  24
HETATM   24  C   UNL     1     -10.621  10.178  68.936  1.00  0.00    -0.215 C  
HETATM   25  C   UNL     1     -10.797  10.143  70.429  1.00  0.00    -0.365 C  
HETATM   26  C   UNL     1     -11.482   8.773  71.004  1.00  0.00    -0.337 C  
HETATM   27  C   UNL     1     -10.917   7.307  70.508  1.00  0.00    -0.260 C  
HETATM   28  C   UNL     1     -10.030   6.094  71.231  1.00  0.00    -0.182 C  
HETATM   29  O   UNL     1     -12.029   6.723  69.814  1.00  0.00    -0.654 OA 
HETATM   30  C   UNL     1      -9.785   4.804  70.445  1.00  0.00    -0.289 C  
HETATM   31  H   UNL     1     -11.703   5.877  69.528  1.00  0.00     0.000 HD 
HETATM   32  C   UNL     1      -9.270   5.283  69.110  1.00  0.00    -0.153 A  
HETATM   33  C   UNL     1      -8.974   4.410  68.081  1.00  0.00    -0.146 A  
HETATM   34  C   UNL     1      -8.831   4.861  66.777  1.00  0.00    -0.110 A  
HETATM   35  C   UNL     1      -9.015   6.238  66.468  1.00  0.00    -0.144 A  
HETATM   36  O   UNL     1      -9.115   6.626  65.169  1.00  0.00    -0.350 OA 
HETATM   37  C   UNL     1      -9.191   7.142  67.513  1.00  0.00    -0.125 A  
HETATM   38  H   UNL     1      -9.238   7.545  64.962  1.00  0.00     0.000 HD 
HETATM   39  C   UNL     1      -9.274   6.710  68.844  1.00  0.00    -0.130 A  
HETATM   40  C   UNL     1      -9.757   7.813  69.746  1.00  0.00    -0.176 C  
HETATM   41  C   UNL     1     -10.340   8.708  68.554  1.00  0.00    -0.196 C  
HETATM   42  C   UNL     1      -8.815   8.299  71.207  1.00  0.00    -0.193 C  
HETATM   43  O   UNL     1      -9.499   8.488  67.389  1.00  0.00    -0.143 OA 
HETATM   44  C   UNL     1      -9.339   7.541  72.752  1.00  0.00    -0.167 C  
HETATM   45  N   UNL     1      -9.943   6.191  72.654  1.00  0.00    -0.174 NA 
BRANCH  45  46
HETATM   46  C   UNL     1     -11.253   5.878  73.196  1.00  0.00    -0.174 C  
BRANCH  46  47
HETATM   47  C   UNL     1     -11.535   4.420  73.352  1.00  0.00    -0.297 C  
HETATM   48  C   UNL     1     -10.651   3.555  73.860  1.00  0.00    -0.281 C  
ENDBRANCH  46  47
ENDBRANCH  45  46
ENDBRANCH  23  24
ENDBRANCH  22  23
ENDBRANCH  21  22
ENDBRANCH  20  21
ENDBRANCH  19  20
ENDBRANCH  18  19
ENDBRANCH  17  18
ENDBRANCH  16  17
ENDBRANCH  15  16
ENDBRANCH  14  15
ENDBRANCH  13  14
ENDBRANCH  12  13
ENDBRANCH  11  12
ENDBRANCH  10  11
ENDBRANCH   9  10
ENDBRANCH   8   9
ENDBRANCH   7   8
ENDBRANCH   6   7
ENDBRANCH   5   6
ENDBRANCH   4   5
ENDBRANCH   3   4
ENDBRANCH   2   3
TORSDOF 24
ENDMDL
MODEL       32
REMARK 921   NORMALIZED FREE ENERGY PREDICTED BY IDOCK:   -5.09 KCAL/MOL
REMARK 922        TOTAL FREE ENERGY PREDICTED BY IDOCK:  -14.53 KCAL/MOL
REMARK 923 INTER-LIGAND FREE ENERGY PREDICTED BY IDOCK:  -11.87 KCAL/MOL
REMARK 924 INTRA-LIGAND FREE ENERGY PREDICTED BY IDOCK:   -2.66 KCAL/MOL
REMARK 927      BINDING AFFINITY PREDICTED BY RF-SCORE:    0.00 PKD
ROOT
HETATM    1  C   UNL     1     -14.351  14.934  71.515  1.00  0.00    -0.539 C  
HETATM    2  O   UNL     1     -13.228  14.406  72.208  1.00  0.00    -0.346 OA 
ENDROOT
BRANCH   2   3
HETATM    3  C   UNL     1     -12.069  14.385  71.377  1.00  0.00    -0.326 C  
BRANCH   3   4
HETATM    4  C   UNL     1     -11.645  15.814  71.070  1.00  0.00    -0.411 C  
BRANCH   4   5
HETATM    5  O   UNL     1     -11.539  15.974  69.656  1.00  0.00    -0.326 OA 
BRANCH   5   6
HETATM    6  C   UNL     1     -10.373  16.717  69.312  1.00  0.00    -0.318 C  
BRANCH   6   7
HETATM    7  C   UNL     1      -9.169  15.790  69.294  1.00  0.00    -0.266 C  
BRANCH   7   8
HETATM    8  O   UNL     1      -9.532  14.594  68.609  1.00  0.00    -0.204 OA 
BRANCH   8   9
HETATM    9  C   UNL     1      -8.835  14.471  67.375  1.00  0.00    -0.198 C  
BRANCH   9  10
HETATM   10  C   UNL     1      -8.430  13.020  67.182  1.00  0.00    -0.174 C  
BRANCH  10  11
HETATM   11  O   UNL     1      -9.221  12.466  66.139  1.00  0.00    -0.198 OA 
BRANCH  11  12
HETATM   12  C   UNL     1      -8.607  11.309  65.584  1.00  0.00    -0.023 C  
BRANCH  12  13
HETATM   13  C   UNL     1      -9.343  10.935  64.309  1.00  0.00    -0.228 C  
BRANCH  13  14
HETATM   14  O   UNL     1     -10.740  11.111  64.503  1.00  0.00    -0.336 OA 
BRANCH  14  15
HETATM   15  C   UNL     1     -11.310  11.802  63.399  1.00  0.00    -0.344 C  
BRANCH  15  16
HETATM   16  C   UNL     1     -12.122  12.989  63.888  1.00  0.00    -0.471 C  
BRANCH  16  17
HETATM   17  O   UNL     1     -12.501  12.723  65.232  1.00  0.00    -0.496 OA 
BRANCH  17  18
HETATM   18  C   UNL     1     -12.462  13.883  66.047  1.00  0.00    -0.461 C  
BRANCH  18  19
HETATM   19  C   UNL     1     -12.266  13.434  67.482  1.00  0.00    -0.185 C  
BRANCH  19  20
HETATM   20  O   UNL     1     -11.976  12.043  67.515  1.00  0.00    -0.572 OA 
BRANCH  20  21
HETATM   21  C   UNL     1     -12.027  11.520  68.842  1.00  0.00    -0.299 C  
BRANCH  21  22
HETATM   22  C   UNL     1     -10.616  11.337  69.412  1.00  0.00    -0.099 C  
BRANCH  22  23
HETATM   23  O   UNL     1      -9.809  10.314  68.776  1.00  0.00    -0.165 OA 
BRANCH  23  24
HETATM   24  C   UNL     1     -10.520   9.091  68.464  1.00  0.00    -0.196 C  
HETATM   25  C   UNL     1     -10.035   8.524  67.159  1.00  0.00    -0.304 C  
HETATM   26  C   UNL     1      -8.803   7.456  67.293  1.00  0.00    -0.124 C  
HETATM   27  C   UNL     1      -8.899   6.233  68.393  1.00  0.00    -0.114 C  
HETATM   28  C   UNL     1      -9.124   4.584  68.285  1.00  0.00    -0.124 C  
HETATM   29  O   UNL     1      -7.823   6.500  69.304  1.00  0.00    -0.106 OA 
HETATM   30  C   UNL     1      -9.052   3.754  69.570  1.00  0.00    -0.200 C  
HETATM   31  H   UNL     1      -7.879   5.794  69.938  1.00  0.00     0.000 HD 
HETATM   32  C   UNL     1      -9.970   4.479  70.523  1.00  0.00    -0.278 A  
HETATM   33  C   UNL     1     -10.143   4.066  71.830  1.00  0.00    -0.214 A  
HETATM   34  C   UNL     1     -10.706   4.908  72.778  1.00  0.00    -0.289 A  
HETATM   35  C   UNL     1     -11.094   6.232  72.425  1.00  0.00    -0.270 A  
HETATM   36  O   UNL     1     -11.412   7.121  73.404  1.00  0.00    -0.524 OA 
HETATM   37  C   UNL     1     -11.037   6.613  71.086  1.00  0.00    -0.279 A  
HETATM   38  H   UNL     1     -11.671   8.004  73.168  1.00  0.00     0.000 HD 
HETATM   39  C   UNL     1     -10.530   5.751  70.105  1.00  0.00    -0.348 A  
HETATM   40  C   UNL     1     -10.295   6.478  68.809  1.00  0.00    -0.220 C  
HETATM   41  C   UNL     1     -10.332   7.935  69.471  1.00  0.00    -0.217 C  
HETATM   42  C   UNL     1     -11.021   5.888  67.266  1.00  0.00    -0.276 C  
HETATM   43  O   UNL     1     -11.262   7.885  70.587  1.00  0.00    -0.262 OA 
HETATM   44  C   UNL     1      -9.951   4.855  66.254  1.00  0.00    -0.234 C  
HETATM   45  N   UNL     1      -8.941   4.045  66.975  1.00  0.00    -0.123 NA 
BRANCH  45  46
HETATM   46  C   UNL     1      -7.523   4.108  66.669  1.00  0.00    -0.080 C  
BRANCH  46  47
HETATM   47  C   UNL     1      -7.193   4.705  65.341  1.00  0.00    -0.068 C  
HETATM   48  C   UNL     1      -6.303   4.169  64.499  1.00  0.00    -0.034 C  
ENDBRANCH  46  47
ENDBRANCH  45  46
ENDBRANCH  23  24
ENDBRANCH  22  23
ENDBRANCH  21  22
ENDBRANCH  20  21
ENDBRANCH  19  20
ENDBRANCH  18  19
ENDBRANCH  17  18
ENDBRANCH  16  17
ENDBRANCH  15  16
ENDBRANCH  14  15
ENDBRANCH  13  14
ENDBRANCH  12  13
ENDBRANCH  11  12
ENDBRANCH  10  11
ENDBRANCH   9  10
ENDBRANCH   8   9
ENDBRANCH   7   8
ENDBRANCH   6   7
ENDBRANCH   5   6
ENDBRANCH   4   5
ENDBRANCH   3   4
ENDBRANCH   2   3
TORSDOF 24
ENDMDL
MODEL       33
REMARK 921   NORMALIZED FREE ENERGY PREDICTED BY IDOCK:   -5.05 KCAL/MOL
REMARK 922        TOTAL FREE ENERGY PREDICTED BY IDOCK:  -14.44 KCAL/MOL
REMARK 923 INTER-LIGAND FREE ENERGY PREDICTED BY IDOCK:  -12.64 KCAL/MOL
REMARK 924 INTRA-LIGAND FREE ENERGY PREDICTED BY IDOCK:   -1.80 KCAL/MOL
REMARK 927      BINDING AFFINITY PREDICTED BY RF-SCORE:    0.00 PKD
ROOT
HETATM    1  C   UNL     1      -7.012  19.560  68.962  1.00  0.00    -0.357 C  
HETATM    2  O   UNL     1      -7.685  19.266  67.745  1.00  0.00    -0.262 OA 
ENDROOT
BRANCH   2   3
HETATM    3  C   UNL     1      -9.100  19.324  67.908  1.00  0.00    -0.313 C  
BRANCH   3   4
HETATM    4  C   UNL     1      -9.757  18.339  66.953  1.00  0.00    -0.315 C  
BRANCH   4   5
HETATM    5  O   UNL     1     -10.869  17.728  67.607  1.00  0.00    -0.363 OA 
BRANCH   5   6
HETATM    6  C   UNL     1     -10.453  16.605  68.378  1.00  0.00    -0.323 C  
BRANCH   6   7
HETATM    7  C   UNL     1     -11.478  15.491  68.246  1.00  0.00    -0.353 C  
BRANCH   7   8
HETATM    8  O   UNL     1     -11.134  14.694  67.115  1.00  0.00    -0.307 OA 
BRANCH   8   9
HETATM    9  C   UNL     1     -12.152  13.746  66.820  1.00  0.00    -0.418 C  
BRANCH   9  10
HETATM   10  C   UNL     1     -12.506  13.849  65.347  1.00  0.00    -0.501 C  
BRANCH  10  11
HETATM   11  O   UNL     1     -12.991  12.586  64.910  1.00  0.00    -0.821 OA 
BRANCH  11  12
HETATM   12  C   UNL     1     -12.546  12.289  63.592  1.00  0.00    -0.490 C  
BRANCH  12  13
HETATM   13  C   UNL     1     -11.029  12.352  63.568  1.00  0.00    -0.450 C  
BRANCH  13  14
HETATM   14  O   UNL     1     -10.503  11.034  63.506  1.00  0.00    -0.361 OA 
BRANCH  14  15
HETATM   15  C   UNL     1      -9.284  11.021  62.772  1.00  0.00    -0.351 C  
BRANCH  15  16
HETATM   16  C   UNL     1      -8.621   9.659  62.885  1.00  0.00    -0.202 C  
BRANCH  16  17
HETATM   17  O   UNL     1      -8.810   9.201  64.218  1.00  0.00    -0.186 OA 
BRANCH  17  18
HETATM   18  C   UNL     1      -7.782   8.319  64.638  1.00  0.00    -0.117 C  
BRANCH  18  19
HETATM   19  C   UNL     1      -7.685   7.202  63.615  1.00  0.00    -0.119 C  
BRANCH  19  20
HETATM   20  O   UNL     1      -8.392   6.061  64.081  1.00  0.00    -0.096 OA 
BRANCH  20  21
HETATM   21  C   UNL     1      -7.566   5.210  64.874  1.00  0.00    -0.078 C  
BRANCH  21  22
HETATM   22  C   UNL     1      -8.411   4.378  65.845  1.00  0.00    -0.114 C  
BRANCH  22  23
HETATM   23  O   UNL     1      -9.370   5.122  66.640  1.00  0.00    -0.127 OA 
BRANCH  23  24
HETATM   24  C   UNL     1      -8.826   5.708  67.848  1.00  0.00    -0.105 C  
HETATM   25  C   UNL     1      -9.002   7.201  67.827  1.00  0.00    -0.122 C  
HETATM   26  C   UNL     1     -10.388   7.736  68.512  1.00  0.00    -0.226 C  
HETATM   27  C   UNL     1     -10.835   7.177  69.996  1.00  0.00    -0.254 C  
HETATM   28  C   UNL     1     -10.884   7.840  71.525  1.00  0.00    -0.227 C  
HETATM   29  O   UNL     1     -12.065   6.480  69.748  1.00  0.00    -0.579 OA 
HETATM   30  C   UNL     1     -11.473   7.001  72.663  1.00  0.00    -0.250 C  
HETATM   31  H   UNL     1     -12.322   6.157  70.604  1.00  0.00     0.000 HD 
HETATM   32  C   UNL     1     -10.759   5.677  72.546  1.00  0.00    -0.285 A  
HETATM   33  C   UNL     1     -11.051   4.612  73.377  1.00  0.00    -0.418 A  
HETATM   34  C   UNL     1     -10.649   3.323  73.057  1.00  0.00    -0.241 A  
HETATM   35  C   UNL     1      -9.947   3.069  71.844  1.00  0.00    -0.140 A  
HETATM   36  O   UNL     1      -9.777   1.786  71.425  1.00  0.00    -0.131 OA 
HETATM   37  C   UNL     1      -9.543   4.150  71.064  1.00  0.00    -0.183 A  
HETATM   38  H   UNL     1      -9.309   1.617  70.616  1.00  0.00     0.000 HD 
HETATM   39  C   UNL     1      -9.886   5.465  71.407  1.00  0.00    -0.221 A  
HETATM   40  C   UNL     1      -9.600   6.415  70.276  1.00  0.00    -0.177 C  
HETATM   41  C   UNL     1      -9.501   5.267  69.166  1.00  0.00    -0.134 C  
HETATM   42  C   UNL     1      -8.572   7.877  70.528  1.00  0.00    -0.131 C  
HETATM   43  O   UNL     1      -8.961   4.081  69.809  1.00  0.00    -0.083 OA 
HETATM   44  C   UNL     1      -9.466   9.401  70.866  1.00  0.00    -0.209 C  
HETATM   45  N   UNL     1     -10.769   9.263  71.558  1.00  0.00    -0.357 NA 
BRANCH  45  46
HETATM   46  C   UNL     1     -12.002   9.815  71.025  1.00  0.00    -0.352 C  
BRANCH  46  47
HETATM   47  C   UNL     1     -11.819  10.847  69.962  1.00  0.00    -0.428 C  
HETATM   48  C   UNL     1     -12.149  12.132  70.127  1.00  0.00    -0.368 C  
ENDBRANCH  46  47
ENDBRANCH  45  46
ENDBRANCH  23  24
ENDBRANCH  22  23
ENDBRANCH  21  22
ENDBRANCH  20  21
ENDBRANCH  19  20
ENDBRANCH  18  19
ENDBRANCH  17  18
ENDBRANCH  16  17
ENDBRANCH  15  16
ENDBRANCH  14  15
ENDBRANCH  13  14
ENDBRANCH  12  13
ENDBRANCH  11  12
ENDBRANCH  10  11
ENDBRANCH   9  10
ENDBRANCH   8   9
ENDBRANCH   7   8
ENDBRANCH   6   7
ENDBRANCH   5   6
ENDBRANCH   4   5
ENDBRANCH   3   4
ENDBRANCH   2   3
TORSDOF 24
ENDMDL
MODEL       34
REMARK 921   NORMALIZED FREE ENERGY PREDICTED BY IDOCK:   -5.05 KCAL/MOL
REMARK 922        TOTAL FREE ENERGY PREDICTED BY IDOCK:  -14.44 KCAL/MOL
REMARK 923 INTER-LIGAND FREE ENERGY PREDICTED BY IDOCK:  -11.88 KCAL/MOL
REMARK 924 INTRA-LIGAND FREE ENERGY PREDICTED BY IDOCK:   -2.56 KCAL/MOL
REMARK 927      BINDING AFFINITY PREDICTED BY RF-SCORE:    0.00 PKD
ROOT
HETATM    1  C   UNL     1     -12.596  12.382  64.209  1.00  0.00    -0.401 C  
HETATM    2  O   UNL     1     -11.394  11.854  64.753  1.00  0.00    -0.316 OA 
ENDROOT
BRANCH   2   3
HETATM    3  C   UNL     1     -11.363  11.990  66.172  1.00  0.00    -0.351 C  
BRANCH   3   4
HETATM    4  C   UNL     1     -11.194  13.459  66.533  1.00  0.00    -0.307 C  
BRANCH   4   5
HETATM    5  O   UNL     1     -10.083  13.990  65.812  1.00  0.00    -0.309 OA 
BRANCH   5   6
HETATM    6  C   UNL     1     -10.129  15.413  65.779  1.00  0.00    -0.363 C  
BRANCH   6   7
HETATM    7  C   UNL     1     -11.084  15.864  64.686  1.00  0.00    -0.354 C  
BRANCH   7   8
HETATM    8  O   UNL     1     -11.098  17.290  64.662  1.00  0.00    -1.052 OA 
BRANCH   8   9
HETATM    9  C   UNL     1     -10.535  17.835  65.849  1.00  0.00    -0.251 C  
BRANCH   9  10
HETATM   10  C   UNL     1     -10.640  19.349  65.792  1.00  0.00    -0.400 C  
BRANCH  10  11
HETATM   11  O   UNL     1      -9.725  19.899  66.731  1.00  0.00    -0.360 OA 
BRANCH  11  12
HETATM   12  C   UNL     1     -10.262  19.881  68.048  1.00  0.00    -0.436 C  
BRANCH  12  13
HETATM   13  C   UNL     1      -9.297  19.136  68.954  1.00  0.00    -0.341 C  
BRANCH  13  14
HETATM   14  O   UNL     1      -7.974  19.590  68.708  1.00  0.00    -0.352 OA 
BRANCH  14  15
HETATM   15  C   UNL     1      -7.053  18.511  68.807  1.00  0.00    -0.291 C  
BRANCH  15  16
HETATM   16  C   UNL     1      -7.784  17.186  68.678  1.00  0.00    -0.260 C  
BRANCH  16  17
HETATM   17  O   UNL     1      -7.134  16.253  69.532  1.00  0.00    -0.219 OA 
BRANCH  17  18
HETATM   18  C   UNL     1      -5.725  16.407  69.529  1.00  0.00    -0.161 C  
BRANCH  18  19
HETATM   19  C   UNL     1      -5.126  15.165  68.896  1.00  0.00    -0.096 C  
BRANCH  19  20
HETATM   20  O   UNL     1      -5.959  14.044  69.158  1.00  0.00    -0.084 OA 
BRANCH  20  21
HETATM   21  C   UNL     1      -6.122  13.221  68.004  1.00  0.00    -0.122 C  
BRANCH  21  22
HETATM   22  C   UNL     1      -7.598  12.871  67.785  1.00  0.00    -0.141 C  
BRANCH  22  23
HETATM   23  O   UNL     1      -7.854  11.581  67.173  1.00  0.00    -0.144 OA 
BRANCH  23  24
HETATM   24  C   UNL     1      -7.696  10.449  68.063  1.00  0.00    -0.092 C  
HETATM   25  C   UNL     1      -8.366  10.722  69.380  1.00  0.00    -0.018 C  
HETATM   26  C   UNL     1      -9.924  10.231  69.469  1.00  0.00    -0.252 C  
HETATM   27  C   UNL     1     -10.331   8.712  68.979  1.00  0.00    -0.213 C  
HETATM   28  C   UNL     1     -10.789   7.316  69.769  1.00  0.00    -0.235 C  
HETATM   29  O   UNL     1     -11.209   8.929  67.866  1.00  0.00    -0.450 OA 
HETATM   30  C   UNL     1     -11.191   6.102  68.927  1.00  0.00    -0.338 C  
HETATM   31  H   UNL     1     -11.443   8.052  67.583  1.00  0.00     0.000 HD 
HETATM   32  C   UNL     1     -10.060   5.954  67.939  1.00  0.00    -0.193 A  
HETATM   33  C   UNL     1     -10.069   4.985  66.954  1.00  0.00    -0.261 A  
HETATM   34  C   UNL     1      -9.216   5.064  65.863  1.00  0.00    -0.159 A  
HETATM   35  C   UNL     1      -8.327   6.168  65.724  1.00  0.00    -0.143 A  
HETATM   36  O   UNL     1      -7.679   6.362  64.544  1.00  0.00    -0.094 OA 
HETATM   37  C   UNL     1      -8.224   7.082  66.770  1.00  0.00    -0.111 A  
HETATM   38  H   UNL     1      -7.086   7.099  64.451  1.00  0.00     0.000 HD 
HETATM   39  C   UNL     1      -9.034   6.980  67.909  1.00  0.00    -0.122 A  
HETATM   40  C   UNL     1      -8.954   8.226  68.748  1.00  0.00    -0.144 C  
HETATM   41  C   UNL     1      -8.335   9.128  67.580  1.00  0.00    -0.116 C  
HETATM   42  C   UNL     1      -8.526   8.142  70.499  1.00  0.00    -0.125 C  
HETATM   43  O   UNL     1      -7.505   8.266  66.755  1.00  0.00    -0.084 OA 
HETATM   44  C   UNL     1      -9.920   8.118  71.636  1.00  0.00    -0.192 C  
HETATM   45  N   UNL     1     -11.172   7.505  71.132  1.00  0.00    -0.253 NA 
BRANCH  45  46
HETATM   46  C   UNL     1     -12.444   8.205  71.137  1.00  0.00    -0.182 C  
BRANCH  46  47
HETATM   47  C   UNL     1     -12.493   9.411  72.015  1.00  0.00    -0.440 C  
HETATM   48  C   UNL     1     -13.054  10.566  71.640  1.00  0.00    -0.551 C  
ENDBRANCH  46  47
ENDBRANCH  45  46
ENDBRANCH  23  24
ENDBRANCH  22  23
ENDBRANCH  21  22
ENDBRANCH  20  21
ENDBRANCH  19  20
ENDBRANCH  18  19
ENDBRANCH  17  18
ENDBRANCH  16  17
ENDBRANCH  15  16
ENDBRANCH  14  15
ENDBRANCH  13  14
ENDBRANCH  12  13
ENDBRANCH  11  12
ENDBRANCH  10  11
ENDBRANCH   9  10
ENDBRANCH   8   9
ENDBRANCH   7   8
ENDBRANCH   6   7
ENDBRANCH   5   6
ENDBRANCH   4   5
ENDBRANCH   3   4
ENDBRANCH   2   3
TORSDOF 24
ENDMDL
MODEL       35
REMARK 921   NORMALIZED FREE ENERGY PREDICTED BY IDOCK:   -5.05 KCAL/MOL
REMARK 922        TOTAL FREE ENERGY PREDICTED BY IDOCK:  -14.43 KCAL/MOL
REMARK 923 INTER-LIGAND FREE ENERGY PREDICTED BY IDOCK:  -11.80 KCAL/MOL
REMARK 924 INTRA-LIGAND FREE ENERGY PREDICTED BY IDOCK:   -2.63 KCAL/MOL
REMARK 927      BINDING AFFINITY PREDICTED BY RF-SCORE:    0.00 PKD
ROOT
HETATM    1  C   UNL     1      -6.713   6.859  63.596  1.00  0.00    -0.043 C  
HETATM    2  O   UNL     1      -6.268   6.259  64.805  1.00  0.00    -0.029 OA 
ENDROOT
BRANCH   2   3
HETATM    3  C   UNL     1      -7.079   5.140  65.158  1.00  0.00    -0.063 C  
BRANCH   3   4
HETATM    4  C   UNL     1      -8.388   5.204  64.384  1.00  0.00    -0.137 C  
BRANCH   4   5
HETATM    5  O   UNL     1      -9.462   4.855  65.257  1.00  0.00    -0.156 OA 
BRANCH   5   6
HETATM    6  C   UNL     1      -9.443   5.657  66.434  1.00  0.00    -0.155 C  
BRANCH   6   7
HETATM    7  C   UNL     1      -9.601   4.767  67.656  1.00  0.00    -0.155 C  
BRANCH   7   8
HETATM    8  O   UNL     1     -10.254   5.517  68.677  1.00  0.00    -0.173 OA 
BRANCH   8   9
HETATM    9  C   UNL     1      -9.616   5.344  69.937  1.00  0.00    -0.168 C  
BRANCH   9  10
HETATM   10  C   UNL     1     -10.392   6.114  70.991  1.00  0.00    -0.210 C  
BRANCH  10  11
HETATM   11  O   UNL     1     -11.695   6.378  70.488  1.00  0.00    -0.386 OA 
BRANCH  11  12
HETATM   12  C   UNL     1     -12.438   7.199  71.381  1.00  0.00    -0.388 C  
BRANCH  12  13
HETATM   13  C   UNL     1     -11.463   7.952  72.270  1.00  0.00    -0.348 C  
BRANCH  13  14
HETATM   14  O   UNL     1     -11.424   9.316  71.874  1.00  0.00    -0.372 OA 
BRANCH  14  15
HETATM   15  C   UNL     1     -12.714   9.751  71.463  1.00  0.00    -0.406 C  
BRANCH  15  16
HETATM   16  C   UNL     1     -12.713  11.253  71.240  1.00  0.00    -0.405 C  
BRANCH  16  17
HETATM   17  O   UNL     1     -13.483  11.840  72.282  1.00  0.00    -0.423 OA 
BRANCH  17  18
HETATM   18  C   UNL     1     -13.633  13.241  72.120  1.00  0.00    -0.562 C  
BRANCH  18  19
HETATM   19  C   UNL     1     -12.678  13.685  71.028  1.00  0.00    -0.332 C  
BRANCH  19  20
HETATM   20  O   UNL     1     -11.761  14.637  71.550  1.00  0.00    -0.325 OA 
BRANCH  20  21
HETATM   21  C   UNL     1     -12.016  15.950  71.054  1.00  0.00    -0.412 C  
BRANCH  21  22
HETATM   22  C   UNL     1     -10.931  16.379  70.060  1.00  0.00    -0.318 C  
BRANCH  22  23
HETATM   23  O   UNL     1     -11.230  16.139  68.661  1.00  0.00    -0.336 OA 
BRANCH  23  24
HETATM   24  C   UNL     1     -10.166  15.496  67.918  1.00  0.00    -0.238 C  
HETATM   25  C   UNL     1      -9.267  14.732  68.850  1.00  0.00    -0.177 C  
HETATM   26  C   UNL     1      -9.689  13.168  69.078  1.00  0.00     0.310 C  
HETATM   27  C   UNL     1     -10.027  12.214  67.778  1.00  0.00    -0.198 C  
HETATM   28  C   UNL     1      -9.241  10.953  67.022  1.00  0.00    -0.152 C  
HETATM   29  O   UNL     1     -11.409  11.869  67.950  1.00  0.00    -0.248 OA 
HETATM   30  C   UNL     1      -9.950  10.241  65.866  1.00  0.00    -0.321 C  
HETATM   31  H   UNL     1     -11.604  11.320  67.199  1.00  0.00     0.000 HD 
HETATM   32  C   UNL     1     -10.397  11.367  64.966  1.00  0.00    -0.342 A  
HETATM   33  C   UNL     1     -11.130  11.139  63.818  1.00  0.00    -0.157 A  
HETATM   34  C   UNL     1     -11.815  12.170  63.189  1.00  0.00    -0.320 A  
HETATM   35  C   UNL     1     -11.796  13.484  63.736  1.00  0.00    -0.381 A  
HETATM   36  O   UNL     1     -12.659  14.421  63.259  1.00  0.00    -1.043 OA 
HETATM   37  C   UNL     1     -10.962  13.748  64.820  1.00  0.00    -0.392 A  
HETATM   38  H   UNL     1     -12.647  15.298  63.623  1.00  0.00     0.000 HD 
HETATM   39  C   UNL     1     -10.214  12.730  65.428  1.00  0.00    -0.299 A  
HETATM   40  C   UNL     1      -9.635  13.189  66.738  1.00  0.00    -0.249 C  
HETATM   41  C   UNL     1     -10.619  14.442  66.883  1.00  0.00    -0.278 C  
HETATM   42  C   UNL     1      -7.865  13.060  67.068  1.00  0.00     0.015 C  
HETATM   43  O   UNL     1     -10.908  14.928  65.544  1.00  0.00    -0.317 OA 
HETATM   44  C   UNL     1      -7.352  11.593  67.974  1.00  0.00    -0.089 C  
HETATM   45  N   UNL     1      -8.177  10.377  67.782  1.00  0.00    -0.110 NA 
BRANCH  45  46
HETATM   46  C   UNL     1      -8.773   9.651  68.891  1.00  0.00    -0.132 C  
BRANCH  46  47
HETATM   47  C   UNL     1      -7.989   9.692  70.160  1.00  0.00    -0.189 C  
HETATM   48  C   UNL     1      -8.051   8.731  71.089  1.00  0.00    -0.192 C  
ENDBRANCH  46  47
ENDBRANCH  45  46
ENDBRANCH  23  24
ENDBRANCH  22  23
ENDBRANCH  21  22
ENDBRANCH  20  21
ENDBRANCH  19  20
ENDBRANCH  18  19
ENDBRANCH  17  18
ENDBRANCH  16  17
ENDBRANCH  15  16
ENDBRANCH  14  15
ENDBRANCH  13  14
ENDBRANCH  12  13
ENDBRANCH  11  12
ENDBRANCH  10  11
ENDBRANCH   9  10
ENDBRANCH   8   9
ENDBRANCH   7   8
ENDBRANCH   6   7
ENDBRANCH   5   6
ENDBRANCH   4   5
ENDBRANCH   3   4
ENDBRANCH   2   3
TORSDOF 24
ENDMDL
MODEL       36
REMARK 921   NORMALIZED FREE ENERGY PREDICTED BY IDOCK:   -5.04 KCAL/MOL
REMARK 922        TOTAL FREE ENERGY PREDICTED BY IDOCK:  -14.40 KCAL/MOL
REMARK 923 INTER-LIGAND FREE ENERGY PREDICTED BY IDOCK:  -11.64 KCAL/MOL
REMARK 924 INTRA-LIGAND FREE ENERGY PREDICTED BY IDOCK:   -2.76 KCAL/MOL
REMARK 927      BINDING AFFINITY PREDICTED BY RF-SCORE:    0.00 PKD
ROOT
HETATM    1  C   UNL     1     -13.793   9.444  72.373  1.00  0.00    -0.352 C  
HETATM    2  O   UNL     1     -13.070   9.367  71.151  1.00  0.00    -0.307 OA 
ENDROOT
BRANCH   2   3
HETATM    3  C   UNL     1     -12.371  10.581  70.885  1.00  0.00    -0.390 C  
BRANCH   3   4
HETATM    4  C   UNL     1     -11.272  10.315  69.866  1.00  0.00    -0.299 C  
BRANCH   4   5
HETATM    5  O   UNL     1     -10.694   9.038  70.130  1.00  0.00    -0.220 OA 
BRANCH   5   6
HETATM    6  C   UNL     1      -9.373   9.173  70.646  1.00  0.00    -0.258 C  
BRANCH   6   7
HETATM    7  C   UNL     1      -9.185   8.219  71.814  1.00  0.00    -0.198 C  
BRANCH   7   8
HETATM    8  O   UNL     1     -10.230   8.452  72.756  1.00  0.00    -0.292 OA 
BRANCH   8   9
HETATM    9  C   UNL     1     -10.996   7.274  72.981  1.00  0.00    -0.344 C  
BRANCH   9  10
HETATM   10  C   UNL     1     -10.088   6.198  73.550  1.00  0.00    -0.210 C  
BRANCH  10  11
HETATM   11  O   UNL     1     -10.733   4.940  73.403  1.00  0.00    -0.212 OA 
BRANCH  11  12
HETATM   12  C   UNL     1      -9.841   3.960  72.883  1.00  0.00    -0.139 C  
BRANCH  12  13
HETATM   13  C   UNL     1      -9.951   3.962  71.368  1.00  0.00    -0.127 C  
BRANCH  13  14
HETATM   14  O   UNL     1      -8.707   4.354  70.806  1.00  0.00    -0.088 OA 
BRANCH  14  15
HETATM   15  C   UNL     1      -8.882   5.473  69.946  1.00  0.00    -0.127 C  
BRANCH  15  16
HETATM   16  C   UNL     1     -10.338   5.589  69.528  1.00  0.00    -0.287 C  
BRANCH  16  17
HETATM   17  O   UNL     1     -10.395   5.400  68.120  1.00  0.00    -0.179 OA 
BRANCH  17  18
HETATM   18  C   UNL     1     -10.747   6.587  67.428  1.00  0.00    -0.340 C  
BRANCH  18  19
HETATM   19  C   UNL     1      -9.519   7.065  66.677  1.00  0.00    -0.165 C  
BRANCH  19  20
HETATM   20  O   UNL     1      -9.185   8.382  67.091  1.00  0.00    -0.137 OA 
BRANCH  20  21
HETATM   21  C   UNL     1      -7.791   8.517  67.363  1.00  0.00    -0.098 C  
BRANCH  21  22
HETATM   22  C   UNL     1      -7.197   9.707  66.601  1.00  0.00    -0.086 C  
BRANCH  22  23
HETATM   23  O   UNL     1      -7.202  10.973  67.309  1.00  0.00    -0.091 OA 
BRANCH  23  24
HETATM   24  C   UNL     1      -8.516  11.440  67.701  1.00  0.00    -0.130 C  
HETATM   25  C   UNL     1      -8.399  12.483  68.777  1.00  0.00     0.134 C  
HETATM   26  C   UNL     1      -8.310  14.022  68.231  1.00  0.00    -0.162 C  
HETATM   27  C   UNL     1      -9.387  14.552  67.102  1.00  0.00    -0.218 C  
HETATM   28  C   UNL     1     -10.690  15.593  67.134  1.00  0.00    -0.314 C  
HETATM   29  O   UNL     1      -8.574  14.855  65.960  1.00  0.00    -0.356 OA 
HETATM   30  C   UNL     1     -11.399  15.911  65.814  1.00  0.00     0.164 C  
HETATM   31  H   UNL     1      -9.196  15.160  65.309  1.00  0.00     0.000 HD 
HETATM   32  C   UNL     1     -11.659  14.555  65.205  1.00  0.00    -0.371 A  
HETATM   33  C   UNL     1     -12.248  14.410  63.964  1.00  0.00    -0.300 A  
HETATM   34  C   UNL     1     -12.178  13.209  63.274  1.00  0.00    -0.438 A  
HETATM   35  C   UNL     1     -11.468  12.104  63.824  1.00  0.00    -0.465 A  
HETATM   36  O   UNL     1     -11.198  11.025  63.041  1.00  0.00    -0.762 OA 
HETATM   37  C   UNL     1     -10.978  12.202  65.124  1.00  0.00    -0.310 A  
HETATM   38  H   UNL     1     -10.725  10.287  63.408  1.00  0.00     0.000 HD 
HETATM   39  C   UNL     1     -11.097  13.388  65.860  1.00  0.00    -0.293 A  
HETATM   40  C   UNL     1     -10.245  13.349  67.098  1.00  0.00    -0.247 C  
HETATM   41  C   UNL     1      -9.336  12.134  66.591  1.00  0.00    -0.226 C  
HETATM   42  C   UNL     1     -10.956  13.662  68.727  1.00  0.00    -0.292 C  
HETATM   43  O   UNL     1     -10.171  11.276  65.766  1.00  0.00    -0.234 OA 
HETATM   44  C   UNL     1     -10.799  15.351  69.328  1.00  0.00    -0.253 C  
HETATM   45  N   UNL     1     -10.763  16.417  68.298  1.00  0.00    -0.322 NA 
BRANCH  45  46
HETATM   46  C   UNL     1      -9.688  17.390  68.215  1.00  0.00    -0.299 C  
BRANCH  46  47
HETATM   47  C   UNL     1     -10.097  18.801  68.479  1.00  0.00    -0.444 C  
HETATM   48  C   UNL     1     -10.062  19.758  67.546  1.00  0.00    -0.554 C  
ENDBRANCH  46  47
ENDBRANCH  45  46
ENDBRANCH  23  24
ENDBRANCH  22  23
ENDBRANCH  21  22
ENDBRANCH  20  21
ENDBRANCH  19  20
ENDBRANCH  18  19
ENDBRANCH  17  18
ENDBRANCH  16  17
ENDBRANCH  15  16
ENDBRANCH  14  15
ENDBRANCH  13  14
ENDBRANCH  12  13
ENDBRANCH  11  12
ENDBRANCH  10  11
ENDBRANCH   9  10
ENDBRANCH   8   9
ENDBRANCH   7   8
ENDBRANCH   6   7
ENDBRANCH   5   6
ENDBRANCH   4   5
ENDBRANCH   3   4
ENDBRANCH   2   3
TORSDOF 24
ENDMDL
MODEL       37
REMARK 921   NORMALIZED FREE ENERGY PREDICTED BY IDOCK:   -5.03 KCAL/MOL
REMARK 922        TOTAL FREE ENERGY PREDICTED BY IDOCK:  -14.37 KCAL/MOL
REMARK 923 INTER-LIGAND FREE ENERGY PREDICTED BY IDOCK:  -11.58 KCAL/MOL
REMARK 924 INTRA-LIGAND FREE ENERGY PREDICTED BY IDOCK:   -2.79 KCAL/MOL
REMARK 927      BINDING AFFINITY PREDICTED BY RF-SCORE:    0.00 PKD
ROOT
HETATM    1  C   UNL     1     -10.223   1.860  63.301  1.00  0.00    -0.127 C  
HETATM    2  O   UNL     1      -9.655   2.347  64.509  1.00  0.00    -0.142 OA 
ENDROOT
BRANCH   2   3
HETATM    3  C   UNL     1      -9.495   3.764  64.472  1.00  0.00    -0.163 C  
BRANCH   3   4
HETATM    4  C   UNL     1     -10.369   4.396  65.546  1.00  0.00    -0.224 C  
BRANCH   4   5
HETATM    5  O   UNL     1      -9.531   4.958  66.556  1.00  0.00    -0.132 OA 
BRANCH   5   6
HETATM    6  C   UNL     1      -9.293   4.019  67.600  1.00  0.00    -0.181 C  
BRANCH   6   7
HETATM    7  C   UNL     1      -9.025   4.762  68.898  1.00  0.00    -0.108 C  
BRANCH   7   8
HETATM    8  O   UNL     1     -10.252   4.872  69.615  1.00  0.00    -0.243 OA 
BRANCH   8   9
HETATM    9  C   UNL     1     -10.096   4.480  70.974  1.00  0.00    -0.152 C  
BRANCH   9  10
HETATM   10  C   UNL     1     -10.112   5.722  71.848  1.00  0.00    -0.185 C  
BRANCH  10  11
HETATM   11  O   UNL     1     -11.054   6.640  71.309  1.00  0.00    -0.247 OA 
BRANCH  11  12
HETATM   12  C   UNL     1     -10.601   7.983  71.439  1.00  0.00    -0.216 C  
BRANCH  12  13
HETATM   13  C   UNL     1      -9.993   8.419  70.118  1.00  0.00    -0.187 C  
BRANCH  13  14
HETATM   14  O   UNL     1     -10.886   8.098  69.060  1.00  0.00    -0.133 OA 
BRANCH  14  15
HETATM   15  C   UNL     1     -10.210   8.145  67.809  1.00  0.00    -0.228 C  
BRANCH  15  16
HETATM   16  C   UNL     1      -8.784   8.629  68.004  1.00  0.00    -0.141 C  
BRANCH  16  17
HETATM   17  O   UNL     1      -8.389   9.289  66.808  1.00  0.00    -0.120 OA 
BRANCH  17  18
HETATM   18  C   UNL     1      -7.914   8.387  65.823  1.00  0.00    -0.108 C  
BRANCH  18  19
HETATM   19  C   UNL     1      -8.052   9.063  64.472  1.00  0.00    -0.143 C  
BRANCH  19  20
HETATM   20  O   UNL     1      -9.381   9.538  64.306  1.00  0.00    -0.197 OA 
BRANCH  20  21
HETATM   21  C   UNL     1      -9.481  10.481  63.240  1.00  0.00    -0.325 C  
BRANCH  21  22
HETATM   22  C   UNL     1     -10.447  11.615  63.601  1.00  0.00    -0.429 C  
BRANCH  22  23
HETATM   23  O   UNL     1     -11.080  11.510  64.902  1.00  0.00    -0.284 OA 
BRANCH  23  24
HETATM   24  C   UNL     1     -10.292  12.031  66.000  1.00  0.00    -0.238 C  
HETATM   25  C   UNL     1      -9.682  13.352  65.624  1.00  0.00    -0.103 C  
HETATM   26  C   UNL     1     -10.589  14.658  66.009  1.00  0.00    -0.314 C  
HETATM   27  C   UNL     1     -11.233  14.789  67.520  1.00  0.00    -0.332 C  
HETATM   28  C   UNL     1     -10.909  15.748  68.845  1.00  0.00    -0.260 C  
HETATM   29  O   UNL     1     -12.650  14.761  67.297  1.00  0.00    -0.379 OA 
HETATM   30  C   UNL     1     -11.824  15.632  70.068  1.00  0.00    -0.381 C  
HETATM   31  H   UNL     1     -13.021  14.836  68.169  1.00  0.00     0.000 HD 
HETATM   32  C   UNL     1     -11.888  14.148  70.334  1.00  0.00    -0.367 A  
HETATM   33  C   UNL     1     -12.668  13.618  71.344  1.00  0.00    -0.437 A  
HETATM   34  C   UNL     1     -12.985  12.268  71.370  1.00  0.00    -0.354 A  
HETATM   35  C   UNL     1     -12.533  11.403  70.334  1.00  0.00    -0.261 A  
HETATM   36  O   UNL     1     -13.048  10.148  70.236  1.00  0.00    -0.586 OA 
HETATM   37  C   UNL     1     -11.648  11.902  69.381  1.00  0.00    -0.325 A  
HETATM   38  H   UNL     1     -12.746   9.570  69.544  1.00  0.00     0.000 HD 
HETATM   39  C   UNL     1     -11.266  13.251  69.379  1.00  0.00    -0.220 A  
HETATM   40  C   UNL     1     -10.555  13.613  68.103  1.00  0.00    -0.255 C  
HETATM   41  C   UNL     1     -11.075  12.332  67.298  1.00  0.00    -0.275 C  
HETATM   42  C   UNL     1      -8.921  14.378  68.135  1.00  0.00    -0.185 C  
HETATM   43  O   UNL     1     -11.204  11.240  68.248  1.00  0.00    -0.222 OA 
HETATM   44  C   UNL     1      -8.905  16.173  68.017  1.00  0.00    -0.181 C  
HETATM   45  N   UNL     1     -10.084  16.881  68.570  1.00  0.00    -0.278 NA 
BRANCH  45  46
HETATM   46  C   UNL     1     -10.872  17.819  67.790  1.00  0.00    -0.228 C  
BRANCH  46  47
HETATM   47  C   UNL     1     -10.080  18.697  66.878  1.00  0.00    -0.399 C  
HETATM   48  C   UNL     1     -10.640  19.591  66.057  1.00  0.00    -0.589 C  
ENDBRANCH  46  47
ENDBRANCH  45  46
ENDBRANCH  23  24
ENDBRANCH  22  23
ENDBRANCH  21  22
ENDBRANCH  20  21
ENDBRANCH  19  20
ENDBRANCH  18  19
ENDBRANCH  17  18
ENDBRANCH  16  17
ENDBRANCH  15  16
ENDBRANCH  14  15
ENDBRANCH  13  14
ENDBRANCH  12  13
ENDBRANCH  11  12
ENDBRANCH  10  11
ENDBRANCH   9  10
ENDBRANCH   8   9
ENDBRANCH   7   8
ENDBRANCH   6   7
ENDBRANCH   5   6
ENDBRANCH   4   5
ENDBRANCH   3   4
ENDBRANCH   2   3
TORSDOF 24
ENDMDL
MODEL       38
REMARK 921   NORMALIZED FREE ENERGY PREDICTED BY IDOCK:   -4.92 KCAL/MOL
REMARK 922        TOTAL FREE ENERGY PREDICTED BY IDOCK:  -14.11 KCAL/MOL
REMARK 923 INTER-LIGAND FREE ENERGY PREDICTED BY IDOCK:  -11.43 KCAL/MOL
REMARK 924 INTRA-LIGAND FREE ENERGY PREDICTED BY IDOCK:   -2.68 KCAL/MOL
REMARK 927      BINDING AFFINITY PREDICTED BY RF-SCORE:    0.00 PKD
ROOT
HETATM    1  C   UNL     1      -6.703   8.364  72.635  1.00  0.00    -0.088 C  
HETATM    2  O   UNL     1      -8.039   8.671  73.010  1.00  0.00    -0.394 OA 
ENDROOT
BRANCH   2   3
HETATM    3  C   UNL     1      -8.443   7.918  74.152  1.00  0.00    -0.256 C  
BRANCH   3   4
HETATM    4  C   UNL     1      -9.839   7.361  73.919  1.00  0.00    -0.225 C  
BRANCH   4   5
HETATM    5  O   UNL     1     -10.458   8.088  72.858  1.00  0.00    -0.329 OA 
BRANCH   5   6
HETATM    6  C   UNL     1     -11.698   7.491  72.487  1.00  0.00    -0.263 C  
BRANCH   6   7
HETATM    7  C   UNL     1     -11.573   6.889  71.097  1.00  0.00    -0.319 C  
BRANCH   7   8
HETATM    8  O   UNL     1     -11.338   7.945  70.168  1.00  0.00    -0.214 OA 
BRANCH   8   9
HETATM    9  C   UNL     1     -10.395   7.561  69.175  1.00  0.00    -0.212 C  
BRANCH   9  10
HETATM   10  C   UNL     1     -10.817   6.226  68.587  1.00  0.00    -0.333 C  
BRANCH  10  11
HETATM   11  O   UNL     1     -11.208   6.431  67.236  1.00  0.00    -0.364 OA 
BRANCH  11  12
HETATM   12  C   UNL     1     -10.967   5.273  66.446  1.00  0.00     0.017 C  
BRANCH  12  13
HETATM   13  C   UNL     1      -9.657   4.648  66.892  1.00  0.00    -0.181 C  
BRANCH  13  14
HETATM   14  O   UNL     1      -9.052   3.985  65.791  1.00  0.00    -0.129 OA 
BRANCH  14  15
HETATM   15  C   UNL     1      -9.853   4.130  64.624  1.00  0.00    -0.178 C  
BRANCH  15  16
HETATM   16  C   UNL     1      -8.990   4.552  63.447  1.00  0.00    -0.131 C  
BRANCH  16  17
HETATM   17  O   UNL     1      -7.833   5.189  63.972  1.00  0.00    -0.082 OA 
BRANCH  17  18
HETATM   18  C   UNL     1      -7.924   6.603  63.922  1.00  0.00    -0.075 C  
BRANCH  18  19
HETATM   19  C   UNL     1      -7.259   7.153  65.170  1.00  0.00    -0.073 C  
BRANCH  19  20
HETATM   20  O   UNL     1      -8.213   7.856  65.954  1.00  0.00    -0.111 OA 
BRANCH  20  21
HETATM   21  C   UNL     1      -8.898   8.851  65.194  1.00  0.00    -0.166 C  
BRANCH  21  22
HETATM   22  C   UNL     1     -10.111   9.387  65.961  1.00  0.00    -0.231 C  
BRANCH  22  23
HETATM   23  O   UNL     1     -10.348  10.813  65.845  1.00  0.00    -0.254 OA 
BRANCH  23  24
HETATM   24  C   UNL     1      -9.767  11.610  66.906  1.00  0.00    -0.195 C  
HETATM   25  C   UNL     1      -9.194  12.883  66.348  1.00  0.00    -0.144 C  
HETATM   26  C   UNL     1     -10.231  14.149  66.330  1.00  0.00    -0.292 C  
HETATM   27  C   UNL     1     -11.099  14.513  67.682  1.00  0.00    -0.304 C  
HETATM   28  C   UNL     1     -11.038  15.740  68.811  1.00  0.00    -0.321 C  
HETATM   29  O   UNL     1     -12.462  14.309  67.286  1.00  0.00    -0.589 OA 
HETATM   30  C   UNL     1     -12.114  15.780  69.900  1.00  0.00    -0.315 C  
HETATM   31  H   UNL     1     -12.963  14.519  68.066  1.00  0.00     0.000 HD 
HETATM   32  C   UNL     1     -12.121  14.378  70.457  1.00  0.00    -0.404 A  
HETATM   33  C   UNL     1     -13.006  13.986  71.443  1.00  0.00    -0.427 A  
HETATM   34  C   UNL     1     -13.235  12.643  71.706  1.00  0.00    -0.457 A  
HETATM   35  C   UNL     1     -12.579  11.638  70.941  1.00  0.00    -0.313 A  
HETATM   36  O   UNL     1     -12.992  10.346  71.039  1.00  0.00    -0.368 OA 
HETATM   37  C   UNL     1     -11.597  12.022  70.031  1.00  0.00    -0.195 A  
HETATM   38  H   UNL     1     -12.554   9.674  70.528  1.00  0.00     0.000 HD 
HETATM   39  C   UNL     1     -11.307  13.373  69.799  1.00  0.00    -0.150 A  
HETATM   40  C   UNL     1     -10.440  13.543  68.582  1.00  0.00    -0.242 C  
HETATM   41  C   UNL     1     -10.751  12.086  67.998  1.00  0.00    -0.212 C  
HETATM   42  C   UNL     1      -8.882  14.449  68.669  1.00  0.00    -0.167 C  
HETATM   43  O   UNL     1     -10.948  11.194  69.129  1.00  0.00    -0.214 OA 
HETATM   44  C   UNL     1      -8.965  16.179  68.184  1.00  0.00    -0.185 C  
HETATM   45  N   UNL     1     -10.256  16.868  68.418  1.00  0.00    -0.301 NA 
BRANCH  45  46
HETATM   46  C   UNL     1     -10.979  17.557  67.363  1.00  0.00    -0.050 C  
BRANCH  46  47
HETATM   47  C   UNL     1     -10.128  18.381  66.454  1.00  0.00    -0.420 C  
HETATM   48  C   UNL     1     -10.561  19.500  65.863  1.00  0.00    -0.572 C  
ENDBRANCH  46  47
ENDBRANCH  45  46
ENDBRANCH  23  24
ENDBRANCH  22  23
ENDBRANCH  21  22
ENDBRANCH  20  21
ENDBRANCH  19  20
ENDBRANCH  18  19
ENDBRANCH  17  18
ENDBRANCH  16  17
ENDBRANCH  15  16
ENDBRANCH  14  15
ENDBRANCH  13  14
ENDBRANCH  12  13
ENDBRANCH  11  12
ENDBRANCH  10  11
ENDBRANCH   9  10
ENDBRANCH   8   9
ENDBRANCH   7   8
ENDBRANCH   6   7
ENDBRANCH   5   6
ENDBRANCH   4   5
ENDBRANCH   3   4
ENDBRANCH   2   3
TORSDOF 24
ENDMDL
MODEL       39
REMARK 921   NORMALIZED FREE ENERGY PREDICTED BY IDOCK:   -4.91 KCAL/MOL
REMARK 922        TOTAL FREE ENERGY PREDICTED BY IDOCK:  -14.09 KCAL/MOL
REMARK 923 INTER-LIGAND FREE ENERGY PREDICTED BY IDOCK:  -11.03 KCAL/MOL
REMARK 924 INTRA-LIGAND FREE ENERGY PREDICTED BY IDOCK:   -3.06 KCAL/MOL
REMARK 927      BINDING AFFINITY PREDICTED BY RF-SCORE:    0.00 PKD
ROOT
HETATM    1  C   UNL     1     -12.183  12.169  63.570  1.00  0.00    -0.567 C  
HETATM    2  O   UNL     1     -12.505  13.550  63.664  1.00  0.00    -0.718 OA 
ENDROOT
BRANCH   2   3
HETATM    3  C   UNL     1     -12.031  14.111  64.887  1.00  0.00    -0.417 C  
BRANCH   3   4
HETATM    4  C   UNL     1     -11.376  15.455  64.604  1.00  0.00    -0.355 C  
BRANCH   4   5
HETATM    5  O   UNL     1     -10.315  15.660  65.536  1.00  0.00    -0.342 OA 
BRANCH   5   6
HETATM    6  C   UNL     1     -10.334  16.991  66.045  1.00  0.00    -0.315 C  
BRANCH   6   7
HETATM    7  C   UNL     1     -10.467  16.954  67.558  1.00  0.00    -0.328 C  
BRANCH   7   8
HETATM    8  O   UNL     1      -9.341  16.262  68.092  1.00  0.00    -0.205 OA 
BRANCH   8   9
HETATM    9  C   UNL     1      -9.703  15.472  69.218  1.00  0.00    -0.272 C  
BRANCH   9  10
HETATM   10  C   UNL     1     -10.681  14.400  68.772  1.00  0.00    -0.252 C  
BRANCH  10  11
HETATM   11  O   UNL     1      -9.969  13.424  68.022  1.00  0.00    -0.225 OA 
BRANCH  11  12
HETATM   12  C   UNL     1     -10.304  12.106  68.438  1.00  0.00    -0.229 C  
BRANCH  12  13
HETATM   13  C   UNL     1     -11.649  11.736  67.838  1.00  0.00    -0.307 C  
BRANCH  13  14
HETATM   14  O   UNL     1     -12.373  10.935  68.761  1.00  0.00    -0.495 OA 
BRANCH  14  15
HETATM   15  C   UNL     1     -11.992  11.250  70.095  1.00  0.00    -0.369 C  
BRANCH  15  16
HETATM   16  C   UNL     1     -12.591  10.243  71.061  1.00  0.00    -0.390 C  
BRANCH  16  17
HETATM   17  O   UNL     1     -11.516   9.528  71.656  1.00  0.00    -0.381 OA 
BRANCH  17  18
HETATM   18  C   UNL     1     -11.944   8.335  72.292  1.00  0.00    -0.386 C  
BRANCH  18  19
HETATM   19  C   UNL     1     -10.707   7.587  72.751  1.00  0.00    -0.330 C  
BRANCH  19  20
HETATM   20  O   UNL     1     -10.833   6.208  72.431  1.00  0.00    -0.220 OA 
BRANCH  20  21
HETATM   21  C   UNL     1      -9.698   5.721  71.717  1.00  0.00    -0.156 C  
BRANCH  21  22
HETATM   22  C   UNL     1     -10.091   5.273  70.305  1.00  0.00    -0.259 C  
BRANCH  22  23
HETATM   23  O   UNL     1     -11.303   5.866  69.772  1.00  0.00    -0.371 OA 
BRANCH  23  24
HETATM   24  C   UNL     1     -11.143   6.519  68.490  1.00  0.00    -0.265 C  
HETATM   25  C   UNL     1     -10.703   7.943  68.681  1.00  0.00    -0.073 C  
HETATM   26  C   UNL     1      -9.081   8.162  68.692  1.00  0.00    -0.143 C  
HETATM   27  C   UNL     1      -8.157   7.482  67.510  1.00  0.00    -0.113 C  
HETATM   28  C   UNL     1      -7.322   8.079  66.196  1.00  0.00    -0.074 C  
HETATM   29  O   UNL     1      -7.320   6.553  68.214  1.00  0.00    -0.082 OA 
HETATM   30  C   UNL     1      -6.478   7.106  65.367  1.00  0.00    -0.047 C  
HETATM   31  H   UNL     1      -6.787   6.161  67.531  1.00  0.00     0.000 HD 
HETATM   32  C   UNL     1      -7.418   5.961  65.080  1.00  0.00    -0.079 A  
HETATM   33  C   UNL     1      -7.013   4.837  64.387  1.00  0.00    -0.050 A  
HETATM   34  C   UNL     1      -7.760   3.668  64.419  1.00  0.00    -0.081 A  
HETATM   35  C   UNL     1      -8.952   3.598  65.195  1.00  0.00    -0.133 A  
HETATM   36  O   UNL     1      -9.537   2.390  65.416  1.00  0.00    -0.351 OA 
HETATM   37  C   UNL     1      -9.431   4.759  65.796  1.00  0.00    -0.167 A  
HETATM   38  H   UNL     1     -10.332   2.342  65.933  1.00  0.00     0.000 HD 
HETATM   39  C   UNL     1      -8.721   5.965  65.719  1.00  0.00    -0.153 A  
HETATM   40  C   UNL     1      -9.273   6.984  66.678  1.00  0.00    -0.189 C  
HETATM   41  C   UNL     1     -10.067   5.912  67.562  1.00  0.00    -0.165 C  
HETATM   42  C   UNL     1      -9.779   8.620  66.107  1.00  0.00    -0.292 C  
HETATM   43  O   UNL     1     -10.500   4.846  66.673  1.00  0.00    -0.262 OA 
HETATM   44  C   UNL     1      -8.545   9.917  66.285  1.00  0.00    -0.128 C  
HETATM   45  N   UNL     1      -7.127   9.493  66.210  1.00  0.00    -0.091 NA 
BRANCH  45  46
HETATM   46  C   UNL     1      -6.164   9.793  67.254  1.00  0.00    -0.067 C  
BRANCH  46  47
HETATM   47  C   UNL     1      -6.616  10.805  68.254  1.00  0.00    -0.058 C  
HETATM   48  C   UNL     1      -6.503  10.628  69.575  1.00  0.00    -0.078 C  
ENDBRANCH  46  47
ENDBRANCH  45  46
ENDBRANCH  23  24
ENDBRANCH  22  23
ENDBRANCH  21  22
ENDBRANCH  20  21
ENDBRANCH  19  20
ENDBRANCH  18  19
ENDBRANCH  17  18
ENDBRANCH  16  17
ENDBRANCH  15  16
ENDBRANCH  14  15
ENDBRANCH  13  14
ENDBRANCH  12  13
ENDBRANCH  11  12
ENDBRANCH  10  11
ENDBRANCH   9  10
ENDBRANCH   8   9
ENDBRANCH   7   8
ENDBRANCH   6   7
ENDBRANCH   5   6
ENDBRANCH   4   5
ENDBRANCH   3   4
ENDBRANCH   2   3
TORSDOF 24
ENDMDL
MODEL       40
REMARK 921   NORMALIZED FREE ENERGY PREDICTED BY IDOCK:   -4.90 KCAL/MOL
REMARK 922        TOTAL FREE ENERGY PREDICTED BY IDOCK:  -14.06 KCAL/MOL
REMARK 923 INTER-LIGAND FREE ENERGY PREDICTED BY IDOCK:  -12.01 KCAL/MOL
REMARK 924 INTRA-LIGAND FREE ENERGY PREDICTED BY IDOCK:   -2.05 KCAL/MOL
REMARK 927      BINDING AFFINITY PREDICTED BY RF-SCORE:    0.00 PKD
ROOT
HETATM    1  C   UNL     1     -12.746  15.431  70.654  1.00  0.00    -0.437 C  
HETATM    2  O   UNL     1     -11.397  15.760  70.354  1.00  0.00    -0.310 OA 
ENDROOT
BRANCH   2   3
HETATM    3  C   UNL     1     -11.250  16.157  68.992  1.00  0.00    -0.347 C  
BRANCH   3   4
HETATM    4  C   UNL     1     -10.461  17.457  68.929  1.00  0.00    -0.312 C  
BRANCH   4   5
HETATM    5  O   UNL     1     -10.342  17.863  67.567  1.00  0.00    -0.346 OA 
BRANCH   5   6
HETATM    6  C   UNL     1     -10.859  19.178  67.379  1.00  0.00    -0.435 C  
BRANCH   6   7
HETATM    7  C   UNL     1     -10.057  19.888  66.301  1.00  0.00    -0.502 C  
BRANCH   7   8
HETATM    8  O   UNL     1      -8.967  19.050  65.925  1.00  0.00    -0.448 OA 
BRANCH   8   9
HETATM    9  C   UNL     1      -7.728  19.746  66.001  1.00  0.00    -0.332 C  
BRANCH   9  10
HETATM   10  C   UNL     1      -7.583  20.340  67.391  1.00  0.00    -0.314 C  
BRANCH  10  11
HETATM   11  O   UNL     1      -6.948  19.382  68.227  1.00  0.00    -0.263 OA 
BRANCH  11  12
HETATM   12  C   UNL     1      -5.891  18.719  67.543  1.00  0.00    -0.170 C  
BRANCH  12  13
HETATM   13  C   UNL     1      -5.835  17.278  68.019  1.00  0.00    -0.124 C  
BRANCH  13  14
HETATM   14  O   UNL     1      -7.120  16.884  68.479  1.00  0.00    -0.178 OA 
BRANCH  14  15
HETATM   15  C   UNL     1      -7.468  15.611  67.946  1.00  0.00    -0.133 C  
BRANCH  15  16
HETATM   16  C   UNL     1      -8.068  15.772  66.560  1.00  0.00    -0.196 C  
BRANCH  16  17
HETATM   17  O   UNL     1      -9.045  14.752  66.397  1.00  0.00    -0.271 OA 
BRANCH  17  18
HETATM   18  C   UNL     1     -10.127  15.165  65.579  1.00  0.00    -0.370 C  
BRANCH  18  19
HETATM   19  C   UNL     1     -10.921  13.928  65.204  1.00  0.00    -0.350 C  
BRANCH  19  20
HETATM   20  O   UNL     1     -10.554  12.846  66.049  1.00  0.00    -0.264 OA 
BRANCH  20  21
HETATM   21  C   UNL     1     -11.604  12.493  66.948  1.00  0.00    -0.370 C  
BRANCH  21  22
HETATM   22  C   UNL     1     -11.049  12.180  68.342  1.00  0.00    -0.245 C  
BRANCH  22  23
HETATM   23  O   UNL     1     -10.170  11.029  68.424  1.00  0.00    -0.171 OA 
BRANCH  23  24
HETATM   24  C   UNL     1     -10.814   9.758  68.163  1.00  0.00    -0.214 C  
HETATM   25  C   UNL     1     -10.224   9.116  66.939  1.00  0.00    -0.336 C  
HETATM   26  C   UNL     1      -8.965   8.112  67.232  1.00  0.00    -0.149 C  
HETATM   27  C   UNL     1      -9.088   6.972  68.415  1.00  0.00    -0.127 C  
HETATM   28  C   UNL     1      -9.245   5.312  68.421  1.00  0.00    -0.113 C  
HETATM   29  O   UNL     1      -8.085   7.351  69.368  1.00  0.00    -0.124 OA 
HETATM   30  C   UNL     1      -9.227   4.584  69.768  1.00  0.00    -0.191 C  
HETATM   31  H   UNL     1      -8.156   6.693  70.051  1.00  0.00     0.000 HD 
HETATM   32  C   UNL     1     -10.231   5.340  70.603  1.00  0.00    -0.327 A  
HETATM   33  C   UNL     1     -10.474   5.019  71.925  1.00  0.00    -0.255 A  
HETATM   34  C   UNL     1     -11.129   5.905  72.768  1.00  0.00    -0.321 A  
HETATM   35  C   UNL     1     -11.541   7.182  72.290  1.00  0.00    -0.271 A  
HETATM   36  O   UNL     1     -11.955   8.127  73.175  1.00  0.00    -0.600 OA 
HETATM   37  C   UNL     1     -11.411   7.463  70.932  1.00  0.00    -0.276 A  
HETATM   38  H   UNL     1     -12.230   8.979  72.857  1.00  0.00     0.000 HD 
HETATM   39  C   UNL     1     -10.809   6.552  70.054  1.00  0.00    -0.342 A  
HETATM   40  C   UNL     1     -10.517   7.190  68.723  1.00  0.00    -0.217 C  
HETATM   41  C   UNL     1     -10.650   8.689  69.267  1.00  0.00    -0.192 C  
HETATM   42  C   UNL     1     -11.118   6.456  67.188  1.00  0.00    -0.422 C  
HETATM   43  O   UNL     1     -11.649   8.685  70.322  1.00  0.00    -0.155 OA 
HETATM   44  C   UNL     1      -9.946   5.396  66.327  1.00  0.00    -0.170 C  
HETATM   45  N   UNL     1      -8.956   4.685  67.171  1.00  0.00    -0.111 NA 
BRANCH  45  46
HETATM   46  C   UNL     1      -7.524   4.783  66.950  1.00  0.00    -0.086 C  
BRANCH  46  47
HETATM   47  C   UNL     1      -6.826   3.477  66.767  1.00  0.00    -0.054 C  
HETATM   48  C   UNL     1      -7.449   2.366  66.359  1.00  0.00    -0.070 C  
ENDBRANCH  46  47
ENDBRANCH  45  46
ENDBRANCH  23  24
ENDBRANCH  22  23
ENDBRANCH  21  22
ENDBRANCH  20  21
ENDBRANCH  19  20
ENDBRANCH  18  19
ENDBRANCH  17  18
ENDBRANCH  16  17
ENDBRANCH  15  16
ENDBRANCH  14  15
ENDBRANCH  13  14
ENDBRANCH  12  13
ENDBRANCH  11  12
ENDBRANCH  10  11
ENDBRANCH   9  10
ENDBRANCH   8   9
ENDBRANCH   7   8
ENDBRANCH   6   7
ENDBRANCH   5   6
ENDBRANCH   4   5
ENDBRANCH   3   4
ENDBRANCH   2   3
TORSDOF 24
ENDMDL
MODEL       41
REMARK 921   NORMALIZED FREE ENERGY PREDICTED BY IDOCK:   -4.88 KCAL/MOL
REMARK 922        TOTAL FREE ENERGY PREDICTED BY IDOCK:  -14.03 KCAL/MOL
REMARK 923 INTER-LIGAND FREE ENERGY PREDICTED BY IDOCK:  -11.44 KCAL/MOL
REMARK 924 INTRA-LIGAND FREE ENERGY PREDICTED BY IDOCK:   -2.59 KCAL/MOL
REMARK 927      BINDING AFFINITY PREDICTED BY RF-SCORE:    0.00 PKD
ROOT
HETATM    1  C   UNL     1      -6.763  15.148  69.523  1.00  0.00    -0.171 C  
HETATM    2  O   UNL     1      -6.765  14.134  68.527  1.00  0.00    -0.087 OA 
ENDROOT
BRANCH   2   3
HETATM    3  C   UNL     1      -8.095  13.754  68.177  1.00  0.00    -0.155 C  
BRANCH   3   4
HETATM    4  C   UNL     1      -8.044  12.578  67.214  1.00  0.00    -0.179 C  
BRANCH   4   5
HETATM    5  O   UNL     1      -9.302  12.467  66.549  1.00  0.00    -0.234 OA 
BRANCH   5   6
HETATM    6  C   UNL     1     -10.146  11.527  67.207  1.00  0.00    -0.199 C  
BRANCH   6   7
HETATM    7  C   UNL     1     -11.482  12.179  67.524  1.00  0.00    -0.340 C  
BRANCH   7   8
HETATM    8  O   UNL     1     -11.407  13.556  67.160  1.00  0.00    -0.298 OA 
BRANCH   8   9
HETATM    9  C   UNL     1     -12.575  13.972  66.463  1.00  0.00    -0.174 C  
BRANCH   9  10
HETATM   10  C   UNL     1     -12.387  13.696  64.981  1.00  0.00    -0.427 C  
BRANCH  10  11
HETATM   11  O   UNL     1     -13.209  12.593  64.621  1.00  0.00    -0.828 OA 
BRANCH  11  12
HETATM   12  C   UNL     1     -12.592  11.796  63.616  1.00  0.00    -0.344 C  
BRANCH  12  13
HETATM   13  C   UNL     1     -11.128  12.189  63.518  1.00  0.00    -0.452 C  
BRANCH  13  14
HETATM   14  O   UNL     1     -10.322  11.020  63.574  1.00  0.00    -0.352 OA 
BRANCH  14  15
HETATM   15  C   UNL     1      -9.265  11.101  62.626  1.00  0.00    -0.323 C  
BRANCH  15  16
HETATM   16  C   UNL     1      -8.342   9.903  62.769  1.00  0.00    -0.156 C  
BRANCH  16  17
HETATM   17  O   UNL     1      -8.708   9.222  63.962  1.00  0.00    -0.205 OA 
BRANCH  17  18
HETATM   18  C   UNL     1      -7.790   8.195  64.302  1.00  0.00    -0.137 C  
BRANCH  18  19
HETATM   19  C   UNL     1      -7.945   7.081  63.284  1.00  0.00    -0.064 C  
BRANCH  19  20
HETATM   20  O   UNL     1      -8.514   5.937  63.906  1.00  0.00    -0.046 OA 
BRANCH  20  21
HETATM   21  C   UNL     1      -7.576   5.266  64.745  1.00  0.00    -0.083 C  
BRANCH  21  22
HETATM   22  C   UNL     1      -8.294   4.451  65.826  1.00  0.00    -0.113 C  
BRANCH  22  23
HETATM   23  O   UNL     1      -9.288   5.172  66.600  1.00  0.00    -0.127 OA 
BRANCH  23  24
HETATM   24  C   UNL     1      -8.779   5.795  67.804  1.00  0.00    -0.107 C  
HETATM   25  C   UNL     1      -8.952   7.286  67.733  1.00  0.00    -0.126 C  
HETATM   26  C   UNL     1     -10.357   7.842  68.361  1.00  0.00    -0.235 C  
HETATM   27  C   UNL     1     -10.848   7.328  69.847  1.00  0.00    -0.247 C  
HETATM   28  C   UNL     1     -10.940   8.038  71.353  1.00  0.00    -0.234 C  
HETATM   29  O   UNL     1     -12.071   6.625  69.585  1.00  0.00    -0.615 OA 
HETATM   30  C   UNL     1     -11.563   7.235  72.499  1.00  0.00    -0.285 C  
HETATM   31  H   UNL     1     -12.353   6.328  70.443  1.00  0.00     0.000 HD 
HETATM   32  C   UNL     1     -10.848   5.907  72.443  1.00  0.00    -0.288 A  
HETATM   33  C   UNL     1     -11.165   4.868  73.297  1.00  0.00    -0.423 A  
HETATM   34  C   UNL     1     -10.755   3.570  73.028  1.00  0.00    -0.232 A  
HETATM   35  C   UNL     1     -10.019   3.279  71.845  1.00  0.00    -0.139 A  
HETATM   36  O   UNL     1      -9.837   1.984  71.470  1.00  0.00    -0.145 OA 
HETATM   37  C   UNL     1      -9.591   4.335  71.044  1.00  0.00    -0.183 A  
HETATM   38  H   UNL     1      -9.346   1.790  70.681  1.00  0.00     0.000 HD 
HETATM   39  C   UNL     1      -9.942   5.660  71.337  1.00  0.00    -0.237 A  
HETATM   40  C   UNL     1      -9.623   6.575  70.187  1.00  0.00    -0.171 C  
HETATM   41  C   UNL     1      -9.493   5.394  69.115  1.00  0.00    -0.133 C  
HETATM   42  C   UNL     1      -8.601   8.044  70.423  1.00  0.00    -0.131 C  
HETATM   43  O   UNL     1      -8.972   4.228  69.809  1.00  0.00    -0.081 OA 
HETATM   44  C   UNL     1      -9.502   9.578  70.688  1.00  0.00    -0.213 C  
HETATM   45  N   UNL     1     -10.825   9.461  71.346  1.00  0.00    -0.359 NA 
BRANCH  45  46
HETATM   46  C   UNL     1     -12.042   9.997  70.761  1.00  0.00    -0.327 C  
BRANCH  46  47
HETATM   47  C   UNL     1     -12.961  10.668  71.727  1.00  0.00    -0.577 C  
HETATM   48  C   UNL     1     -13.122  11.994  71.782  1.00  0.00    -0.460 C  
ENDBRANCH  46  47
ENDBRANCH  45  46
ENDBRANCH  23  24
ENDBRANCH  22  23
ENDBRANCH  21  22
ENDBRANCH  20  21
ENDBRANCH  19  20
ENDBRANCH  18  19
ENDBRANCH  17  18
ENDBRANCH  16  17
ENDBRANCH  15  16
ENDBRANCH  14  15
ENDBRANCH  13  14
ENDBRANCH  12  13
ENDBRANCH  11  12
ENDBRANCH  10  11
ENDBRANCH   9  10
ENDBRANCH   8   9
ENDBRANCH   7   8
ENDBRANCH   6   7
ENDBRANCH   5   6
ENDBRANCH   4   5
ENDBRANCH   3   4
ENDBRANCH   2   3
TORSDOF 24
ENDMDL
MODEL       42
REMARK 921   NORMALIZED FREE ENERGY PREDICTED BY IDOCK:   -4.88 KCAL/MOL
REMARK 922        TOTAL FREE ENERGY PREDICTED BY IDOCK:  -14.01 KCAL/MOL
REMARK 923 INTER-LIGAND FREE ENERGY PREDICTED BY IDOCK:  -11.78 KCAL/MOL
REMARK 924 INTRA-LIGAND FREE ENERGY PREDICTED BY IDOCK:   -2.23 KCAL/MOL
REMARK 927      BINDING AFFINITY PREDICTED BY RF-SCORE:    0.00 PKD
ROOT
HETATM    1  C   UNL     1     -13.356  15.802  73.128  1.00  0.00    -0.587 C  
HETATM    2  O   UNL     1     -13.542  15.432  71.769  1.00  0.00    -0.433 OA 
ENDROOT
BRANCH   2   3
HETATM    3  C   UNL     1     -12.360  15.662  71.003  1.00  0.00    -0.428 C  
BRANCH   3   4
HETATM    4  C   UNL     1     -12.654  15.397  69.534  1.00  0.00     0.029 C  
BRANCH   4   5
HETATM    5  O   UNL     1     -11.445  15.527  68.787  1.00  0.00    -0.314 OA 
BRANCH   5   6
HETATM    6  C   UNL     1     -10.515  16.368  69.464  1.00  0.00    -0.301 C  
BRANCH   6   7
HETATM    7  C   UNL     1      -9.832  17.280  68.460  1.00  0.00    -0.307 C  
BRANCH   7   8
HETATM    8  O   UNL     1     -10.837  17.919  67.676  1.00  0.00    -0.375 OA 
BRANCH   8   9
HETATM    9  C   UNL     1     -10.363  18.215  66.367  1.00  0.00    -0.394 C  
BRANCH   9  10
HETATM   10  C   UNL     1      -9.994  19.687  66.300  1.00  0.00    -0.466 C  
BRANCH  10  11
HETATM   11  O   UNL     1      -8.581  19.793  66.181  1.00  0.00    -0.360 OA 
BRANCH  11  12
HETATM   12  C   UNL     1      -8.004  20.351  67.356  1.00  0.00    -0.323 C  
BRANCH  12  13
HETATM   13  C   UNL     1      -6.839  19.477  67.785  1.00  0.00    -0.239 C  
BRANCH  13  14
HETATM   14  O   UNL     1      -6.756  18.348  66.926  1.00  0.00    -0.182 OA 
BRANCH  14  15
HETATM   15  C   UNL     1      -6.261  17.220  67.637  1.00  0.00    -0.150 C  
BRANCH  15  16
HETATM   16  C   UNL     1      -6.186  17.529  69.122  1.00  0.00    -0.226 C  
BRANCH  16  17
HETATM   17  O   UNL     1      -5.748  16.349  69.783  1.00  0.00    -0.157 OA 
BRANCH  17  18
HETATM   18  C   UNL     1      -6.503  15.208  69.411  1.00  0.00    -0.136 C  
BRANCH  18  19
HETATM   19  C   UNL     1      -5.602  13.995  69.542  1.00  0.00    -0.088 C  
BRANCH  19  20
HETATM   20  O   UNL     1      -6.353  12.888  70.023  1.00  0.00    -0.095 OA 
BRANCH  20  21
HETATM   21  C   UNL     1      -6.240  11.755  69.164  1.00  0.00    -0.083 C  
BRANCH  21  22
HETATM   22  C   UNL     1      -6.445  10.453  69.946  1.00  0.00    -0.109 C  
BRANCH  22  23
HETATM   23  O   UNL     1      -6.378   9.233  69.164  1.00  0.00    -0.042 OA 
BRANCH  23  24
HETATM   24  C   UNL     1      -7.656   8.588  68.941  1.00  0.00    -0.096 C  
HETATM   25  C   UNL     1      -7.625   7.177  69.457  1.00  0.00    -0.101 C  
HETATM   26  C   UNL     1      -8.114   7.005  71.009  1.00  0.00    -0.105 C  
HETATM   27  C   UNL     1      -9.514   7.716  71.508  1.00  0.00    -0.143 C  
HETATM   28  C   UNL     1     -11.028   7.148  71.916  1.00  0.00    -0.231 C  
HETATM   29  O   UNL     1      -9.089   8.666  72.495  1.00  0.00    -0.322 OA 
HETATM   30  C   UNL     1     -12.063   8.147  72.440  1.00  0.00    -0.406 C  
HETATM   31  H   UNL     1      -9.897   9.076  72.783  1.00  0.00     0.000 HD 
HETATM   32  C   UNL     1     -12.035   9.265  71.427  1.00  0.00    -0.424 A  
HETATM   33  C   UNL     1     -12.806  10.403  71.569  1.00  0.00    -0.569 A  
HETATM   34  C   UNL     1     -12.533  11.549  70.837  1.00  0.00    -0.464 A  
HETATM   35  C   UNL     1     -11.428  11.582  69.939  1.00  0.00    -0.260 A  
HETATM   36  O   UNL     1     -11.025  12.772  69.418  1.00  0.00    -0.432 OA 
HETATM   37  C   UNL     1     -10.723  10.405  69.698  1.00  0.00    -0.265 A  
HETATM   38  H   UNL     1     -10.288  12.795  68.818  1.00  0.00     0.000 HD 
HETATM   39  C   UNL     1     -11.028   9.221  70.383  1.00  0.00    -0.302 A  
HETATM   40  C   UNL     1      -9.958   8.184  70.178  1.00  0.00    -0.187 C  
HETATM   41  C   UNL     1      -8.861   9.229  69.665  1.00  0.00    -0.155 C  
HETATM   42  C   UNL     1     -10.366   6.536  69.565  1.00  0.00    -0.237 C  
HETATM   43  O   UNL     1      -9.562  10.285  68.953  1.00  0.00    -0.171 OA 
HETATM   44  C   UNL     1     -10.590   5.274  70.828  1.00  0.00    -0.186 C  
HETATM   45  N   UNL     1     -11.091   5.739  72.144  1.00  0.00    -0.266 NA 
BRANCH  45  46
HETATM   46  C   UNL     1     -10.395   5.464  73.388  1.00  0.00    -0.216 C  
BRANCH  46  47
HETATM   47  C   UNL     1     -10.713   4.143  74.007  1.00  0.00    -0.310 C  
HETATM   48  C   UNL     1     -10.026   3.027  73.741  1.00  0.00    -0.165 C  
ENDBRANCH  46  47
ENDBRANCH  45  46
ENDBRANCH  23  24
ENDBRANCH  22  23
ENDBRANCH  21  22
ENDBRANCH  20  21
ENDBRANCH  19  20
ENDBRANCH  18  19
ENDBRANCH  17  18
ENDBRANCH  16  17
ENDBRANCH  15  16
ENDBRANCH  14  15
ENDBRANCH  13  14
ENDBRANCH  12  13
ENDBRANCH  11  12
ENDBRANCH  10  11
ENDBRANCH   9  10
ENDBRANCH   8   9
ENDBRANCH   7   8
ENDBRANCH   6   7
ENDBRANCH   5   6
ENDBRANCH   4   5
ENDBRANCH   3   4
ENDBRANCH   2   3
TORSDOF 24
ENDMDL
MODEL       43
REMARK 921   NORMALIZED FREE ENERGY PREDICTED BY IDOCK:   -4.87 KCAL/MOL
REMARK 922        TOTAL FREE ENERGY PREDICTED BY IDOCK:  -13.99 KCAL/MOL
REMARK 923 INTER-LIGAND FREE ENERGY PREDICTED BY IDOCK:  -10.92 KCAL/MOL
REMARK 924 INTRA-LIGAND FREE ENERGY PREDICTED BY IDOCK:   -3.08 KCAL/MOL
REMARK 927      BINDING AFFINITY PREDICTED BY RF-SCORE:    0.00 PKD
ROOT
HETATM    1  C   UNL     1     -13.658   9.223  72.404  1.00  0.00    -0.463 C  
HETATM    2  O   UNL     1     -12.555   8.651  71.715  1.00  0.00    -0.313 OA 
ENDROOT
BRANCH   2   3
HETATM    3  C   UNL     1     -12.858   7.336  71.252  1.00  0.00    -0.346 C  
BRANCH   3   4
HETATM    4  C   UNL     1     -11.987   6.330  71.990  1.00  0.00    -0.300 C  
BRANCH   4   5
HETATM    5  O   UNL     1     -11.092   7.033  72.850  1.00  0.00    -0.282 OA 
BRANCH   5   6
HETATM    6  C   UNL     1      -9.741   6.659  72.596  1.00  0.00    -0.160 C  
BRANCH   6   7
HETATM    7  C   UNL     1      -9.111   7.655  71.637  1.00  0.00    -0.134 C  
BRANCH   7   8
HETATM    8  O   UNL     1      -8.450   6.928  70.603  1.00  0.00    -0.133 OA 
BRANCH   8   9
HETATM    9  C   UNL     1      -9.357   6.546  69.576  1.00  0.00    -0.147 C  
BRANCH   9  10
HETATM   10  C   UNL     1      -8.787   5.348  68.837  1.00  0.00    -0.100 C  
BRANCH  10  11
HETATM   11  O   UNL     1      -9.865   4.521  68.419  1.00  0.00    -0.145 OA 
BRANCH  11  12
HETATM   12  C   UNL     1      -9.602   3.929  67.153  1.00  0.00    -0.189 C  
BRANCH  12  13
HETATM   13  C   UNL     1     -10.379   4.690  66.092  1.00  0.00    -0.275 C  
BRANCH  13  14
HETATM   14  O   UNL     1      -9.816   4.426  64.815  1.00  0.00    -0.167 OA 
BRANCH  14  15
HETATM   15  C   UNL     1      -8.417   4.682  64.827  1.00  0.00    -0.137 C  
BRANCH  15  16
HETATM   16  C   UNL     1      -8.150   6.144  64.515  1.00  0.00    -0.118 C  
BRANCH  16  17
HETATM   17  O   UNL     1      -7.396   6.681  65.595  1.00  0.00    -0.071 OA 
BRANCH  17  18
HETATM   18  C   UNL     1      -6.397   5.786  66.055  1.00  0.00    -0.039 C  
BRANCH  18  19
HETATM   19  C   UNL     1      -5.315   6.609  66.729  1.00  0.00    -0.013 C  
BRANCH  19  20
HETATM   20  O   UNL     1      -5.774   7.061  67.995  1.00  0.00    -0.019 OA 
BRANCH  20  21
HETATM   21  C   UNL     1      -5.207   8.323  68.347  1.00  0.00    -0.033 C  
BRANCH  21  22
HETATM   22  C   UNL     1      -6.299   9.386  68.512  1.00  0.00    -0.052 C  
BRANCH  22  23
HETATM   23  O   UNL     1      -7.077   9.677  67.322  1.00  0.00    -0.084 OA 
BRANCH  23  24
HETATM   24  C   UNL     1      -8.511   9.684  67.526  1.00  0.00    -0.125 C  
HETATM   25  C   UNL     1      -8.839  10.177  68.908  1.00  0.00    -0.154 C  
HETATM   26  C   UNL     1      -9.086  11.790  69.018  1.00  0.00     0.240 C  
HETATM   27  C   UNL     1     -10.085  12.539  67.943  1.00  0.00    -0.214 C  
HETATM   28  C   UNL     1     -11.609  13.210  68.041  1.00  0.00    -0.334 C  
HETATM   29  O   UNL     1      -9.222  13.439  67.234  1.00  0.00    -0.204 OA 
HETATM   30  C   UNL     1     -12.173  13.919  66.806  1.00  0.00    -0.438 C  
HETATM   31  H   UNL     1      -9.799  13.871  66.614  1.00  0.00     0.000 HD 
HETATM   32  C   UNL     1     -11.966  12.925  65.690  1.00  0.00    -0.490 A  
HETATM   33  C   UNL     1     -12.304  13.212  64.381  1.00  0.00    -0.426 A  
HETATM   34  C   UNL     1     -11.812  12.450  63.332  1.00  0.00    -0.571 A  
HETATM   35  C   UNL     1     -10.922  11.367  63.584  1.00  0.00    -0.363 A  
HETATM   36  O   UNL     1     -10.259  10.789  62.546  1.00  0.00    -0.741 OA 
HETATM   37  C   UNL     1     -10.675  10.995  64.903  1.00  0.00    -0.208 A  
HETATM   38  H   UNL     1      -9.666  10.067  62.714  1.00  0.00     0.000 HD 
HETATM   39  C   UNL     1     -11.216  11.716  65.976  1.00  0.00    -0.299 A  
HETATM   40  C   UNL     1     -10.579  11.315  67.278  1.00  0.00    -0.271 C  
HETATM   41  C   UNL     1      -9.312  10.618  66.592  1.00  0.00    -0.165 C  
HETATM   42  C   UNL     1     -11.582  10.774  68.678  1.00  0.00    -0.342 C  
HETATM   43  O   UNL     1      -9.755  10.051  65.329  1.00  0.00    -0.267 OA 
HETATM   44  C   UNL     1     -11.974  12.049  69.886  1.00  0.00    -0.318 C  
HETATM   45  N   UNL     1     -12.072  13.436  69.373  1.00  0.00    -0.299 NA 
BRANCH  45  46
HETATM   46  C   UNL     1     -11.298  14.533  69.927  1.00  0.00    -0.241 C  
BRANCH  46  47
HETATM   47  C   UNL     1     -12.102  15.712  70.363  1.00  0.00    -0.425 C  
HETATM   48  C   UNL     1     -13.055  15.641  71.299  1.00  0.00    -0.542 C  
ENDBRANCH  46  47
ENDBRANCH  45  46
ENDBRANCH  23  24
ENDBRANCH  22  23
ENDBRANCH  21  22
ENDBRANCH  20  21
ENDBRANCH  19  20
ENDBRANCH  18  19
ENDBRANCH  17  18
ENDBRANCH  16  17
ENDBRANCH  15  16
ENDBRANCH  14  15
ENDBRANCH  13  14
ENDBRANCH  12  13
ENDBRANCH  11  12
ENDBRANCH  10  11
ENDBRANCH   9  10
ENDBRANCH   8   9
ENDBRANCH   7   8
ENDBRANCH   6   7
ENDBRANCH   5   6
ENDBRANCH   4   5
ENDBRANCH   3   4
ENDBRANCH   2   3
TORSDOF 24
ENDMDL
MODEL       44
REMARK 921   NORMALIZED FREE ENERGY PREDICTED BY IDOCK:   -4.82 KCAL/MOL
REMARK 922        TOTAL FREE ENERGY PREDICTED BY IDOCK:  -13.89 KCAL/MOL
REMARK 923 INTER-LIGAND FREE ENERGY PREDICTED BY IDOCK:  -11.20 KCAL/MOL
REMARK 924 INTRA-LIGAND FREE ENERGY PREDICTED BY IDOCK:   -2.69 KCAL/MOL
REMARK 927      BINDING AFFINITY PREDICTED BY RF-SCORE:    0.00 PKD
ROOT
HETATM    1  C   UNL     1     -10.700  19.771  65.765  1.00  0.00    -0.370 C  
HETATM    2  O   UNL     1      -9.903  18.615  65.981  1.00  0.00    -0.489 OA 
ENDROOT
BRANCH   2   3
HETATM    3  C   UNL     1     -10.390  17.848  67.081  1.00  0.00    -0.367 C  
BRANCH   3   4
HETATM    4  C   UNL     1      -9.738  18.339  68.365  1.00  0.00    -0.357 C  
BRANCH   4   5
HETATM    5  O   UNL     1      -8.366  18.634  68.106  1.00  0.00    -0.289 OA 
BRANCH   5   6
HETATM    6  C   UNL     1      -7.513  17.674  68.723  1.00  0.00    -0.255 C  
BRANCH   6   7
HETATM    7  C   UNL     1      -7.223  16.549  67.743  1.00  0.00    -0.139 C  
BRANCH   7   8
HETATM    8  O   UNL     1      -7.874  15.369  68.209  1.00  0.00    -0.119 OA 
BRANCH   8   9
HETATM    9  C   UNL     1      -7.474  14.227  67.461  1.00  0.00    -0.182 C  
BRANCH   9  10
HETATM   10  C   UNL     1      -8.692  13.355  67.208  1.00  0.00    -0.218 C  
BRANCH  10  11
HETATM   11  O   UNL     1      -9.641  14.109  66.466  1.00  0.00    -0.276 OA 
BRANCH  11  12
HETATM   12  C   UNL     1     -10.942  14.005  67.033  1.00  0.00    -0.297 C  
BRANCH  12  13
HETATM   13  C   UNL     1     -11.598  12.740  66.508  1.00  0.00    -0.376 C  
BRANCH  13  14
HETATM   14  O   UNL     1     -11.927  11.892  67.600  1.00  0.00    -0.575 OA 
BRANCH  14  15
HETATM   15  C   UNL     1     -11.784  12.590  68.830  1.00  0.00    -0.322 C  
BRANCH  15  16
HETATM   16  C   UNL     1     -11.822  11.614  69.993  1.00  0.00    -0.355 C  
BRANCH  16  17
HETATM   17  O   UNL     1     -12.770  12.104  70.933  1.00  0.00    -0.289 OA 
BRANCH  17  18
HETATM   18  C   UNL     1     -13.173  11.112  71.862  1.00  0.00    -0.382 C  
BRANCH  18  19
HETATM   19  C   UNL     1     -12.959   9.757  71.214  1.00  0.00    -0.380 C  
BRANCH  19  20
HETATM   20  O   UNL     1     -13.631   8.754  71.963  1.00  0.00    -0.372 OA 
BRANCH  20  21
HETATM   21  C   UNL     1     -13.019   7.474  71.809  1.00  0.00    -0.328 C  
BRANCH  21  22
HETATM   22  C   UNL     1     -11.945   7.510  70.715  1.00  0.00    -0.197 C  
BRANCH  22  23
HETATM   23  O   UNL     1     -11.849   6.320  69.891  1.00  0.00    -0.340 OA 
BRANCH  23  24
HETATM   24  C   UNL     1     -10.567   6.138  69.241  1.00  0.00    -0.285 C  
HETATM   25  C   UNL     1     -10.746   6.043  67.752  1.00  0.00    -0.369 C  
HETATM   26  C   UNL     1     -10.643   7.470  66.958  1.00  0.00    -0.409 C  
HETATM   27  C   UNL     1      -9.387   8.490  67.272  1.00  0.00    -0.149 C  
HETATM   28  C   UNL     1      -8.024   8.953  66.430  1.00  0.00    -0.103 C  
HETATM   29  O   UNL     1     -10.016   9.656  67.823  1.00  0.00    -0.156 OA 
HETATM   30  C   UNL     1      -7.124  10.031  67.040  1.00  0.00    -0.089 C  
HETATM   31  H   UNL     1      -9.291  10.244  68.004  1.00  0.00     0.000 HD 
HETATM   32  C   UNL     1      -6.890   9.553  68.452  1.00  0.00    -0.062 A  
HETATM   33  C   UNL     1      -6.153  10.288  69.361  1.00  0.00    -0.042 A  
HETATM   34  C   UNL     1      -6.223  10.021  70.721  1.00  0.00    -0.084 A  
HETATM   35  C   UNL     1      -7.082   8.996  71.210  1.00  0.00    -0.079 A  
HETATM   36  O   UNL     1      -7.328   8.908  72.544  1.00  0.00    -0.341 OA 
HETATM   37  C   UNL     1      -7.732   8.172  70.294  1.00  0.00    -0.085 A  
HETATM   38  H   UNL     1      -7.901   8.224  72.871  1.00  0.00     0.000 HD 
HETATM   39  C   UNL     1      -7.621   8.388  68.913  1.00  0.00    -0.096 A  
HETATM   40  C   UNL     1      -8.632   7.575  68.152  1.00  0.00    -0.123 C  
HETATM   41  C   UNL     1      -9.556   7.291  69.427  1.00  0.00    -0.154 C  
HETATM   42  C   UNL     1      -8.122   6.468  66.820  1.00  0.00    -0.109 C  
HETATM   43  O   UNL     1      -8.686   7.212  70.589  1.00  0.00    -0.145 OA 
HETATM   44  C   UNL     1      -8.228   7.155  65.161  1.00  0.00    -0.113 C  
HETATM   45  N   UNL     1      -8.044   8.621  65.041  1.00  0.00    -0.134 NA 
BRANCH  45  46
HETATM   46  C   UNL     1      -9.021   9.483  64.397  1.00  0.00    -0.212 C  
BRANCH  46  47
HETATM   47  C   UNL     1      -8.775   9.735  62.947  1.00  0.00    -0.229 C  
HETATM   48  C   UNL     1      -9.033  10.906  62.355  1.00  0.00    -0.353 C  
ENDBRANCH  46  47
ENDBRANCH  45  46
ENDBRANCH  23  24
ENDBRANCH  22  23
ENDBRANCH  21  22
ENDBRANCH  20  21
ENDBRANCH  19  20
ENDBRANCH  18  19
ENDBRANCH  17  18
ENDBRANCH  16  17
ENDBRANCH  15  16
ENDBRANCH  14  15
ENDBRANCH  13  14
ENDBRANCH  12  13
ENDBRANCH  11  12
ENDBRANCH  10  11
ENDBRANCH   9  10
ENDBRANCH   8   9
ENDBRANCH   7   8
ENDBRANCH   6   7
ENDBRANCH   5   6
ENDBRANCH   4   5
ENDBRANCH   3   4
ENDBRANCH   2   3
TORSDOF 24
ENDMDL
MODEL       45
REMARK 921   NORMALIZED FREE ENERGY PREDICTED BY IDOCK:   -4.81 KCAL/MOL
REMARK 922        TOTAL FREE ENERGY PREDICTED BY IDOCK:  -13.86 KCAL/MOL
REMARK 923 INTER-LIGAND FREE ENERGY PREDICTED BY IDOCK:  -11.86 KCAL/MOL
REMARK 924 INTRA-LIGAND FREE ENERGY PREDICTED BY IDOCK:   -2.00 KCAL/MOL
REMARK 927      BINDING AFFINITY PREDICTED BY RF-SCORE:    0.00 PKD
ROOT
HETATM    1  C   UNL     1     -12.557  12.156  63.462  1.00  0.00    -0.506 C  
HETATM    2  O   UNL     1     -13.041  12.541  64.741  1.00  0.00    -0.853 OA 
ENDROOT
BRANCH   2   3
HETATM    3  C   UNL     1     -11.996  12.541  65.712  1.00  0.00    -0.420 C  
BRANCH   3   4
HETATM    4  C   UNL     1     -12.075  13.818  66.536  1.00  0.00    -0.443 C  
BRANCH   4   5
HETATM    5  O   UNL     1     -11.171  14.779  65.992  1.00  0.00    -0.337 OA 
BRANCH   5   6
HETATM    6  C   UNL     1     -10.871  15.794  66.945  1.00  0.00    -0.265 C  
BRANCH   6   7
HETATM    7  C   UNL     1     -10.520  17.082  66.220  1.00  0.00    -0.258 C  
BRANCH   7   8
HETATM    8  O   UNL     1      -9.252  17.533  66.693  1.00  0.00    -0.247 OA 
BRANCH   8   9
HETATM    9  C   UNL     1      -8.186  16.818  66.081  1.00  0.00    -0.264 C  
BRANCH   9  10
HETATM   10  C   UNL     1      -7.074  17.794  65.737  1.00  0.00    -0.144 C  
BRANCH  10  11
HETATM   11  O   UNL     1      -7.629  19.101  65.660  1.00  0.00    -0.459 OA 
BRANCH  11  12
HETATM   12  C   UNL     1      -6.674  20.090  66.024  1.00  0.00    -0.243 C  
BRANCH  12  13
HETATM   13  C   UNL     1      -7.090  20.698  67.352  1.00  0.00    -0.349 C  
BRANCH  13  14
HETATM   14  O   UNL     1      -6.285  20.159  68.391  1.00  0.00    -0.258 OA 
BRANCH  14  15
HETATM   15  C   UNL     1      -7.040  19.251  69.183  1.00  0.00    -0.335 C  
BRANCH  15  16
HETATM   16  C   UNL     1      -6.375  17.885  69.192  1.00  0.00    -0.236 C  
BRANCH  16  17
HETATM   17  O   UNL     1      -7.405  16.909  69.271  1.00  0.00    -0.238 OA 
BRANCH  17  18
HETATM   18  C   UNL     1      -6.894  15.588  69.355  1.00  0.00    -0.176 C  
BRANCH  18  19
HETATM   19  C   UNL     1      -8.035  14.632  69.061  1.00  0.00    -0.122 C  
BRANCH  19  20
HETATM   20  O   UNL     1      -7.553  13.525  68.312  1.00  0.00    -0.115 OA 
BRANCH  20  21
HETATM   21  C   UNL     1      -8.528  13.041  67.391  1.00  0.00    -0.200 C  
BRANCH  21  22
HETATM   22  C   UNL     1      -8.756  11.536  67.575  1.00  0.00    -0.145 C  
BRANCH  22  23
HETATM   23  O   UNL     1      -9.829  11.170  68.480  1.00  0.00    -0.185 OA 
BRANCH  23  24
HETATM   24  C   UNL     1     -10.520   9.945  68.132  1.00  0.00    -0.215 C  
HETATM   25  C   UNL     1      -9.894   9.320  66.917  1.00  0.00    -0.276 C  
HETATM   26  C   UNL     1      -8.706   8.241  67.240  1.00  0.00    -0.126 C  
HETATM   27  C   UNL     1      -8.955   7.064  68.366  1.00  0.00    -0.122 C  
HETATM   28  C   UNL     1      -9.196   5.416  68.296  1.00  0.00    -0.111 C  
HETATM   29  O   UNL     1      -7.991   7.353  69.389  1.00  0.00    -0.119 OA 
HETATM   30  C   UNL     1      -9.293   4.638  69.611  1.00  0.00    -0.212 C  
HETATM   31  H   UNL     1      -8.135   6.675  70.039  1.00  0.00     0.000 HD 
HETATM   32  C   UNL     1     -10.306   5.413  70.419  1.00  0.00    -0.353 A  
HETATM   33  C   UNL     1     -10.641   5.056  71.710  1.00  0.00    -0.204 A  
HETATM   34  C   UNL     1     -11.298   5.944  72.550  1.00  0.00    -0.352 A  
HETATM   35  C   UNL     1     -11.616   7.257  72.102  1.00  0.00    -0.286 A  
HETATM   36  O   UNL     1     -12.033   8.189  73.001  1.00  0.00    -0.609 OA 
HETATM   37  C   UNL     1     -11.393   7.583  70.767  1.00  0.00    -0.280 A  
HETATM   38  H   UNL     1     -12.245   9.066  72.702  1.00  0.00     0.000 HD 
HETATM   39  C   UNL     1     -10.788   6.674  69.887  1.00  0.00    -0.329 A  
HETATM   40  C   UNL     1     -10.387   7.346  68.602  1.00  0.00    -0.215 C  
HETATM   41  C   UNL     1     -10.475   8.828  69.198  1.00  0.00    -0.217 C  
HETATM   42  C   UNL     1     -10.934   6.703  67.007  1.00  0.00    -0.463 C  
HETATM   43  O   UNL     1     -11.533   8.837  70.195  1.00  0.00    -0.168 OA 
HETATM   44  C   UNL     1      -9.769   5.616  66.171  1.00  0.00    -0.098 C  
HETATM   45  N   UNL     1      -8.868   4.822  67.039  1.00  0.00    -0.107 NA 
BRANCH  45  46
HETATM   46  C   UNL     1      -7.422   4.853  66.903  1.00  0.00    -0.087 C  
BRANCH  46  47
HETATM   47  C   UNL     1      -6.789   3.528  66.635  1.00  0.00    -0.054 C  
HETATM   48  C   UNL     1      -7.349   2.366  66.984  1.00  0.00    -0.061 C  
ENDBRANCH  46  47
ENDBRANCH  45  46
ENDBRANCH  23  24
ENDBRANCH  22  23
ENDBRANCH  21  22
ENDBRANCH  20  21
ENDBRANCH  19  20
ENDBRANCH  18  19
ENDBRANCH  17  18
ENDBRANCH  16  17
ENDBRANCH  15  16
ENDBRANCH  14  15
ENDBRANCH  13  14
ENDBRANCH  12  13
ENDBRANCH  11  12
ENDBRANCH  10  11
ENDBRANCH   9  10
ENDBRANCH   8   9
ENDBRANCH   7   8
ENDBRANCH   6   7
ENDBRANCH   5   6
ENDBRANCH   4   5
ENDBRANCH   3   4
ENDBRANCH   2   3
TORSDOF 24
ENDMDL
MODEL       46
REMARK 921   NORMALIZED FREE ENERGY PREDICTED BY IDOCK:   -4.81 KCAL/MOL
REMARK 922        TOTAL FREE ENERGY PREDICTED BY IDOCK:  -13.85 KCAL/MOL
REMARK 923 INTER-LIGAND FREE ENERGY PREDICTED BY IDOCK:  -11.31 KCAL/MOL
REMARK 924 INTRA-LIGAND FREE ENERGY PREDICTED BY IDOCK:   -2.53 KCAL/MOL
REMARK 927      BINDING AFFINITY PREDICTED BY RF-SCORE:    0.00 PKD
ROOT
HETATM    1  C   UNL     1     -12.295  11.191  70.719  1.00  0.00    -0.406 C  
HETATM    2  O   UNL     1     -12.333  10.979  69.315  1.00  0.00    -0.412 OA 
ENDROOT
BRANCH   2   3
HETATM    3  C   UNL     1     -11.112  10.414  68.843  1.00  0.00    -0.247 C  
BRANCH   3   4
HETATM    4  C   UNL     1     -11.054  10.535  67.327  1.00  0.00    -0.213 C  
BRANCH   4   5
HETATM    5  O   UNL     1     -10.426   9.371  66.791  1.00  0.00    -0.243 OA 
BRANCH   5   6
HETATM    6  C   UNL     1     -10.459   8.297  67.727  1.00  0.00    -0.215 C  
BRANCH   6   7
HETATM    7  C   UNL     1     -10.545   6.977  66.980  1.00  0.00    -0.341 C  
BRANCH   7   8
HETATM    8  O   UNL     1     -10.912   5.958  67.908  1.00  0.00    -0.276 OA 
BRANCH   8   9
HETATM    9  C   UNL     1      -9.868   5.708  68.842  1.00  0.00    -0.147 C  
BRANCH   9  10
HETATM   10  C   UNL     1     -10.484   5.273  70.161  1.00  0.00    -0.268 C  
BRANCH  10  11
HETATM   11  O   UNL     1     -11.646   6.058  70.396  1.00  0.00    -0.275 OA 
BRANCH  11  12
HETATM   12  C   UNL     1     -11.869   6.246  71.788  1.00  0.00    -0.286 C  
BRANCH  12  13
HETATM   13  C   UNL     1     -12.310   7.681  72.017  1.00  0.00    -0.280 C  
BRANCH  13  14
HETATM   14  O   UNL     1     -11.280   8.389  72.692  1.00  0.00    -0.369 OA 
BRANCH  14  15
HETATM   15  C   UNL     1     -10.167   7.535  72.931  1.00  0.00    -0.278 C  
BRANCH  15  16
HETATM   16  C   UNL     1      -8.872   8.320  72.813  1.00  0.00    -0.239 C  
BRANCH  16  17
HETATM   17  O   UNL     1      -8.930   9.061  71.601  1.00  0.00    -0.317 OA 
BRANCH  17  18
HETATM   18  C   UNL     1      -7.879   8.727  70.710  1.00  0.00    -0.109 C  
BRANCH  18  19
HETATM   19  C   UNL     1      -7.490   9.987  69.960  1.00  0.00    -0.173 C  
BRANCH  19  20
HETATM   20  O   UNL     1      -6.640  10.786  70.771  1.00  0.00    -0.331 OA 
BRANCH  20  21
HETATM   21  C   UNL     1      -5.672  11.490  69.994  1.00  0.00    -0.120 C  
BRANCH  21  22
HETATM   22  C   UNL     1      -6.100  11.567  68.525  1.00  0.00    -0.049 C  
BRANCH  22  23
HETATM   23  O   UNL     1      -5.779  12.805  67.841  1.00  0.00    -0.090 OA 
BRANCH  23  24
HETATM   24  C   UNL     1      -6.887  13.405  67.126  1.00  0.00     0.305 C  
HETATM   25  C   UNL     1      -8.164  12.672  67.433  1.00  0.00    -0.184 C  
HETATM   26  C   UNL     1      -9.007  13.271  68.701  1.00  0.00     0.032 C  
HETATM   27  C   UNL     1      -9.295  14.890  68.799  1.00  0.00    -0.203 C  
HETATM   28  C   UNL     1     -10.648  15.847  68.607  1.00  0.00    -0.250 C  
HETATM   29  O   UNL     1      -8.600  15.296  69.987  1.00  0.00    -0.318 OA 
HETATM   30  C   UNL     1     -10.523  17.347  68.886  1.00  0.00    -0.312 C  
HETATM   31  H   UNL     1      -8.767  16.230  70.043  1.00  0.00     0.000 HD 
HETATM   32  C   UNL     1      -9.308  17.765  68.095  1.00  0.00    -0.281 A  
HETATM   33  C   UNL     1      -8.824  19.059  68.124  1.00  0.00    -0.353 A  
HETATM   34  C   UNL     1      -7.544  19.355  67.680  1.00  0.00    -0.292 A  
HETATM   35  C   UNL     1      -6.689  18.319  67.208  1.00  0.00    -0.195 A  
HETATM   36  O   UNL     1      -5.368  18.578  67.010  1.00  0.00    -0.131 OA 
HETATM   37  C   UNL     1      -7.209  17.035  67.061  1.00  0.00    -0.189 A  
HETATM   38  H   UNL     1      -4.797  17.886  66.696  1.00  0.00     0.000 HD 
HETATM   39  C   UNL     1      -8.522  16.733  67.445  1.00  0.00    -0.203 A  
HETATM   40  C   UNL     1      -8.754  15.247  67.471  1.00  0.00    -0.189 C  
HETATM   41  C   UNL     1      -7.198  14.874  67.490  1.00  0.00    -0.201 C  
HETATM   42  C   UNL     1     -10.114  14.502  66.547  1.00  0.00    -0.280 C  
HETATM   43  O   UNL     1      -6.494  15.895  66.731  1.00  0.00    -0.255 OA 
HETATM   44  C   UNL     1     -11.618  14.206  67.488  1.00  0.00    -0.367 C  
HETATM   45  N   UNL     1     -11.885  15.133  68.614  1.00  0.00    -0.329 NA 
BRANCH  45  46
HETATM   46  C   UNL     1     -12.117  14.671  69.971  1.00  0.00    -0.329 C  
BRANCH  46  47
HETATM   47  C   UNL     1     -12.968  15.570  70.804  1.00  0.00    -0.490 C  
HETATM   48  C   UNL     1     -13.986  15.129  71.551  1.00  0.00    -0.614 C  
ENDBRANCH  46  47
ENDBRANCH  45  46
ENDBRANCH  23  24
ENDBRANCH  22  23
ENDBRANCH  21  22
ENDBRANCH  20  21
ENDBRANCH  19  20
ENDBRANCH  18  19
ENDBRANCH  17  18
ENDBRANCH  16  17
ENDBRANCH  15  16
ENDBRANCH  14  15
ENDBRANCH  13  14
ENDBRANCH  12  13
ENDBRANCH  11  12
ENDBRANCH  10  11
ENDBRANCH   9  10
ENDBRANCH   8   9
ENDBRANCH   7   8
ENDBRANCH   6   7
ENDBRANCH   5   6
ENDBRANCH   4   5
ENDBRANCH   3   4
ENDBRANCH   2   3
TORSDOF 24
ENDMDL
MODEL       47
REMARK 921   NORMALIZED FREE ENERGY PREDICTED BY IDOCK:   -4.77 KCAL/MOL
REMARK 922        TOTAL FREE ENERGY PREDICTED BY IDOCK:  -13.77 KCAL/MOL
REMARK 923 INTER-LIGAND FREE ENERGY PREDICTED BY IDOCK:  -11.17 KCAL/MOL
REMARK 924 INTRA-LIGAND FREE ENERGY PREDICTED BY IDOCK:   -2.60 KCAL/MOL
REMARK 927      BINDING AFFINITY PREDICTED BY RF-SCORE:    0.00 PKD
ROOT
HETATM    1  C   UNL     1     -11.199   2.179  73.344  1.00  0.00    -0.191 C  
HETATM    2  O   UNL     1     -11.561   3.545  73.496  1.00  0.00    -0.167 OA 
ENDROOT
BRANCH   2   3
HETATM    3  C   UNL     1     -10.460   4.407  73.215  1.00  0.00    -0.187 C  
BRANCH   3   4
HETATM    4  C   UNL     1     -10.261   5.364  74.381  1.00  0.00    -0.277 C  
BRANCH   4   5
HETATM    5  O   UNL     1     -10.762   6.650  74.018  1.00  0.00    -0.262 OA 
BRANCH   5   6
HETATM    6  C   UNL     1     -10.301   7.031  72.725  1.00  0.00    -0.222 C  
BRANCH   6   7
HETATM    7  C   UNL     1     -10.974   8.328  72.309  1.00  0.00    -0.348 C  
BRANCH   7   8
HETATM    8  O   UNL     1     -12.225   8.423  72.985  1.00  0.00    -0.228 OA 
BRANCH   8   9
HETATM    9  C   UNL     1     -13.173   9.160  72.222  1.00  0.00    -0.461 C  
BRANCH   9  10
HETATM   10  C   UNL     1     -12.483   9.719  70.990  1.00  0.00    -0.323 C  
BRANCH  10  11
HETATM   11  O   UNL     1     -12.992  11.023  70.742  1.00  0.00    -0.286 OA 
BRANCH  11  12
HETATM   12  C   UNL     1     -13.282  11.705  71.957  1.00  0.00    -0.338 C  
BRANCH  12  13
HETATM   13  C   UNL     1     -13.298  13.198  71.681  1.00  0.00    -0.308 C  
BRANCH  13  14
HETATM   14  O   UNL     1     -12.190  13.538  70.859  1.00  0.00    -0.351 OA 
BRANCH  14  15
HETATM   15  C   UNL     1     -11.915  14.930  70.949  1.00  0.00    -0.316 C  
BRANCH  15  16
HETATM   16  C   UNL     1     -10.814  15.309  69.973  1.00  0.00    -0.286 C  
BRANCH  16  17
HETATM   17  O   UNL     1     -11.001  16.676  69.628  1.00  0.00    -0.318 OA 
BRANCH  17  18
HETATM   18  C   UNL     1     -10.717  16.933  68.262  1.00  0.00    -0.377 C  
BRANCH  18  19
HETATM   19  C   UNL     1     -10.473  15.599  67.582  1.00  0.00    -0.283 C  
BRANCH  19  20
HETATM   20  O   UNL     1     -11.099  15.587  66.307  1.00  0.00    -0.286 OA 
BRANCH  20  21
HETATM   21  C   UNL     1     -12.115  14.589  66.221  1.00  0.00    -0.294 C  
BRANCH  21  22
HETATM   22  C   UNL     1     -11.712  13.331  66.999  1.00  0.00    -0.389 C  
BRANCH  22  23
HETATM   23  O   UNL     1     -11.776  12.086  66.256  1.00  0.00    -0.504 OA 
BRANCH  23  24
HETATM   24  C   UNL     1     -10.493  11.454  66.027  1.00  0.00    -0.255 C  
HETATM   25  C   UNL     1      -9.376  12.402  66.362  1.00  0.00    -0.219 C  
HETATM   26  C   UNL     1      -8.843  12.312  67.907  1.00  0.00    -0.178 C  
HETATM   27  C   UNL     1      -8.499  10.842  68.568  1.00  0.00    -0.147 C  
HETATM   28  C   UNL     1      -7.090  10.055  68.987  1.00  0.00    -0.069 C  
HETATM   29  O   UNL     1      -9.444  10.713  69.639  1.00  0.00    -0.414 OA 
HETATM   30  C   UNL     1      -7.197   8.697  69.688  1.00  0.00    -0.052 C  
HETATM   31  H   UNL     1      -9.245   9.865  70.020  1.00  0.00     0.000 HD 
HETATM   32  C   UNL     1      -8.151   7.914  68.820  1.00  0.00    -0.126 A  
HETATM   33  C   UNL     1      -8.554   6.633  69.146  1.00  0.00    -0.130 A  
HETATM   34  C   UNL     1      -9.665   6.058  68.546  1.00  0.00    -0.142 A  
HETATM   35  C   UNL     1     -10.432   6.793  67.598  1.00  0.00    -0.229 A  
HETATM   36  O   UNL     1     -11.645   6.319  67.206  1.00  0.00    -0.621 OA 
HETATM   37  C   UNL     1      -9.964   8.035  67.175  1.00  0.00    -0.235 A  
HETATM   38  H   UNL     1     -12.158   6.809  66.574  1.00  0.00     0.000 HD 
HETATM   39  C   UNL     1      -8.807   8.603  67.724  1.00  0.00    -0.137 A  
HETATM   40  C   UNL     1      -8.672  10.049  67.333  1.00  0.00    -0.125 C  
HETATM   41  C   UNL     1     -10.202  10.207  66.891  1.00  0.00    -0.236 C  
HETATM   42  C   UNL     1      -7.168  10.663  66.545  1.00  0.00    -0.134 C  
HETATM   43  O   UNL     1     -10.637   8.927  66.356  1.00  0.00    -0.139 OA 
HETATM   44  C   UNL     1      -5.964  11.410  67.653  1.00  0.00    -0.054 C  
HETATM   45  N   UNL     1      -5.935  10.894  69.042  1.00  0.00    -0.040 NA 
BRANCH  45  46
HETATM   46  C   UNL     1      -6.075  11.756  70.202  1.00  0.00    -0.147 C  
BRANCH  46  47
HETATM   47  C   UNL     1      -5.863  13.209  69.933  1.00  0.00    -0.133 C  
HETATM   48  C   UNL     1      -5.735  14.121  70.903  1.00  0.00    -0.202 C  
ENDBRANCH  46  47
ENDBRANCH  45  46
ENDBRANCH  23  24
ENDBRANCH  22  23
ENDBRANCH  21  22
ENDBRANCH  20  21
ENDBRANCH  19  20
ENDBRANCH  18  19
ENDBRANCH  17  18
ENDBRANCH  16  17
ENDBRANCH  15  16
ENDBRANCH  14  15
ENDBRANCH  13  14
ENDBRANCH  12  13
ENDBRANCH  11  12
ENDBRANCH  10  11
ENDBRANCH   9  10
ENDBRANCH   8   9
ENDBRANCH   7   8
ENDBRANCH   6   7
ENDBRANCH   5   6
ENDBRANCH   4   5
ENDBRANCH   3   4
ENDBRANCH   2   3
TORSDOF 24
ENDMDL
MODEL       48
REMARK 921   NORMALIZED FREE ENERGY PREDICTED BY IDOCK:   -4.76 KCAL/MOL
REMARK 922        TOTAL FREE ENERGY PREDICTED BY IDOCK:  -13.73 KCAL/MOL
REMARK 923 INTER-LIGAND FREE ENERGY PREDICTED BY IDOCK:  -10.95 KCAL/MOL
REMARK 924 INTRA-LIGAND FREE ENERGY PREDICTED BY IDOCK:   -2.77 KCAL/MOL
REMARK 927      BINDING AFFINITY PREDICTED BY RF-SCORE:    0.00 PKD
ROOT
HETATM    1  C   UNL     1      -7.662   7.730  68.068  1.00  0.00    -0.126 C  
HETATM    2  O   UNL     1      -7.239   6.382  67.910  1.00  0.00    -0.082 OA 
ENDROOT
BRANCH   2   3
HETATM    3  C   UNL     1      -7.137   5.720  69.169  1.00  0.00    -0.065 C  
BRANCH   3   4
HETATM    4  C   UNL     1      -7.477   4.247  68.992  1.00  0.00    -0.055 C  
BRANCH   4   5
HETATM    5  O   UNL     1      -7.191   3.863  67.648  1.00  0.00    -0.064 OA 
BRANCH   5   6
HETATM    6  C   UNL     1      -8.248   3.075  67.107  1.00  0.00    -0.084 C  
BRANCH   6   7
HETATM    7  C   UNL     1      -9.062   3.917  66.139  1.00  0.00    -0.146 C  
BRANCH   7   8
HETATM    8  O   UNL     1     -10.242   4.356  66.808  1.00  0.00    -0.202 OA 
BRANCH   8   9
HETATM    9  C   UNL     1     -10.543   5.710  66.493  1.00  0.00    -0.255 C  
BRANCH   9  10
HETATM   10  C   UNL     1     -11.105   6.389  67.730  1.00  0.00    -0.276 C  
BRANCH  10  11
HETATM   11  O   UNL     1     -10.759   5.611  68.868  1.00  0.00    -0.248 OA 
BRANCH  11  12
HETATM   12  C   UNL     1     -11.345   6.137  70.053  1.00  0.00    -0.373 C  
BRANCH  12  13
HETATM   13  C   UNL     1     -10.235   6.477  71.032  1.00  0.00    -0.189 C  
BRANCH  13  14
HETATM   14  O   UNL     1     -10.482   7.755  71.600  1.00  0.00    -0.199 OA 
BRANCH  14  15
HETATM   15  C   UNL     1     -11.567   8.391  70.936  1.00  0.00    -0.262 C  
BRANCH  15  16
HETATM   16  C   UNL     1     -12.248   9.375  71.872  1.00  0.00    -0.368 C  
BRANCH  16  17
HETATM   17  O   UNL     1     -12.443  10.585  71.151  1.00  0.00    -0.339 OA 
BRANCH  17  18
HETATM   18  C   UNL     1     -13.046  11.596  71.943  1.00  0.00    -0.385 C  
BRANCH  18  19
HETATM   19  C   UNL     1     -12.890  12.913  71.207  1.00  0.00    -0.270 C  
BRANCH  19  20
HETATM   20  O   UNL     1     -12.864  13.985  72.139  1.00  0.00    -0.340 OA 
BRANCH  20  21
HETATM   21  C   UNL     1     -12.712  15.248  71.494  1.00  0.00    -0.384 C  
BRANCH  21  22
HETATM   22  C   UNL     1     -12.405  15.068  70.004  1.00  0.00    -0.309 C  
BRANCH  22  23
HETATM   23  O   UNL     1     -12.195  16.292  69.253  1.00  0.00    -0.054 OA 
BRANCH  23  24
HETATM   24  C   UNL     1     -11.163  16.210  68.241  1.00  0.00    -0.343 C  
HETATM   25  C   UNL     1      -9.807  16.398  68.861  1.00  0.00    -0.260 C  
HETATM   26  C   UNL     1      -9.074  15.015  69.337  1.00  0.00    -0.118 C  
HETATM   27  C   UNL     1      -9.005  13.731  68.307  1.00  0.00    -0.186 C  
HETATM   28  C   UNL     1      -7.788  13.009  67.424  1.00  0.00    -0.164 C  
HETATM   29  O   UNL     1      -9.770  12.713  68.968  1.00  0.00    -0.404 OA 
HETATM   30  C   UNL     1      -8.115  11.736  66.639  1.00  0.00    -0.094 C  
HETATM   31  H   UNL     1      -9.730  11.973  68.374  1.00  0.00     0.000 HD 
HETATM   32  C   UNL     1      -9.360  12.096  65.865  1.00  0.00    -0.135 A  
HETATM   33  C   UNL     1     -10.011  11.182  65.059  1.00  0.00    -0.325 A  
HETATM   34  C   UNL     1     -11.311  11.406  64.629  1.00  0.00    -0.156 A  
HETATM   35  C   UNL     1     -12.012  12.577  65.036  1.00  0.00    -0.427 A  
HETATM   36  O   UNL     1     -13.351  12.666  64.815  1.00  0.00    -0.787 OA 
HETATM   37  C   UNL     1     -11.324  13.558  65.745  1.00  0.00    -0.305 A  
HETATM   38  H   UNL     1     -13.819  13.447  65.086  1.00  0.00     0.000 HD 
HETATM   39  C   UNL     1      -9.989  13.376  66.132  1.00  0.00    -0.299 A  
HETATM   40  C   UNL     1      -9.563  14.422  67.126  1.00  0.00    -0.251 C  
HETATM   41  C   UNL     1     -11.056  14.855  67.506  1.00  0.00    -0.317 C  
HETATM   42  C   UNL     1      -8.100  15.438  66.837  1.00  0.00    -0.259 C  
HETATM   43  O   UNL     1     -11.875  14.694  66.315  1.00  0.00    -0.364 OA 
HETATM   44  C   UNL     1      -6.588  14.855  67.619  1.00  0.00    -0.165 C  
HETATM   45  N   UNL     1      -6.468  13.390  67.814  1.00  0.00    -0.150 NA 
BRANCH  45  46
HETATM   46  C   UNL     1      -6.202  12.792  69.110  1.00  0.00    -0.098 C  
BRANCH  46  47
HETATM   47  C   UNL     1      -5.423  13.651  70.050  1.00  0.00    -0.106 C  
HETATM   48  C   UNL     1      -5.949  14.187  71.156  1.00  0.00    -0.168 C  
ENDBRANCH  46  47
ENDBRANCH  45  46
ENDBRANCH  23  24
ENDBRANCH  22  23
ENDBRANCH  21  22
ENDBRANCH  20  21
ENDBRANCH  19  20
ENDBRANCH  18  19
ENDBRANCH  17  18
ENDBRANCH  16  17
ENDBRANCH  15  16
ENDBRANCH  14  15
ENDBRANCH  13  14
ENDBRANCH  12  13
ENDBRANCH  11  12
ENDBRANCH  10  11
ENDBRANCH   9  10
ENDBRANCH   8   9
ENDBRANCH   7   8
ENDBRANCH   6   7
ENDBRANCH   5   6
ENDBRANCH   4   5
ENDBRANCH   3   4
ENDBRANCH   2   3
TORSDOF 24
ENDMDL
MODEL       49
REMARK 921   NORMALIZED FREE ENERGY PREDICTED BY IDOCK:   -4.74 KCAL/MOL
REMARK 922        TOTAL FREE ENERGY PREDICTED BY IDOCK:  -13.68 KCAL/MOL
REMARK 923 INTER-LIGAND FREE ENERGY PREDICTED BY IDOCK:  -10.42 KCAL/MOL
REMARK 924 INTRA-LIGAND FREE ENERGY PREDICTED BY IDOCK:   -3.26 KCAL/MOL
REMARK 927      BINDING AFFINITY PREDICTED BY RF-SCORE:    0.00 PKD
ROOT
HETATM    1  C   UNL     1     -13.512  15.690  72.433  1.00  0.00    -0.513 C  
HETATM    2  O   UNL     1     -13.087  15.860  71.087  1.00  0.00    -0.500 OA 
ENDROOT
BRANCH   2   3
HETATM    3  C   UNL     1     -11.665  15.930  70.998  1.00  0.00    -0.432 C  
BRANCH   3   4
HETATM    4  C   UNL     1     -11.264  16.179  69.551  1.00  0.00    -0.337 C  
BRANCH   4   5
HETATM    5  O   UNL     1      -9.867  16.465  69.499  1.00  0.00    -0.216 OA 
BRANCH   5   6
HETATM    6  C   UNL     1      -9.114  15.284  69.236  1.00  0.00    -0.240 C  
BRANCH   6   7
HETATM    7  C   UNL     1      -7.642  15.553  69.500  1.00  0.00    -0.200 C  
BRANCH   7   8
HETATM    8  O   UNL     1      -6.929  14.326  69.361  1.00  0.00    -0.128 OA 
BRANCH   8   9
HETATM    9  C   UNL     1      -6.277  13.965  70.573  1.00  0.00    -0.087 C  
BRANCH   9  10
HETATM   10  C   UNL     1      -5.505  12.676  70.350  1.00  0.00    -0.154 C  
BRANCH  10  11
HETATM   11  O   UNL     1      -5.902  11.736  71.339  1.00  0.00    -0.337 OA 
BRANCH  11  12
HETATM   12  C   UNL     1      -5.266  10.478  71.142  1.00  0.00    -0.091 C  
BRANCH  12  13
HETATM   13  C   UNL     1      -6.308   9.382  71.278  1.00  0.00    -0.051 C  
BRANCH  13  14
HETATM   14  O   UNL     1      -5.667   8.115  71.237  1.00  0.00    -0.033 OA 
BRANCH  14  15
HETATM   15  C   UNL     1      -6.014   7.346  72.382  1.00  0.00    -0.040 C  
BRANCH  15  16
HETATM   16  C   UNL     1      -7.524   7.294  72.539  1.00  0.00    -0.083 C  
BRANCH  16  17
HETATM   17  O   UNL     1      -7.971   6.073  71.962  1.00  0.00    -0.105 OA 
BRANCH  17  18
HETATM   18  C   UNL     1      -9.186   5.618  72.535  1.00  0.00    -0.142 C  
BRANCH  18  19
HETATM   19  C   UNL     1      -9.733   4.518  71.643  1.00  0.00    -0.175 C  
BRANCH  19  20
HETATM   20  O   UNL     1      -8.692   4.000  70.827  1.00  0.00    -0.070 OA 
BRANCH  20  21
HETATM   21  C   UNL     1      -9.112   3.829  69.474  1.00  0.00    -0.134 C  
BRANCH  21  22
HETATM   22  C   UNL     1      -8.685   5.023  68.613  1.00  0.00    -0.093 C  
BRANCH  22  23
HETATM   23  O   UNL     1      -9.639   6.113  68.534  1.00  0.00    -0.119 OA 
BRANCH  23  24
HETATM   24  C   UNL     1      -9.129   7.395  68.976  1.00  0.00    -0.133 C  
HETATM   25  C   UNL     1      -8.430   8.096  67.845  1.00  0.00    -0.132 C  
HETATM   26  C   UNL     1      -9.386   9.085  66.959  1.00  0.00    -0.190 C  
HETATM   27  C   UNL     1     -10.370  10.166  67.718  1.00  0.00    -0.210 C  
HETATM   28  C   UNL     1     -10.360  11.824  67.899  1.00  0.00    -0.193 C  
HETATM   29  O   UNL     1     -11.693   9.742  67.361  1.00  0.00    -0.012 OA 
HETATM   30  C   UNL     1     -11.542  12.485  68.615  1.00  0.00    -0.357 C  
HETATM   31  H   UNL     1     -12.261  10.366  67.800  1.00  0.00     0.000 HD 
HETATM   32  C   UNL     1     -11.686  11.689  69.889  1.00  0.00    -0.414 A  
HETATM   33  C   UNL     1     -12.691  11.944  70.802  1.00  0.00    -0.242 A  
HETATM   34  C   UNL     1     -13.022  11.017  71.780  1.00  0.00    -0.544 A  
HETATM   35  C   UNL     1     -12.346   9.766  71.843  1.00  0.00    -0.335 A  
HETATM   36  O   UNL     1     -12.839   8.777  72.637  1.00  0.00    -0.518 OA 
HETATM   37  C   UNL     1     -11.253   9.551  71.007  1.00  0.00    -0.362 A  
HETATM   38  H   UNL     1     -12.388   7.942  72.679  1.00  0.00     0.000 HD 
HETATM   39  C   UNL     1     -10.865  10.504  70.056  1.00  0.00    -0.320 A  
HETATM   40  C   UNL     1      -9.866   9.932  69.088  1.00  0.00    -0.204 C  
HETATM   41  C   UNL     1     -10.195   8.408  69.448  1.00  0.00    -0.208 C  
HETATM   42  C   UNL     1      -8.277  10.740  68.805  1.00  0.00    -0.145 C  
HETATM   43  O   UNL     1     -10.560   8.360  70.854  1.00  0.00    -0.198 OA 
HETATM   44  C   UNL     1      -8.211  11.842  67.385  1.00  0.00    -0.164 C  
HETATM   45  N   UNL     1      -9.479  12.512  67.010  1.00  0.00    -0.210 NA 
BRANCH  45  46
HETATM   46  C   UNL     1     -10.046  12.426  65.676  1.00  0.00    -0.257 C  
BRANCH  46  47
HETATM   47  C   UNL     1     -10.294  13.740  65.013  1.00  0.00    -0.402 C  
HETATM   48  C   UNL     1     -10.105  14.914  65.624  1.00  0.00    -0.387 C  
ENDBRANCH  46  47
ENDBRANCH  45  46
ENDBRANCH  23  24
ENDBRANCH  22  23
ENDBRANCH  21  22
ENDBRANCH  20  21
ENDBRANCH  19  20
ENDBRANCH  18  19
ENDBRANCH  17  18
ENDBRANCH  16  17
ENDBRANCH  15  16
ENDBRANCH  14  15
ENDBRANCH  13  14
ENDBRANCH  12  13
ENDBRANCH  11  12
ENDBRANCH  10  11
ENDBRANCH   9  10
ENDBRANCH   8   9
ENDBRANCH   7   8
ENDBRANCH   6   7
ENDBRANCH   5   6
ENDBRANCH   4   5
ENDBRANCH   3   4
ENDBRANCH   2   3
TORSDOF 24
ENDMDL
MODEL       50
REMARK 921   NORMALIZED FREE ENERGY PREDICTED BY IDOCK:   -4.71 KCAL/MOL
REMARK 922        TOTAL FREE ENERGY PREDICTED BY IDOCK:  -13.60 KCAL/MOL
REMARK 923 INTER-LIGAND FREE ENERGY PREDICTED BY IDOCK:  -10.98 KCAL/MOL
REMARK 924 INTRA-LIGAND FREE ENERGY PREDICTED BY IDOCK:   -2.62 KCAL/MOL
REMARK 927      BINDING AFFINITY PREDICTED BY RF-SCORE:    0.00 PKD
ROOT
HETATM    1  C   UNL     1      -9.382   3.511  73.753  1.00  0.00    -0.095 C  
HETATM    2  O   UNL     1     -10.270   4.116  72.823  1.00  0.00    -0.154 OA 
ENDROOT
BRANCH   2   3
HETATM    3  C   UNL     1     -10.260   5.537  72.945  1.00  0.00    -0.186 C  
BRANCH   3   4
HETATM    4  C   UNL     1     -11.277   6.131  71.981  1.00  0.00    -0.286 C  
BRANCH   4   5
HETATM    5  O   UNL     1     -11.496   7.500  72.323  1.00  0.00    -0.274 OA 
BRANCH   5   6
HETATM    6  C   UNL     1     -12.532   8.065  71.524  1.00  0.00    -0.310 C  
BRANCH   6   7
HETATM    7  C   UNL     1     -12.807   9.487  71.984  1.00  0.00    -0.414 C  
BRANCH   7   8
HETATM    8  O   UNL     1     -11.826  10.345  71.407  1.00  0.00    -0.332 OA 
BRANCH   8   9
HETATM    9  C   UNL     1     -12.420  11.511  70.850  1.00  0.00    -0.366 C  
BRANCH   9  10
HETATM   10  C   UNL     1     -13.283  12.176  71.909  1.00  0.00    -0.369 C  
BRANCH  10  11
HETATM   11  O   UNL     1     -13.592  13.494  71.476  1.00  0.00    -0.295 OA 
BRANCH  11  12
HETATM   12  C   UNL     1     -13.362  14.445  72.509  1.00  0.00    -0.486 C  
BRANCH  12  13
HETATM   13  C   UNL     1     -12.243  15.374  72.071  1.00  0.00    -0.383 C  
BRANCH  13  14
HETATM   14  O   UNL     1     -12.167  15.384  70.652  1.00  0.00    -0.326 OA 
BRANCH  14  15
HETATM   15  C   UNL     1     -10.832  15.634  70.229  1.00  0.00    -0.350 C  
BRANCH  15  16
HETATM   16  C   UNL     1     -10.767  16.930  69.441  1.00  0.00    -0.258 C  
BRANCH  16  17
HETATM   17  O   UNL     1      -9.550  16.924  68.707  1.00  0.00    -0.253 OA 
BRANCH  17  18
HETATM   18  C   UNL     1      -9.124  18.230  68.354  1.00  0.00    -0.316 C  
BRANCH  18  19
HETATM   19  C   UNL     1      -7.670  18.368  68.766  1.00  0.00    -0.267 C  
BRANCH  19  20
HETATM   20  O   UNL     1      -6.935  17.235  68.324  1.00  0.00    -0.174 OA 
BRANCH  20  21
HETATM   21  C   UNL     1      -6.311  16.550  69.409  1.00  0.00    -0.205 C  
BRANCH  21  22
HETATM   22  C   UNL     1      -7.134  15.327  69.830  1.00  0.00    -0.154 C  
BRANCH  22  23
HETATM   23  O   UNL     1      -6.425  14.062  69.828  1.00  0.00    -0.131 OA 
BRANCH  23  24
HETATM   24  C   UNL     1      -6.507  13.326  68.583  1.00  0.00    -0.087 C  
HETATM   25  C   UNL     1      -5.934  11.947  68.753  1.00  0.00    -0.052 C  
HETATM   26  C   UNL     1      -7.022  10.804  69.188  1.00  0.00    -0.091 C  
HETATM   27  C   UNL     1      -8.449  10.683  68.373  1.00  0.00    -0.132 C  
HETATM   28  C   UNL     1      -9.082   9.586  67.288  1.00  0.00    -0.130 C  
HETATM   29  O   UNL     1      -9.442  10.987  69.363  1.00  0.00    -0.417 OA 
HETATM   30  C   UNL     1     -10.526   9.778  66.818  1.00  0.00    -0.259 C  
HETATM   31  H   UNL     1     -10.265  10.917  68.893  1.00  0.00     0.000 HD 
HETATM   32  C   UNL     1     -10.581  11.224  66.393  1.00  0.00    -0.316 A  
HETATM   33  C   UNL     1     -11.748  11.813  65.945  1.00  0.00    -0.094 A  
HETATM   34  C   UNL     1     -11.875  13.193  65.881  1.00  0.00    -0.453 A  
HETATM   35  C   UNL     1     -10.807  14.034  66.303  1.00  0.00    -0.291 A  
HETATM   36  O   UNL     1     -11.028  15.366  66.467  1.00  0.00    -0.315 OA 
HETATM   37  C   UNL     1      -9.587  13.452  66.638  1.00  0.00    -0.270 A  
HETATM   38  H   UNL     1     -10.316  15.928  66.750  1.00  0.00     0.000 HD 
HETATM   39  C   UNL     1      -9.422  12.060  66.647  1.00  0.00    -0.222 A  
HETATM   40  C   UNL     1      -8.134  11.668  67.318  1.00  0.00    -0.160 C  
HETATM   41  C   UNL     1      -7.934  13.079  68.047  1.00  0.00    -0.155 C  
HETATM   42  C   UNL     1      -6.932  10.616  66.480  1.00  0.00    -0.125 C  
HETATM   43  O   UNL     1      -8.490  14.103  67.177  1.00  0.00    -0.206 OA 
HETATM   44  C   UNL     1      -7.037   8.862  66.866  1.00  0.00    -0.082 C  
HETATM   45  N   UNL     1      -8.379   8.344  67.223  1.00  0.00    -0.122 NA 
BRANCH  45  46
HETATM   46  C   UNL     1      -8.639   7.627  68.459  1.00  0.00    -0.129 C  
BRANCH  46  47
HETATM   47  C   UNL     1      -9.470   6.396  68.307  1.00  0.00    -0.121 C  
HETATM   48  C   UNL     1     -10.764   6.425  67.974  1.00  0.00    -0.362 C  
ENDBRANCH  46  47
ENDBRANCH  45  46
ENDBRANCH  23  24
ENDBRANCH  22  23
ENDBRANCH  21  22
ENDBRANCH  20  21
ENDBRANCH  19  20
ENDBRANCH  18  19
ENDBRANCH  17  18
ENDBRANCH  16  17
ENDBRANCH  15  16
ENDBRANCH  14  15
ENDBRANCH  13  14
ENDBRANCH  12  13
ENDBRANCH  11  12
ENDBRANCH  10  11
ENDBRANCH   9  10
ENDBRANCH   8   9
ENDBRANCH   7   8
ENDBRANCH   6   7
ENDBRANCH   5   6
ENDBRANCH   4   5
ENDBRANCH   3   4
ENDBRANCH   2   3
TORSDOF 24
ENDMDL
MODEL       51
REMARK 921   NORMALIZED FREE ENERGY PREDICTED BY IDOCK:   -4.70 KCAL/MOL
REMARK 922        TOTAL FREE ENERGY PREDICTED BY IDOCK:  -13.58 KCAL/MOL
REMARK 923 INTER-LIGAND FREE ENERGY PREDICTED BY IDOCK:  -10.62 KCAL/MOL
REMARK 924 INTRA-LIGAND FREE ENERGY PREDICTED BY IDOCK:   -2.96 KCAL/MOL
REMARK 927      BINDING AFFINITY PREDICTED BY RF-SCORE:    0.00 PKD
ROOT
HETATM    1  C   UNL     1     -10.778  19.043  67.318  1.00  0.00    -0.470 C  
HETATM    2  O   UNL     1      -9.526  19.434  67.865  1.00  0.00    -0.308 OA 
ENDROOT
BRANCH   2   3
HETATM    3  C   UNL     1      -8.690  18.304  68.106  1.00  0.00    -0.281 C  
BRANCH   3   4
HETATM    4  C   UNL     1      -7.386  18.768  68.739  1.00  0.00    -0.312 C  
BRANCH   4   5
HETATM    5  O   UNL     1      -6.399  17.753  68.568  1.00  0.00    -0.176 OA 
BRANCH   5   6
HETATM    6  C   UNL     1      -6.126  17.094  69.801  1.00  0.00    -0.229 C  
BRANCH   6   7
HETATM    7  C   UNL     1      -5.711  15.658  69.528  1.00  0.00    -0.120 C  
BRANCH   7   8
HETATM    8  O   UNL     1      -6.508  14.797  70.338  1.00  0.00    -0.175 OA 
BRANCH   8   9
HETATM    9  C   UNL     1      -5.702  13.892  71.083  1.00  0.00    -0.220 C  
BRANCH   9  10
HETATM   10  C   UNL     1      -5.413  12.673  70.225  1.00  0.00    -0.140 C  
BRANCH  10  11
HETATM   11  O   UNL     1      -6.055  11.547  70.810  1.00  0.00    -0.348 OA 
BRANCH  11  12
HETATM   12  C   UNL     1      -6.264  10.516  69.852  1.00  0.00    -0.090 C  
BRANCH  12  13
HETATM   13  C   UNL     1      -6.364   9.189  70.584  1.00  0.00    -0.058 C  
BRANCH  13  14
HETATM   14  O   UNL     1      -5.517   8.238  69.954  1.00  0.00    -0.023 OA 
BRANCH  14  15
HETATM   15  C   UNL     1      -6.065   6.931  70.072  1.00  0.00    -0.024 C  
BRANCH  15  16
HETATM   16  C   UNL     1      -7.452   6.888  69.455  1.00  0.00    -0.094 C  
BRANCH  16  17
HETATM   17  O   UNL     1      -7.296   6.593  68.073  1.00  0.00    -0.091 OA 
BRANCH  17  18
HETATM   18  C   UNL     1      -8.328   5.756  67.578  1.00  0.00    -0.104 C  
BRANCH  18  19
HETATM   19  C   UNL     1      -8.138   5.626  66.078  1.00  0.00    -0.109 C  
BRANCH  19  20
HETATM   20  O   UNL     1      -7.354   6.709  65.597  1.00  0.00    -0.071 OA 
BRANCH  20  21
HETATM   21  C   UNL     1      -7.888   7.259  64.394  1.00  0.00    -0.126 C  
BRANCH  21  22
HETATM   22  C   UNL     1      -8.359   8.701  64.613  1.00  0.00    -0.155 C  
BRANCH  22  23
HETATM   23  O   UNL     1      -9.367   8.883  65.641  1.00  0.00    -0.231 OA 
BRANCH  23  24
HETATM   24  C   UNL     1      -8.978   9.773  66.716  1.00  0.00    -0.138 C  
HETATM   25  C   UNL     1      -8.633  11.130  66.171  1.00  0.00    -0.172 C  
HETATM   26  C   UNL     1      -9.885  12.183  66.113  1.00  0.00    -0.254 C  
HETATM   27  C   UNL     1     -10.849  12.378  67.435  1.00  0.00    -0.238 C  
HETATM   28  C   UNL     1     -11.053  13.593  68.559  1.00  0.00    -0.275 C  
HETATM   29  O   UNL     1     -12.137  11.926  66.995  1.00  0.00    -0.600 OA 
HETATM   30  C   UNL     1     -12.154  13.432  69.612  1.00  0.00    -0.349 C  
HETATM   31  H   UNL     1     -12.693  12.038  67.758  1.00  0.00     0.000 HD 
HETATM   32  C   UNL     1     -11.919  12.052  70.175  1.00  0.00    -0.401 A  
HETATM   33  C   UNL     1     -12.748  11.501  71.134  1.00  0.00    -0.458 A  
HETATM   34  C   UNL     1     -12.734  10.139  71.396  1.00  0.00    -0.530 A  
HETATM   35  C   UNL     1     -11.878   9.274  70.657  1.00  0.00    -0.192 A  
HETATM   36  O   UNL     1     -12.048   7.927  70.747  1.00  0.00    -0.466 OA 
HETATM   37  C   UNL     1     -10.955   9.834  69.778  1.00  0.00    -0.256 A  
HETATM   38  H   UNL     1     -11.477   7.349  70.254  1.00  0.00     0.000 HD 
HETATM   39  C   UNL     1     -10.912  11.216  69.549  1.00  0.00    -0.276 A  
HETATM   40  C   UNL     1     -10.052  11.545  68.360  1.00  0.00    -0.207 C  
HETATM   41  C   UNL     1     -10.068  10.056  67.773  1.00  0.00    -0.183 C  
HETATM   42  C   UNL     1      -8.692  12.723  68.493  1.00  0.00    -0.045 C  
HETATM   43  O   UNL     1     -10.135   9.142  68.901  1.00  0.00    -0.185 OA 
HETATM   44  C   UNL     1      -9.078  14.409  67.998  1.00  0.00    -0.188 C  
HETATM   45  N   UNL     1     -10.481  14.847  68.186  1.00  0.00    -0.239 NA 
BRANCH  45  46
HETATM   46  C   UNL     1     -11.283  15.392  67.105  1.00  0.00    -0.256 C  
BRANCH  46  47
HETATM   47  C   UNL     1     -10.551  15.593  65.820  1.00  0.00    -0.374 C  
HETATM   48  C   UNL     1     -11.163  15.658  64.633  1.00  0.00    -0.380 C  
ENDBRANCH  46  47
ENDBRANCH  45  46
ENDBRANCH  23  24
ENDBRANCH  22  23
ENDBRANCH  21  22
ENDBRANCH  20  21
ENDBRANCH  19  20
ENDBRANCH  18  19
ENDBRANCH  17  18
ENDBRANCH  16  17
ENDBRANCH  15  16
ENDBRANCH  14  15
ENDBRANCH  13  14
ENDBRANCH  12  13
ENDBRANCH  11  12
ENDBRANCH  10  11
ENDBRANCH   9  10
ENDBRANCH   8   9
ENDBRANCH   7   8
ENDBRANCH   6   7
ENDBRANCH   5   6
ENDBRANCH   4   5
ENDBRANCH   3   4
ENDBRANCH   2   3
TORSDOF 24
ENDMDL
MODEL       52
REMARK 921   NORMALIZED FREE ENERGY PREDICTED BY IDOCK:   -4.69 KCAL/MOL
REMARK 922        TOTAL FREE ENERGY PREDICTED BY IDOCK:  -13.55 KCAL/MOL
REMARK 923 INTER-LIGAND FREE ENERGY PREDICTED BY IDOCK:  -10.95 KCAL/MOL
REMARK 924 INTRA-LIGAND FREE ENERGY PREDICTED BY IDOCK:   -2.60 KCAL/MOL
REMARK 927      BINDING AFFINITY PREDICTED BY RF-SCORE:    0.00 PKD
ROOT
HETATM    1  C   UNL     1      -7.860   8.734  71.507  1.00  0.00    -0.104 C  
HETATM    2  O   UNL     1      -8.835   8.736  72.542  1.00  0.00    -0.402 OA 
ENDROOT
BRANCH   2   3
HETATM    3  C   UNL     1      -8.353   8.073  73.709  1.00  0.00    -0.252 C  
BRANCH   3   4
HETATM    4  C   UNL     1      -9.333   6.978  74.105  1.00  0.00    -0.241 C  
BRANCH   4   5
HETATM    5  O   UNL     1     -10.519   7.110  73.323  1.00  0.00    -0.277 OA 
BRANCH   5   6
HETATM    6  C   UNL     1     -10.942   5.846  72.820  1.00  0.00    -0.265 C  
BRANCH   6   7
HETATM    7  C   UNL     1     -10.637   5.763  71.334  1.00  0.00    -0.253 C  
BRANCH   7   8
HETATM    8  O   UNL     1     -11.612   6.530  70.631  1.00  0.00    -0.348 OA 
BRANCH   8   9
HETATM    9  C   UNL     1     -11.035   7.210  69.523  1.00  0.00    -0.191 C  
BRANCH   9  10
HETATM   10  C   UNL     1     -10.479   6.183  68.552  1.00  0.00    -0.237 C  
BRANCH  10  11
HETATM   11  O   UNL     1     -10.999   6.458  67.258  1.00  0.00    -0.342 OA 
BRANCH  11  12
HETATM   12  C   UNL     1     -10.732   5.390  66.356  1.00  0.00    -0.217 C  
BRANCH  12  13
HETATM   13  C   UNL     1      -9.890   4.350  67.074  1.00  0.00    -0.194 C  
BRANCH  13  14
HETATM   14  O   UNL     1      -9.309   3.473  66.119  1.00  0.00    -0.162 OA 
BRANCH  14  15
HETATM   15  C   UNL     1      -9.360   4.051  64.820  1.00  0.00    -0.162 C  
BRANCH  15  16
HETATM   16  C   UNL     1      -7.989   3.998  64.170  1.00  0.00    -0.086 C  
BRANCH  16  17
HETATM   17  O   UNL     1      -7.044   4.459  65.127  1.00  0.00    -0.060 OA 
BRANCH  17  18
HETATM   18  C   UNL     1      -6.904   5.870  65.114  1.00  0.00    -0.051 C  
BRANCH  18  19
HETATM   19  C   UNL     1      -6.794   6.336  66.554  1.00  0.00    -0.062 C  
BRANCH  19  20
HETATM   20  O   UNL     1      -7.812   7.288  66.830  1.00  0.00    -0.108 OA 
BRANCH  20  21
HETATM   21  C   UNL     1      -8.195   8.012  65.662  1.00  0.00    -0.135 C  
BRANCH  21  22
HETATM   22  C   UNL     1      -9.141   9.164  66.017  1.00  0.00    -0.197 C  
BRANCH  22  23
HETATM   23  O   UNL     1      -9.193   9.524  67.422  1.00  0.00    -0.133 OA 
BRANCH  23  24
HETATM   24  C   UNL     1     -10.244  10.458  67.768  1.00  0.00    -0.193 C  
HETATM   25  C   UNL     1      -9.833  11.294  68.947  1.00  0.00    -0.153 C  
HETATM   26  C   UNL     1      -9.083  12.697  68.562  1.00  0.00    -0.052 C  
HETATM   27  C   UNL     1      -9.738  13.687  67.420  1.00  0.00    -0.228 C  
HETATM   28  C   UNL     1     -10.515  15.162  67.465  1.00  0.00    -0.258 C  
HETATM   29  O   UNL     1      -8.760  13.705  66.372  1.00  0.00    -0.443 OA 
HETATM   30  C   UNL     1     -10.899  15.822  66.137  1.00  0.00    -0.240 C  
HETATM   31  H   UNL     1      -9.138  14.276  65.713  1.00  0.00     0.000 HD 
HETATM   32  C   UNL     1     -11.614  14.729  65.381  1.00  0.00    -0.316 A  
HETATM   33  C   UNL     1     -12.082  14.914  64.094  1.00  0.00    -0.289 A  
HETATM   34  C   UNL     1     -12.426  13.832  63.296  1.00  0.00     0.210 A  
HETATM   35  C   UNL     1     -12.275  12.503  63.782  1.00  0.00    -0.525 A  
HETATM   36  O   UNL     1     -12.378  11.458  62.917  1.00  0.00    -0.954 OA 
HETATM   37  C   UNL     1     -11.922  12.312  65.116  1.00  0.00    -0.337 A  
HETATM   38  H   UNL     1     -12.278  10.570  63.241  1.00  0.00     0.000 HD 
HETATM   39  C   UNL     1     -11.634  13.396  65.955  1.00  0.00    -0.370 A  
HETATM   40  C   UNL     1     -10.999  12.937  67.239  1.00  0.00    -0.289 C  
HETATM   41  C   UNL     1     -10.602  11.492  66.677  1.00  0.00    -0.253 C  
HETATM   42  C   UNL     1     -11.689  13.410  68.838  1.00  0.00    -0.369 C  
HETATM   43  O   UNL     1     -11.621  11.101  65.718  1.00  0.00     0.007 OA 
HETATM   44  C   UNL     1     -10.934  14.849  69.611  1.00  0.00    -0.274 C  
HETATM   45  N   UNL     1     -10.372  15.870  68.697  1.00  0.00    -0.222 NA 
BRANCH  45  46
HETATM   46  C   UNL     1      -8.996  16.327  68.784  1.00  0.00    -0.243 C  
BRANCH  46  47
HETATM   47  C   UNL     1      -8.759  17.707  68.265  1.00  0.00    -0.276 C  
HETATM   48  C   UNL     1      -9.670  18.683  68.340  1.00  0.00    -0.405 C  
ENDBRANCH  46  47
ENDBRANCH  45  46
ENDBRANCH  23  24
ENDBRANCH  22  23
ENDBRANCH  21  22
ENDBRANCH  20  21
ENDBRANCH  19  20
ENDBRANCH  18  19
ENDBRANCH  17  18
ENDBRANCH  16  17
ENDBRANCH  15  16
ENDBRANCH  14  15
ENDBRANCH  13  14
ENDBRANCH  12  13
ENDBRANCH  11  12
ENDBRANCH  10  11
ENDBRANCH   9  10
ENDBRANCH   8   9
ENDBRANCH   7   8
ENDBRANCH   6   7
ENDBRANCH   5   6
ENDBRANCH   4   5
ENDBRANCH   3   4
ENDBRANCH   2   3
TORSDOF 24
ENDMDL
MODEL       53
REMARK 921   NORMALIZED FREE ENERGY PREDICTED BY IDOCK:   -4.63 KCAL/MOL
REMARK 922        TOTAL FREE ENERGY PREDICTED BY IDOCK:  -13.43 KCAL/MOL
REMARK 923 INTER-LIGAND FREE ENERGY PREDICTED BY IDOCK:  -10.13 KCAL/MOL
REMARK 924 INTRA-LIGAND FREE ENERGY PREDICTED BY IDOCK:   -3.30 KCAL/MOL
REMARK 927      BINDING AFFINITY PREDICTED BY RF-SCORE:    0.00 PKD
ROOT
HETATM    1  C   UNL     1      -9.966   3.798  63.008  1.00  0.00    -0.158 C  
HETATM    2  O   UNL     1     -10.410   4.156  64.309  1.00  0.00    -0.183 OA 
ENDROOT
BRANCH   2   3
HETATM    3  C   UNL     1      -9.312   4.467  65.165  1.00  0.00    -0.159 C  
BRANCH   3   4
HETATM    4  C   UNL     1      -9.629   4.003  66.579  1.00  0.00    -0.205 C  
BRANCH   4   5
HETATM    5  O   UNL     1     -10.380   5.017  67.244  1.00  0.00    -0.188 OA 
BRANCH   5   6
HETATM    6  C   UNL     1      -9.796   5.342  68.502  1.00  0.00    -0.152 C  
BRANCH   6   7
HETATM    7  C   UNL     1      -9.661   4.080  69.338  1.00  0.00    -0.187 C  
BRANCH   7   8
HETATM    8  O   UNL     1      -8.807   4.363  70.445  1.00  0.00    -0.083 OA 
BRANCH   8   9
HETATM    9  C   UNL     1      -8.457   5.742  70.491  1.00  0.00    -0.127 C  
BRANCH   9  10
HETATM   10  C   UNL     1      -7.595   5.989  71.716  1.00  0.00    -0.096 C  
BRANCH  10  11
HETATM   11  O   UNL     1      -6.913   4.784  72.038  1.00  0.00    -0.056 OA 
BRANCH  11  12
HETATM   12  C   UNL     1      -6.876   4.570  73.444  1.00  0.00    -0.064 C  
BRANCH  12  13
HETATM   13  C   UNL     1      -7.699   3.335  73.768  1.00  0.00    -0.065 C  
BRANCH  13  14
HETATM   14  O   UNL     1      -8.814   3.708  74.566  1.00  0.00    -0.090 OA 
BRANCH  14  15
HETATM   15  C   UNL     1     -10.012   3.652  73.801  1.00  0.00    -0.118 C  
BRANCH  15  16
HETATM   16  C   UNL     1     -10.729   4.990  73.853  1.00  0.00    -0.299 C  
BRANCH  16  17
HETATM   17  O   UNL     1     -11.096   5.331  72.523  1.00  0.00    -0.246 OA 
BRANCH  17  18
HETATM   18  C   UNL     1     -12.177   6.247  72.478  1.00  0.00     0.016 C  
BRANCH  18  19
HETATM   19  C   UNL     1     -12.159   6.917  71.116  1.00  0.00    -0.381 C  
BRANCH  19  20
HETATM   20  O   UNL     1     -13.055   8.019  71.111  1.00  0.00    -0.198 OA 
BRANCH  20  21
HETATM   21  C   UNL     1     -12.731   8.974  72.120  1.00  0.00    -0.401 C  
BRANCH  21  22
HETATM   22  C   UNL     1     -12.315  10.310  71.496  1.00  0.00    -0.390 C  
BRANCH  22  23
HETATM   23  O   UNL     1     -12.381  10.375  70.049  1.00  0.00    -0.249 OA 
BRANCH  23  24
HETATM   24  C   UNL     1     -11.216  10.958  69.416  1.00  0.00    -0.272 C  
HETATM   25  C   UNL     1      -9.986  10.163  69.754  1.00  0.00    -0.258 C  
HETATM   26  C   UNL     1      -9.632   8.969  68.692  1.00  0.00    -0.158 C  
HETATM   27  C   UNL     1      -9.622   9.289  67.076  1.00  0.00    -0.171 C  
HETATM   28  C   UNL     1      -8.424   9.437  65.925  1.00  0.00    -0.126 C  
HETATM   29  O   UNL     1     -10.675   8.468  66.553  1.00  0.00    -0.210 OA 
HETATM   30  C   UNL     1      -8.840   9.649  64.466  1.00  0.00    -0.257 C  
HETATM   31  H   UNL     1     -10.670   8.653  65.620  1.00  0.00     0.000 HD 
HETATM   32  C   UNL     1      -9.829  10.786  64.531  1.00  0.00    -0.369 A  
HETATM   33  C   UNL     1     -10.484  11.253  63.408  1.00  0.00    -0.424 A  
HETATM   34  C   UNL     1     -11.616  12.048  63.518  1.00  0.00    -0.553 A  
HETATM   35  C   UNL     1     -12.142  12.377  64.799  1.00  0.00    -0.416 A  
HETATM   36  O   UNL     1     -13.376  12.943  64.891  1.00  0.00    -0.716 OA 
HETATM   37  C   UNL     1     -11.421  12.015  65.934  1.00  0.00    -0.333 A  
HETATM   38  H   UNL     1     -13.728  13.162  65.746  1.00  0.00     0.000 HD 
HETATM   39  C   UNL     1     -10.240  11.266  65.838  1.00  0.00    -0.298 A  
HETATM   40  C   UNL     1      -9.811  10.751  67.184  1.00  0.00    -0.216 C  
HETATM   41  C   UNL     1     -11.238  10.983  67.872  1.00  0.00    -0.310 C  
HETATM   42  C   UNL     1      -8.153  11.073  67.819  1.00  0.00    -0.116 C  
HETATM   43  O   UNL     1     -11.839  12.150  67.248  1.00  0.00    -0.530 OA 
HETATM   44  C   UNL     1      -6.949   9.765  67.537  1.00  0.00    -0.083 C  
HETATM   45  N   UNL     1      -7.150   8.933  66.327  1.00  0.00    -0.082 NA 
BRANCH  45  46
HETATM   46  C   UNL     1      -7.246   7.485  66.379  1.00  0.00    -0.075 C  
BRANCH  46  47
HETATM   47  C   UNL     1      -6.510   6.848  67.511  1.00  0.00    -0.050 C  
HETATM   48  C   UNL     1      -6.110   5.572  67.495  1.00  0.00    -0.029 C  
ENDBRANCH  46  47
ENDBRANCH  45  46
ENDBRANCH  23  24
ENDBRANCH  22  23
ENDBRANCH  21  22
ENDBRANCH  20  21
ENDBRANCH  19  20
ENDBRANCH  18  19
ENDBRANCH  17  18
ENDBRANCH  16  17
ENDBRANCH  15  16
ENDBRANCH  14  15
ENDBRANCH  13  14
ENDBRANCH  12  13
ENDBRANCH  11  12
ENDBRANCH  10  11
ENDBRANCH   9  10
ENDBRANCH   8   9
ENDBRANCH   7   8
ENDBRANCH   6   7
ENDBRANCH   5   6
ENDBRANCH   4   5
ENDBRANCH   3   4
ENDBRANCH   2   3
TORSDOF 24
ENDMDL
MODEL       54
REMARK 921   NORMALIZED FREE ENERGY PREDICTED BY IDOCK:   -4.61 KCAL/MOL
REMARK 922        TOTAL FREE ENERGY PREDICTED BY IDOCK:  -13.38 KCAL/MOL
REMARK 923 INTER-LIGAND FREE ENERGY PREDICTED BY IDOCK:  -10.55 KCAL/MOL
REMARK 924 INTRA-LIGAND FREE ENERGY PREDICTED BY IDOCK:   -2.82 KCAL/MOL
REMARK 927      BINDING AFFINITY PREDICTED BY RF-SCORE:    0.00 PKD
ROOT
HETATM    1  C   UNL     1     -13.632   6.582  72.040  1.00  0.00     0.235 C  
HETATM    2  O   UNL     1     -14.043   7.616  71.157  1.00  0.00    -0.305 OA 
ENDROOT
BRANCH   2   3
HETATM    3  C   UNL     1     -14.264   8.839  71.857  1.00  0.00    -0.389 C  
BRANCH   3   4
HETATM    4  C   UNL     1     -12.925   9.431  72.270  1.00  0.00    -0.400 C  
BRANCH   4   5
HETATM    5  O   UNL     1     -12.015   9.330  71.176  1.00  0.00    -0.293 OA 
BRANCH   5   6
HETATM    6  C   UNL     1     -10.718   8.945  71.625  1.00  0.00    -0.347 C  
BRANCH   6   7
HETATM    7  C   UNL     1     -10.228   7.763  70.805  1.00  0.00    -0.197 C  
BRANCH   7   8
HETATM    8  O   UNL     1     -11.069   7.629  69.661  1.00  0.00    -0.186 OA 
BRANCH   8   9
HETATM    9  C   UNL     1     -11.082   6.290  69.181  1.00  0.00    -0.390 C  
BRANCH   9  10
HETATM   10  C   UNL     1      -9.913   6.098  68.231  1.00  0.00    -0.143 C  
BRANCH  10  11
HETATM   11  O   UNL     1     -10.393   6.209  66.897  1.00  0.00    -0.196 OA 
BRANCH  11  12
HETATM   12  C   UNL     1     -10.474   4.935  66.269  1.00  0.00    -0.304 C  
BRANCH  12  13
HETATM   13  C   UNL     1      -9.361   4.830  65.242  1.00  0.00    -0.143 C  
BRANCH  13  14
HETATM   14  O   UNL     1      -8.191   4.319  65.865  1.00  0.00    -0.108 OA 
BRANCH  14  15
HETATM   15  C   UNL     1      -7.107   5.226  65.706  1.00  0.00    -0.068 C  
BRANCH  15  16
HETATM   16  C   UNL     1      -6.919   5.563  64.236  1.00  0.00    -0.048 C  
BRANCH  16  17
HETATM   17  O   UNL     1      -6.075   6.704  64.164  1.00  0.00    -0.033 OA 
BRANCH  17  18
HETATM   18  C   UNL     1      -6.502   7.632  63.180  1.00  0.00    -0.062 C  
BRANCH  18  19
HETATM   19  C   UNL     1      -6.664   8.980  63.857  1.00  0.00    -0.088 C  
BRANCH  19  20
HETATM   20  O   UNL     1      -8.044   9.308  63.951  1.00  0.00    -0.133 OA 
BRANCH  20  21
HETATM   21  C   UNL     1      -8.623   8.831  65.164  1.00  0.00    -0.182 C  
BRANCH  21  22
HETATM   22  C   UNL     1      -8.398   9.827  66.307  1.00  0.00    -0.116 C  
BRANCH  22  23
HETATM   23  O   UNL     1      -9.084   9.525  67.548  1.00  0.00    -0.130 OA 
BRANCH  23  24
HETATM   24  C   UNL     1     -10.130  10.462  67.904  1.00  0.00    -0.171 C  
HETATM   25  C   UNL     1      -9.707  11.293  69.083  1.00  0.00     0.008 C  
HETATM   26  C   UNL     1      -8.954  12.694  68.698  1.00  0.00     0.047 C  
HETATM   27  C   UNL     1      -9.613  13.690  67.563  1.00  0.00    -0.220 C  
HETATM   28  C   UNL     1     -10.383  15.169  67.617  1.00  0.00    -0.248 C  
HETATM   29  O   UNL     1      -8.641  13.707  66.508  1.00  0.00    -0.439 OA 
HETATM   30  C   UNL     1     -10.773  15.834  66.294  1.00  0.00    -0.282 C  
HETATM   31  H   UNL     1      -9.021  14.282  65.854  1.00  0.00     0.000 HD 
HETATM   32  C   UNL     1     -11.497  14.746  65.540  1.00  0.00    -0.329 A  
HETATM   33  C   UNL     1     -11.973  14.937  64.256  1.00  0.00    -0.355 A  
HETATM   34  C   UNL     1     -12.326  13.860  63.457  1.00  0.00    -0.075 A  
HETATM   35  C   UNL     1     -12.178  12.528  63.937  1.00  0.00    -0.503 A  
HETATM   36  O   UNL     1     -12.291  11.486  63.070  1.00  0.00    -0.975 OA 
HETATM   37  C   UNL     1     -11.817  12.331  65.268  1.00  0.00    -0.355 A  
HETATM   38  H   UNL     1     -12.192  10.597  63.391  1.00  0.00     0.000 HD 
HETATM   39  C   UNL     1     -11.519  13.412  66.109  1.00  0.00    -0.354 A  
HETATM   40  C   UNL     1     -10.878  12.946  67.388  1.00  0.00    -0.272 C  
HETATM   41  C   UNL     1     -10.490  11.502  66.819  1.00  0.00    -0.239 C  
HETATM   42  C   UNL     1     -11.556  13.417  68.993  1.00  0.00    -0.358 C  
HETATM   43  O   UNL     1     -11.517  11.117  65.865  1.00  0.00    -0.062 OA 
HETATM   44  C   UNL     1     -10.790  14.850  69.766  1.00  0.00    -0.235 C  
HETATM   45  N   UNL     1     -10.229  15.872  68.851  1.00  0.00    -0.215 NA 
BRANCH  45  46
HETATM   46  C   UNL     1      -8.851  16.324  68.930  1.00  0.00    -0.253 C  
BRANCH  46  47
HETATM   47  C   UNL     1      -8.604  17.687  68.376  1.00  0.00    -0.284 C  
HETATM   48  C   UNL     1      -9.315  18.762  68.734  1.00  0.00    -0.357 C  
ENDBRANCH  46  47
ENDBRANCH  45  46
ENDBRANCH  23  24
ENDBRANCH  22  23
ENDBRANCH  21  22
ENDBRANCH  20  21
ENDBRANCH  19  20
ENDBRANCH  18  19
ENDBRANCH  17  18
ENDBRANCH  16  17
ENDBRANCH  15  16
ENDBRANCH  14  15
ENDBRANCH  13  14
ENDBRANCH  12  13
ENDBRANCH  11  12
ENDBRANCH  10  11
ENDBRANCH   9  10
ENDBRANCH   8   9
ENDBRANCH   7   8
ENDBRANCH   6   7
ENDBRANCH   5   6
ENDBRANCH   4   5
ENDBRANCH   3   4
ENDBRANCH   2   3
TORSDOF 24
ENDMDL
MODEL       55
REMARK 921   NORMALIZED FREE ENERGY PREDICTED BY IDOCK:   -4.60 KCAL/MOL
REMARK 922        TOTAL FREE ENERGY PREDICTED BY IDOCK:  -13.35 KCAL/MOL
REMARK 923 INTER-LIGAND FREE ENERGY PREDICTED BY IDOCK:  -11.25 KCAL/MOL
REMARK 924 INTRA-LIGAND FREE ENERGY PREDICTED BY IDOCK:   -2.10 KCAL/MOL
REMARK 927      BINDING AFFINITY PREDICTED BY RF-SCORE:    0.00 PKD
ROOT
HETATM    1  C   UNL     1     -10.432   8.580  67.913  1.00  0.00    -0.201 C  
HETATM    2  O   UNL     1      -9.987   7.824  66.796  1.00  0.00    -0.230 OA 
ENDROOT
BRANCH   2   3
HETATM    3  C   UNL     1     -10.301   6.440  66.948  1.00  0.00    -0.241 C  
BRANCH   3   4
HETATM    4  C   UNL     1      -9.245   5.779  67.821  1.00  0.00    -0.105 C  
BRANCH   4   5
HETATM    5  O   UNL     1      -9.874   4.804  68.653  1.00  0.00    -0.161 OA 
BRANCH   5   6
HETATM    6  C   UNL     1      -9.249   3.532  68.509  1.00  0.00    -0.166 C  
BRANCH   6   7
HETATM    7  C   UNL     1      -9.010   2.926  69.882  1.00  0.00    -0.106 C  
BRANCH   7   8
HETATM    8  O   UNL     1      -9.931   3.514  70.799  1.00  0.00    -0.115 OA 
BRANCH   8   9
HETATM    9  C   UNL     1      -9.870   2.882  72.072  1.00  0.00    -0.172 C  
BRANCH   9  10
HETATM   10  C   UNL     1     -10.370   3.853  73.127  1.00  0.00    -0.168 C  
BRANCH  10  11
HETATM   11  O   UNL     1      -9.552   5.016  73.093  1.00  0.00    -0.139 OA 
BRANCH  11  12
HETATM   12  C   UNL     1     -10.312   6.190  73.352  1.00  0.00    -0.239 C  
BRANCH  12  13
HETATM   13  C   UNL     1     -11.652   6.063  72.650  1.00  0.00    -0.221 C  
BRANCH  13  14
HETATM   14  O   UNL     1     -11.661   6.893  71.496  1.00  0.00    -0.260 OA 
BRANCH  14  15
HETATM   15  C   UNL     1     -12.742   7.815  71.557  1.00  0.00    -0.332 C  
BRANCH  15  16
HETATM   16  C   UNL     1     -12.216   9.223  71.776  1.00  0.00    -0.385 C  
BRANCH  16  17
HETATM   17  O   UNL     1     -13.294  10.011  72.265  1.00  0.00    -0.429 OA 
BRANCH  17  18
HETATM   18  C   UNL     1     -13.201  11.367  71.859  1.00  0.00    -0.380 C  
BRANCH  18  19
HETATM   19  C   UNL     1     -12.529  11.397  70.499  1.00  0.00    -0.293 C  
BRANCH  19  20
HETATM   20  O   UNL     1     -11.894  12.653  70.304  1.00  0.00    -0.310 OA 
BRANCH  20  21
HETATM   21  C   UNL     1     -12.650  13.724  70.866  1.00  0.00    -0.356 C  
BRANCH  21  22
HETATM   22  C   UNL     1     -11.945  15.067  70.644  1.00  0.00    -0.318 C  
BRANCH  22  23
HETATM   23  O   UNL     1     -12.384  15.823  69.486  1.00  0.00    -0.281 OA 
BRANCH  23  24
HETATM   24  C   UNL     1     -11.404  15.925  68.425  1.00  0.00    -0.361 C  
HETATM   25  C   UNL     1     -10.043  16.207  68.996  1.00  0.00    -0.247 C  
HETATM   26  C   UNL     1      -9.151  14.875  69.326  1.00  0.00    -0.097 C  
HETATM   27  C   UNL     1      -9.009  13.686  68.194  1.00  0.00    -0.191 C  
HETATM   28  C   UNL     1      -7.774  13.164  67.202  1.00  0.00    -0.019 C  
HETATM   29  O   UNL     1      -9.631  12.548  68.805  1.00  0.00    -0.398 OA 
HETATM   30  C   UNL     1      -8.014  11.926  66.332  1.00  0.00     0.129 C  
HETATM   31  H   UNL     1      -9.549  11.862  68.152  1.00  0.00     0.000 HD 
HETATM   32  C   UNL     1      -9.328  12.212  65.647  1.00  0.00    -0.040 A  
HETATM   33  C   UNL     1      -9.926  11.298  64.801  1.00  0.00    -0.327 A  
HETATM   34  C   UNL     1     -11.263  11.417  64.449  1.00  0.00    -0.277 A  
HETATM   35  C   UNL     1     -12.055  12.475  64.980  1.00  0.00    -0.446 A  
HETATM   36  O   UNL     1     -13.406  12.441  64.828  1.00  0.00    -0.718 OA 
HETATM   37  C   UNL     1     -11.432  13.466  65.734  1.00  0.00    -0.320 A  
HETATM   38  H   UNL     1     -13.935  13.146  65.183  1.00  0.00     0.000 HD 
HETATM   39  C   UNL     1     -10.067  13.395  66.045  1.00  0.00    -0.308 A  
HETATM   40  C   UNL     1      -9.696  14.402  67.099  1.00  0.00    -0.248 C  
HETATM   41  C   UNL     1     -11.202  14.648  67.579  1.00  0.00    -0.333 C  
HETATM   42  C   UNL     1      -8.359  15.584  66.826  1.00  0.00    -0.301 C  
HETATM   43  O   UNL     1     -12.063  14.493  66.418  1.00  0.00    -0.385 OA 
HETATM   44  C   UNL     1      -6.756  15.104  67.489  1.00  0.00    -0.160 C  
HETATM   45  N   UNL     1      -6.480  13.650  67.560  1.00  0.00    -0.275 NA 
BRANCH  45  46
HETATM   46  C   UNL     1      -6.087  12.987  68.791  1.00  0.00    -0.075 C  
BRANCH  46  47
HETATM   47  C   UNL     1      -6.008  13.877  69.986  1.00  0.00    -0.143 C  
HETATM   48  C   UNL     1      -5.727  13.429  71.214  1.00  0.00    -0.104 C  
ENDBRANCH  46  47
ENDBRANCH  45  46
ENDBRANCH  23  24
ENDBRANCH  22  23
ENDBRANCH  21  22
ENDBRANCH  20  21
ENDBRANCH  19  20
ENDBRANCH  18  19
ENDBRANCH  17  18
ENDBRANCH  16  17
ENDBRANCH  15  16
ENDBRANCH  14  15
ENDBRANCH  13  14
ENDBRANCH  12  13
ENDBRANCH  11  12
ENDBRANCH  10  11
ENDBRANCH   9  10
ENDBRANCH   8   9
ENDBRANCH   7   8
ENDBRANCH   6   7
ENDBRANCH   5   6
ENDBRANCH   4   5
ENDBRANCH   3   4
ENDBRANCH   2   3
TORSDOF 24
ENDMDL
MODEL       56
REMARK 921   NORMALIZED FREE ENERGY PREDICTED BY IDOCK:   -4.60 KCAL/MOL
REMARK 922        TOTAL FREE ENERGY PREDICTED BY IDOCK:  -13.34 KCAL/MOL
REMARK 923 INTER-LIGAND FREE ENERGY PREDICTED BY IDOCK:  -11.09 KCAL/MOL
REMARK 924 INTRA-LIGAND FREE ENERGY PREDICTED BY IDOCK:   -2.26 KCAL/MOL
REMARK 927      BINDING AFFINITY PREDICTED BY RF-SCORE:    0.00 PKD
ROOT
HETATM    1  C   UNL     1      -6.136  20.612  65.114  1.00  0.00    -0.259 C  
HETATM    2  O   UNL     1      -7.110  19.577  65.148  1.00  0.00    -0.407 OA 
ENDROOT
BRANCH   2   3
HETATM    3  C   UNL     1      -8.198  19.916  66.005  1.00  0.00    -0.289 C  
BRANCH   3   4
HETATM    4  C   UNL     1      -7.653  20.467  67.315  1.00  0.00    -0.331 C  
BRANCH   4   5
HETATM    5  O   UNL     1      -8.123  19.656  68.391  1.00  0.00    -0.330 OA 
BRANCH   5   6
HETATM    6  C   UNL     1      -7.035  19.136  69.151  1.00  0.00    -0.326 C  
BRANCH   6   7
HETATM    7  C   UNL     1      -6.592  17.809  68.558  1.00  0.00    -0.213 C  
BRANCH   7   8
HETATM    8  O   UNL     1      -7.750  17.010  68.326  1.00  0.00    -0.193 OA 
BRANCH   8   9
HETATM    9  C   UNL     1      -7.621  16.243  67.135  1.00  0.00    -0.195 C  
BRANCH   9  10
HETATM   10  C   UNL     1      -8.854  16.459  66.276  1.00  0.00    -0.332 C  
BRANCH  10  11
HETATM   11  O   UNL     1      -9.475  15.199  66.054  1.00  0.00    -0.301 OA 
BRANCH  11  12
HETATM   12  C   UNL     1     -10.856  15.236  66.394  1.00  0.00    -0.317 C  
BRANCH  12  13
HETATM   13  C   UNL     1     -11.627  14.415  65.375  1.00  0.00    -0.347 C  
BRANCH  13  14
HETATM   14  O   UNL     1     -12.282  13.340  66.034  1.00  0.00    -0.421 OA 
BRANCH  14  15
HETATM   15  C   UNL     1     -11.758  12.094  65.591  1.00  0.00    -0.323 C  
BRANCH  15  16
HETATM   16  C   UNL     1     -11.012  11.408  66.722  1.00  0.00    -0.291 C  
BRANCH  16  17
HETATM   17  O   UNL     1     -11.875  11.385  67.851  1.00  0.00    -0.588 OA 
BRANCH  17  18
HETATM   18  C   UNL     1     -11.297  12.006  68.988  1.00  0.00    -0.275 C  
BRANCH  18  19
HETATM   19  C   UNL     1     -12.049  11.520  70.212  1.00  0.00    -0.359 C  
BRANCH  19  20
HETATM   20  O   UNL     1     -12.359  10.141  70.070  1.00  0.00    -0.150 OA 
BRANCH  20  21
HETATM   21  C   UNL     1     -13.296   9.702  71.052  1.00  0.00    -0.204 C  
BRANCH  21  22
HETATM   22  C   UNL     1     -12.728   8.535  71.868  1.00  0.00    -0.360 C  
BRANCH  22  23
HETATM   23  O   UNL     1     -11.464   8.790  72.533  1.00  0.00    -0.306 OA 
BRANCH  23  24
HETATM   24  C   UNL     1     -10.363   7.968  72.073  1.00  0.00    -0.236 C  
HETATM   25  C   UNL     1     -10.871   6.641  71.584  1.00  0.00    -0.269 C  
HETATM   26  C   UNL     1     -11.224   6.590  69.986  1.00  0.00    -0.453 C  
HETATM   27  C   UNL     1     -10.139   7.172  68.891  1.00  0.00    -0.177 C  
HETATM   28  C   UNL     1      -9.125   6.469  67.770  1.00  0.00    -0.112 C  
HETATM   29  O   UNL     1     -10.821   8.276  68.279  1.00  0.00    -0.436 OA 
HETATM   30  C   UNL     1      -8.319   7.384  66.844  1.00  0.00    -0.122 C  
HETATM   31  H   UNL     1     -10.195   8.611  67.648  1.00  0.00     0.000 HD 
HETATM   32  C   UNL     1      -7.671   8.372  67.783  1.00  0.00    -0.103 A  
HETATM   33  C   UNL     1      -6.887   9.413  67.324  1.00  0.00    -0.084 A  
HETATM   34  C   UNL     1      -6.580  10.492  68.140  1.00  0.00    -0.063 A  
HETATM   35  C   UNL     1      -7.095  10.560  69.466  1.00  0.00    -0.124 A  
HETATM   36  O   UNL     1      -6.995  11.723  70.165  1.00  0.00    -0.408 OA 
HETATM   37  C   UNL     1      -7.782   9.461  69.976  1.00  0.00    -0.123 A  
HETATM   38  H   UNL     1      -7.338  11.769  71.050  1.00  0.00     0.000 HD 
HETATM   39  C   UNL     1      -8.045   8.335  69.184  1.00  0.00    -0.120 A  
HETATM   40  C   UNL     1      -9.041   7.424  69.848  1.00  0.00    -0.141 C  
HETATM   41  C   UNL     1      -9.566   8.532  70.875  1.00  0.00    -0.185 C  
HETATM   42  C   UNL     1      -8.669   5.678  70.115  1.00  0.00    -0.140 C  
HETATM   43  O   UNL     1      -8.445   9.402  71.191  1.00  0.00    -0.303 OA 
HETATM   44  C   UNL     1      -9.291   4.553  68.857  1.00  0.00    -0.147 C  
HETATM   45  N   UNL     1      -9.414   5.100  67.485  1.00  0.00    -0.127 NA 
BRANCH  45  46
HETATM   46  C   UNL     1     -10.657   5.060  66.734  1.00  0.00    -0.157 C  
BRANCH  46  47
HETATM   47  C   UNL     1     -10.494   5.059  65.251  1.00  0.00     0.200 C  
HETATM   48  C   UNL     1     -10.860   4.033  64.476  1.00  0.00    -0.142 C  
ENDBRANCH  46  47
ENDBRANCH  45  46
ENDBRANCH  23  24
ENDBRANCH  22  23
ENDBRANCH  21  22
ENDBRANCH  20  21
ENDBRANCH  19  20
ENDBRANCH  18  19
ENDBRANCH  17  18
ENDBRANCH  16  17
ENDBRANCH  15  16
ENDBRANCH  14  15
ENDBRANCH  13  14
ENDBRANCH  12  13
ENDBRANCH  11  12
ENDBRANCH  10  11
ENDBRANCH   9  10
ENDBRANCH   8   9
ENDBRANCH   7   8
ENDBRANCH   6   7
ENDBRANCH   5   6
ENDBRANCH   4   5
ENDBRANCH   3   4
ENDBRANCH   2   3
TORSDOF 24
ENDMDL
MODEL       57
REMARK 921   NORMALIZED FREE ENERGY PREDICTED BY IDOCK:   -4.60 KCAL/MOL
REMARK 922        TOTAL FREE ENERGY PREDICTED BY IDOCK:  -13.34 KCAL/MOL
REMARK 923 INTER-LIGAND FREE ENERGY PREDICTED BY IDOCK:  -10.75 KCAL/MOL
REMARK 924 INTRA-LIGAND FREE ENERGY PREDICTED BY IDOCK:   -2.60 KCAL/MOL
REMARK 927      BINDING AFFINITY PREDICTED BY RF-SCORE:    0.00 PKD
ROOT
HETATM    1  C   UNL     1      -5.872  10.435  64.881  1.00  0.00    -0.130 C  
HETATM    2  O   UNL     1      -6.909  10.687  65.820  1.00  0.00    -0.133 OA 
ENDROOT
BRANCH   2   3
HETATM    3  C   UNL     1      -7.718   9.530  66.022  1.00  0.00    -0.100 C  
BRANCH   3   4
HETATM    4  C   UNL     1      -8.303   9.087  64.689  1.00  0.00    -0.172 C  
BRANCH   4   5
HETATM    5  O   UNL     1      -9.548   9.753  64.483  1.00  0.00    -0.273 OA 
BRANCH   5   6
HETATM    6  C   UNL     1      -9.540  10.482  63.259  1.00  0.00    -0.331 C  
BRANCH   6   7
HETATM    7  C   UNL     1     -10.106  11.873  63.493  1.00  0.00    -0.441 C  
BRANCH   7   8
HETATM    8  O   UNL     1     -10.095  12.133  64.895  1.00  0.00    -0.266 OA 
BRANCH   8   9
HETATM    9  C   UNL     1     -10.430  13.487  65.174  1.00  0.00    -0.364 C  
BRANCH   9  10
HETATM   10  C   UNL     1     -11.785  13.525  65.860  1.00  0.00    -0.352 C  
BRANCH  10  11
HETATM   11  O   UNL     1     -11.928  12.347  66.643  1.00  0.00    -0.562 OA 
BRANCH  11  12
HETATM   12  C   UNL     1     -11.608  12.592  68.008  1.00  0.00    -0.342 C  
BRANCH  12  13
HETATM   13  C   UNL     1     -12.055  13.999  68.364  1.00  0.00    -0.283 C  
BRANCH  13  14
HETATM   14  O   UNL     1     -11.091  14.596  69.221  1.00  0.00    -0.249 OA 
BRANCH  14  15
HETATM   15  C   UNL     1     -11.615  15.783  69.804  1.00  0.00    -0.355 C  
BRANCH  15  16
HETATM   16  C   UNL     1     -12.738  15.442  70.767  1.00  0.00    -0.459 C  
BRANCH  16  17
HETATM   17  O   UNL     1     -12.161  14.762  71.874  1.00  0.00    -0.343 OA 
BRANCH  17  18
HETATM   18  C   UNL     1     -13.097  13.942  72.554  1.00  0.00    -0.437 C  
BRANCH  18  19
HETATM   19  C   UNL     1     -13.523  12.840  71.603  1.00  0.00    -0.137 C  
BRANCH  19  20
HETATM   20  O   UNL     1     -12.554  11.801  71.606  1.00  0.00    -0.256 OA 
BRANCH  20  21
HETATM   21  C   UNL     1     -13.004  10.652  70.889  1.00  0.00    -0.340 C  
BRANCH  21  22
HETATM   22  C   UNL     1     -11.982   9.514  70.984  1.00  0.00    -0.328 C  
BRANCH  22  23
HETATM   23  O   UNL     1     -10.805   9.791  71.785  1.00  0.00    -0.085 OA 
BRANCH  23  24
HETATM   24  C   UNL     1      -9.638   9.009  71.434  1.00  0.00    -0.285 C  
HETATM   25  C   UNL     1      -9.120   8.275  72.640  1.00  0.00    -0.327 C  
HETATM   26  C   UNL     1      -9.735   6.772  72.842  1.00  0.00    -0.173 C  
HETATM   27  C   UNL     1      -9.773   5.727  71.568  1.00  0.00    -0.159 C  
HETATM   28  C   UNL     1      -8.925   4.349  71.167  1.00  0.00    -0.121 C  
HETATM   29  O   UNL     1     -11.171   5.497  71.349  1.00  0.00    -0.160 OA 
HETATM   30  C   UNL     1      -9.335   3.583  69.905  1.00  0.00    -0.247 C  
HETATM   31  H   UNL     1     -11.193   4.894  70.614  1.00  0.00     0.000 HD 
HETATM   32  C   UNL     1      -9.397   4.648  68.838  1.00  0.00    -0.200 A  
HETATM   33  C   UNL     1      -9.787   4.366  67.543  1.00  0.00    -0.180 A  
HETATM   34  C   UNL     1     -10.162   5.378  66.671  1.00  0.00    -0.285 A  
HETATM   35  C   UNL     1     -10.178   6.733  67.107  1.00  0.00    -0.225 A  
HETATM   36  O   UNL     1     -10.776   7.679  66.333  1.00  0.00    -0.330 OA 
HETATM   37  C   UNL     1      -9.670   7.038  68.368  1.00  0.00    -0.139 A  
HETATM   38  H   UNL     1     -10.787   8.583  66.624  1.00  0.00     0.000 HD 
HETATM   39  C   UNL     1      -9.227   6.033  69.237  1.00  0.00    -0.133 A  
HETATM   40  C   UNL     1      -9.008   6.570  70.625  1.00  0.00    -0.148 C  
HETATM   41  C   UNL     1      -9.871   7.897  70.387  1.00  0.00    -0.183 C  
HETATM   42  C   UNL     1      -7.428   6.350  71.469  1.00  0.00    -0.090 C  
HETATM   43  O   UNL     1      -9.716   8.275  68.992  1.00  0.00    -0.162 OA 
HETATM   44  C   UNL     1      -7.337   4.942  72.585  1.00  0.00    -0.089 C  
HETATM   45  N   UNL     1      -8.183   3.774  72.244  1.00  0.00    -0.083 NA 
BRANCH  45  46
HETATM   46  C   UNL     1      -9.137   3.198  73.175  1.00  0.00    -0.090 C  
BRANCH  46  47
HETATM   47  C   UNL     1      -9.855   1.990  72.672  1.00  0.00    -0.180 C  
HETATM   48  C   UNL     1     -11.185   1.860  72.714  1.00  0.00    -0.016 C  
ENDBRANCH  46  47
ENDBRANCH  45  46
ENDBRANCH  23  24
ENDBRANCH  22  23
ENDBRANCH  21  22
ENDBRANCH  20  21
ENDBRANCH  19  20
ENDBRANCH  18  19
ENDBRANCH  17  18
ENDBRANCH  16  17
ENDBRANCH  15  16
ENDBRANCH  14  15
ENDBRANCH  13  14
ENDBRANCH  12  13
ENDBRANCH  11  12
ENDBRANCH  10  11
ENDBRANCH   9  10
ENDBRANCH   8   9
ENDBRANCH   7   8
ENDBRANCH   6   7
ENDBRANCH   5   6
ENDBRANCH   4   5
ENDBRANCH   3   4
ENDBRANCH   2   3
TORSDOF 24
ENDMDL
MODEL       58
REMARK 921   NORMALIZED FREE ENERGY PREDICTED BY IDOCK:   -4.56 KCAL/MOL
REMARK 922        TOTAL FREE ENERGY PREDICTED BY IDOCK:  -13.26 KCAL/MOL
REMARK 923 INTER-LIGAND FREE ENERGY PREDICTED BY IDOCK:  -10.88 KCAL/MOL
REMARK 924 INTRA-LIGAND FREE ENERGY PREDICTED BY IDOCK:   -2.38 KCAL/MOL
REMARK 927      BINDING AFFINITY PREDICTED BY RF-SCORE:    0.00 PKD
ROOT
HETATM    1  C   UNL     1      -9.218  19.339  68.951  1.00  0.00    -0.333 C  
HETATM    2  O   UNL     1      -9.018  18.463  67.850  1.00  0.00    -0.274 OA 
ENDROOT
BRANCH   2   3
HETATM    3  C   UNL     1     -10.232  17.813  67.477  1.00  0.00    -0.356 C  
BRANCH   3   4
HETATM    4  C   UNL     1     -10.164  17.426  66.007  1.00  0.00    -0.300 C  
BRANCH   4   5
HETATM    5  O   UNL     1     -10.695  16.111  65.848  1.00  0.00    -0.314 OA 
BRANCH   5   6
HETATM    6  C   UNL     1     -11.397  15.990  64.614  1.00  0.00    -0.306 C  
BRANCH   6   7
HETATM    7  C   UNL     1     -12.355  14.813  64.689  1.00  0.00    -0.333 C  
BRANCH   7   8
HETATM    8  O   UNL     1     -12.532  14.293  63.373  1.00  0.00    -0.761 OA 
BRANCH   8   9
HETATM    9  C   UNL     1     -12.403  12.876  63.354  1.00  0.00    -0.410 C  
BRANCH   9  10
HETATM   10  C   UNL     1     -11.926  12.408  64.717  1.00  0.00    -0.398 C  
BRANCH  10  11
HETATM   11  O   UNL     1     -10.703  11.702  64.549  1.00  0.00    -0.288 OA 
BRANCH  11  12
HETATM   12  C   UNL     1      -9.948  11.681  65.755  1.00  0.00    -0.237 C  
BRANCH  12  13
HETATM   13  C   UNL     1      -9.560  13.107  66.107  1.00  0.00    -0.200 C  
BRANCH  13  14
HETATM   14  O   UNL     1      -9.884  13.361  67.467  1.00  0.00    -0.219 OA 
BRANCH  14  15
HETATM   15  C   UNL     1      -8.747  13.857  68.163  1.00  0.00    -0.182 C  
BRANCH  15  16
HETATM   16  C   UNL     1      -7.859  14.646  67.217  1.00  0.00    -0.186 C  
BRANCH  16  17
HETATM   17  O   UNL     1      -6.530  14.169  67.381  1.00  0.00    -0.306 OA 
BRANCH  17  18
HETATM   18  C   UNL     1      -6.467  13.013  68.200  1.00  0.00    -0.100 C  
BRANCH  18  19
HETATM   19  C   UNL     1      -6.215  11.820  67.297  1.00  0.00    -0.130 C  
BRANCH  19  20
HETATM   20  O   UNL     1      -7.007  10.720  67.722  1.00  0.00    -0.075 OA 
BRANCH  20  21
HETATM   21  C   UNL     1      -6.966  10.550  69.138  1.00  0.00    -0.080 C  
BRANCH  21  22
HETATM   22  C   UNL     1      -8.345  10.162  69.683  1.00  0.00    -0.161 C  
BRANCH  22  23
HETATM   23  O   UNL     1      -9.461  10.383  68.783  1.00  0.00    -0.158 OA 
BRANCH  23  24
HETATM   24  C   UNL     1     -10.240   9.198  68.484  1.00  0.00    -0.198 C  
HETATM   25  C   UNL     1      -9.795   8.597  67.180  1.00  0.00    -0.269 C  
HETATM   26  C   UNL     1      -8.621   7.464  67.315  1.00  0.00    -0.118 C  
HETATM   27  C   UNL     1      -8.776   6.256  68.424  1.00  0.00    -0.116 C  
HETATM   28  C   UNL     1      -9.091   4.621  68.330  1.00  0.00    -0.120 C  
HETATM   29  O   UNL     1      -7.682   6.471  69.327  1.00  0.00    -0.097 OA 
HETATM   30  C   UNL     1      -9.055   3.798  69.621  1.00  0.00    -0.193 C  
HETATM   31  H   UNL     1      -7.771   5.774  69.967  1.00  0.00     0.000 HD 
HETATM   32  C   UNL     1      -9.927   4.578  70.574  1.00  0.00    -0.278 A  
HETATM   33  C   UNL     1     -10.113   4.185  71.885  1.00  0.00    -0.224 A  
HETATM   34  C   UNL     1     -10.624   5.063  72.830  1.00  0.00    -0.280 A  
HETATM   35  C   UNL     1     -10.942   6.403  72.469  1.00  0.00    -0.251 A  
HETATM   36  O   UNL     1     -11.205   7.314  73.444  1.00  0.00    -0.584 OA 
HETATM   37  C   UNL     1     -10.873   6.770  71.128  1.00  0.00    -0.238 A  
HETATM   38  H   UNL     1     -11.417   8.209  73.203  1.00  0.00     0.000 HD 
HETATM   39  C   UNL     1     -10.420   5.875  70.149  1.00  0.00    -0.329 A  
HETATM   40  C   UNL     1     -10.154   6.580  68.847  1.00  0.00    -0.183 C  
HETATM   41  C   UNL     1     -10.108   8.041  69.499  1.00  0.00    -0.196 C  
HETATM   42  C   UNL     1     -10.921   6.018  67.313  1.00  0.00    -0.356 C  
HETATM   43  O   UNL     1     -11.032   8.050  70.620  1.00  0.00    -0.238 OA 
HETATM   44  C   UNL     1      -9.915   4.922  66.302  1.00  0.00    -0.234 C  
HETATM   45  N   UNL     1      -8.945   4.064  67.023  1.00  0.00    -0.123 NA 
BRANCH  45  46
HETATM   46  C   UNL     1      -7.528   4.047  66.708  1.00  0.00    -0.073 C  
BRANCH  46  47
HETATM   47  C   UNL     1      -6.859   2.726  66.892  1.00  0.00    -0.045 C  
HETATM   48  C   UNL     1      -6.022   2.465  67.901  1.00  0.00    -0.024 C  
ENDBRANCH  46  47
ENDBRANCH  45  46
ENDBRANCH  23  24
ENDBRANCH  22  23
ENDBRANCH  21  22
ENDBRANCH  20  21
ENDBRANCH  19  20
ENDBRANCH  18  19
ENDBRANCH  17  18
ENDBRANCH  16  17
ENDBRANCH  15  16
ENDBRANCH  14  15
ENDBRANCH  13  14
ENDBRANCH  12  13
ENDBRANCH  11  12
ENDBRANCH  10  11
ENDBRANCH   9  10
ENDBRANCH   8   9
ENDBRANCH   7   8
ENDBRANCH   6   7
ENDBRANCH   5   6
ENDBRANCH   4   5
ENDBRANCH   3   4
ENDBRANCH   2   3
TORSDOF 24
ENDMDL
MODEL       59
REMARK 921   NORMALIZED FREE ENERGY PREDICTED BY IDOCK:   -4.55 KCAL/MOL
REMARK 922        TOTAL FREE ENERGY PREDICTED BY IDOCK:  -13.22 KCAL/MOL
REMARK 923 INTER-LIGAND FREE ENERGY PREDICTED BY IDOCK:  -11.53 KCAL/MOL
REMARK 924 INTRA-LIGAND FREE ENERGY PREDICTED BY IDOCK:   -1.69 KCAL/MOL
REMARK 927      BINDING AFFINITY PREDICTED BY RF-SCORE:    0.00 PKD
ROOT
HETATM    1  C   UNL     1     -11.071  14.575  66.727  1.00  0.00    -0.325 C  
HETATM    2  O   UNL     1     -11.977  14.979  67.744  1.00  0.00    -0.289 OA 
ENDROOT
BRANCH   2   3
HETATM    3  C   UNL     1     -11.325  15.772  68.734  1.00  0.00    -0.362 C  
BRANCH   3   4
HETATM    4  C   UNL     1     -10.457  16.818  68.050  1.00  0.00    -0.333 C  
BRANCH   4   5
HETATM    5  O   UNL     1     -11.200  18.030  67.925  1.00  0.00    -0.059 OA 
BRANCH   5   6
HETATM    6  C   UNL     1     -10.375  19.086  67.441  1.00  0.00    -0.424 C  
BRANCH   6   7
HETATM    7  C   UNL     1     -10.012  18.820  65.989  1.00  0.00    -0.255 C  
BRANCH   7   8
HETATM    8  O   UNL     1      -8.594  18.896  65.859  1.00  0.00    -0.471 OA 
BRANCH   8   9
HETATM    9  C   UNL     1      -8.095  20.139  66.336  1.00  0.00    -0.257 C  
BRANCH   9  10
HETATM   10  C   UNL     1      -6.637  19.967  66.724  1.00  0.00    -0.198 C  
BRANCH  10  11
HETATM   11  O   UNL     1      -6.334  20.888  67.763  1.00  0.00    -0.292 OA 
BRANCH  11  12
HETATM   12  C   UNL     1      -5.308  20.390  68.614  1.00  0.00    -0.242 C  
BRANCH  12  13
HETATM   13  C   UNL     1      -5.742  20.579  70.057  1.00  0.00    -0.336 C  
BRANCH  13  14
HETATM   14  O   UNL     1      -5.767  19.318  70.711  1.00  0.00    -0.225 OA 
BRANCH  14  15
HETATM   15  C   UNL     1      -5.373  18.287  69.813  1.00  0.00    -0.209 C  
BRANCH  15  16
HETATM   16  C   UNL     1      -5.232  16.971  70.558  1.00  0.00    -0.236 C  
BRANCH  16  17
HETATM   17  O   UNL     1      -6.269  16.110  70.107  1.00  0.00    -0.165 OA 
BRANCH  17  18
HETATM   18  C   UNL     1      -5.837  15.231  69.081  1.00  0.00    -0.099 C  
BRANCH  18  19
HETATM   19  C   UNL     1      -5.138  14.058  69.743  1.00  0.00    -0.091 C  
BRANCH  19  20
HETATM   20  O   UNL     1      -5.421  12.864  69.026  1.00  0.00    -0.067 OA 
BRANCH  20  21
HETATM   21  C   UNL     1      -6.800  12.509  69.107  1.00  0.00    -0.062 C  
BRANCH  21  22
HETATM   22  C   UNL     1      -6.970  11.102  69.692  1.00  0.00    -0.088 C  
BRANCH  22  23
HETATM   23  O   UNL     1      -6.896  10.012  68.738  1.00  0.00    -0.056 OA 
BRANCH  23  24
HETATM   24  C   UNL     1      -8.155   9.337  68.494  1.00  0.00    -0.106 C  
HETATM   25  C   UNL     1      -7.997   7.855  68.687  1.00  0.00    -0.124 C  
HETATM   26  C   UNL     1      -8.314   7.324  70.202  1.00  0.00    -0.137 C  
HETATM   27  C   UNL     1      -9.691   7.809  70.966  1.00  0.00    -0.163 C  
HETATM   28  C   UNL     1     -11.123   7.057  71.373  1.00  0.00    -0.245 C  
HETATM   29  O   UNL     1      -9.218   8.558  72.094  1.00  0.00    -0.227 OA 
HETATM   30  C   UNL     1     -12.150   7.845  72.192  1.00  0.00    -0.371 C  
HETATM   31  H   UNL     1     -10.012   8.837  72.534  1.00  0.00     0.000 HD 
HETATM   32  C   UNL     1     -12.285   9.150  71.447  1.00  0.00    -0.407 A  
HETATM   33  C   UNL     1     -13.096  10.173  71.902  1.00  0.00    -0.571 A  
HETATM   34  C   UNL     1     -12.960  11.464  71.414  1.00  0.00    -0.468 A  
HETATM   35  C   UNL     1     -11.957  11.768  70.450  1.00  0.00    -0.332 A  
HETATM   36  O   UNL     1     -11.672  13.067  70.166  1.00  0.00    -0.488 OA 
HETATM   37  C   UNL     1     -11.220  10.723  69.898  1.00  0.00    -0.300 A  
HETATM   38  H   UNL     1     -11.003  13.270  69.523  1.00  0.00     0.000 HD 
HETATM   39  C   UNL     1     -11.390   9.402  70.333  1.00  0.00    -0.295 A  
HETATM   40  C   UNL     1     -10.293   8.512  69.814  1.00  0.00    -0.212 C  
HETATM   41  C   UNL     1      -9.311   9.720  69.444  1.00  0.00    -0.202 C  
HETATM   42  C   UNL     1     -10.675   7.006  68.897  1.00  0.00    -0.227 C  
HETATM   43  O   UNL     1     -10.136  10.848  69.044  1.00  0.00    -0.200 OA 
HETATM   44  C   UNL     1     -10.701   5.493  69.871  1.00  0.00    -0.288 C  
HETATM   45  N   UNL     1     -11.088   5.632  71.295  1.00  0.00    -0.190 NA 
BRANCH  45  46
HETATM   46  C   UNL     1     -10.254   5.152  72.383  1.00  0.00    -0.198 C  
BRANCH  46  47
HETATM   47  C   UNL     1     -10.985   4.413  73.454  1.00  0.00    -0.375 C  
HETATM   48  C   UNL     1     -10.374   3.857  74.505  1.00  0.00    -0.266 C  
ENDBRANCH  46  47
ENDBRANCH  45  46
ENDBRANCH  23  24
ENDBRANCH  22  23
ENDBRANCH  21  22
ENDBRANCH  20  21
ENDBRANCH  19  20
ENDBRANCH  18  19
ENDBRANCH  17  18
ENDBRANCH  16  17
ENDBRANCH  15  16
ENDBRANCH  14  15
ENDBRANCH  13  14
ENDBRANCH  12  13
ENDBRANCH  11  12
ENDBRANCH  10  11
ENDBRANCH   9  10
ENDBRANCH   8   9
ENDBRANCH   7   8
ENDBRANCH   6   7
ENDBRANCH   5   6
ENDBRANCH   4   5
ENDBRANCH   3   4
ENDBRANCH   2   3
TORSDOF 24
ENDMDL
MODEL       60
REMARK 921   NORMALIZED FREE ENERGY PREDICTED BY IDOCK:   -4.53 KCAL/MOL
REMARK 922        TOTAL FREE ENERGY PREDICTED BY IDOCK:  -13.18 KCAL/MOL
REMARK 923 INTER-LIGAND FREE ENERGY PREDICTED BY IDOCK:  -11.35 KCAL/MOL
REMARK 924 INTRA-LIGAND FREE ENERGY PREDICTED BY IDOCK:   -1.83 KCAL/MOL
REMARK 927      BINDING AFFINITY PREDICTED BY RF-SCORE:    0.00 PKD
ROOT
HETATM    1  C   UNL     1      -5.267   7.770  64.072  1.00  0.00    -0.036 C  
HETATM    2  O   UNL     1      -6.346   8.424  64.725  1.00  0.00    -0.063 OA 
ENDROOT
BRANCH   2   3
HETATM    3  C   UNL     1      -6.856   7.636  65.799  1.00  0.00    -0.053 C  
BRANCH   3   4
HETATM    4  C   UNL     1      -8.205   7.055  65.400  1.00  0.00    -0.133 C  
BRANCH   4   5
HETATM    5  O   UNL     1      -9.098   7.151  66.508  1.00  0.00    -0.144 OA 
BRANCH   5   6
HETATM    6  C   UNL     1      -9.564   5.863  66.902  1.00  0.00    -0.142 C  
BRANCH   6   7
HETATM    7  C   UNL     1      -8.800   5.402  68.132  1.00  0.00    -0.105 C  
BRANCH   7   8
HETATM    8  O   UNL     1      -9.382   6.017  69.279  1.00  0.00    -0.132 OA 
BRANCH   8   9
HETATM    9  C   UNL     1     -10.799   5.887  69.275  1.00  0.00    -0.344 C  
BRANCH   9  10
HETATM   10  C   UNL     1     -11.384   6.855  70.288  1.00  0.00    -0.324 C  
BRANCH  10  11
HETATM   11  O   UNL     1     -10.319   7.407  71.051  1.00  0.00    -0.196 OA 
BRANCH  11  12
HETATM   12  C   UNL     1     -10.792   8.393  71.962  1.00  0.00    -0.320 C  
BRANCH  12  13
HETATM   13  C   UNL     1     -12.283   8.185  72.167  1.00  0.00    -0.350 C  
BRANCH  13  14
HETATM   14  O   UNL     1     -12.887   9.423  72.515  1.00  0.00    -0.349 OA 
BRANCH  14  15
HETATM   15  C   UNL     1     -13.123  10.204  71.350  1.00  0.00    -0.416 C  
BRANCH  15  16
HETATM   16  C   UNL     1     -12.709  11.645  71.595  1.00  0.00    -0.270 C  
BRANCH  16  17
HETATM   17  O   UNL     1     -13.786  12.292  72.262  1.00  0.00    -0.400 OA 
BRANCH  17  18
HETATM   18  C   UNL     1     -13.590  13.691  72.376  1.00  0.00    -0.602 C  
BRANCH  18  19
HETATM   19  C   UNL     1     -14.120  14.337  71.110  1.00  0.00    -0.024 C  
BRANCH  19  20
HETATM   20  O   UNL     1     -13.914  15.742  71.164  1.00  0.00    -0.508 OA 
BRANCH  20  21
HETATM   21  C   UNL     1     -12.636  16.072  71.705  1.00  0.00    -0.354 C  
BRANCH  21  22
HETATM   22  C   UNL     1     -11.554  16.024  70.621  1.00  0.00    -0.383 C  
BRANCH  22  23
HETATM   23  O   UNL     1     -12.005  16.302  69.270  1.00  0.00    -0.191 OA 
BRANCH  23  24
HETATM   24  C   UNL     1     -10.980  16.178  68.254  1.00  0.00    -0.340 C  
HETATM   25  C   UNL     1      -9.619  16.381  68.859  1.00  0.00    -0.252 C  
HETATM   26  C   UNL     1      -8.890  15.011  69.378  1.00  0.00    -0.115 C  
HETATM   27  C   UNL     1      -8.835  13.691  68.393  1.00  0.00    -0.152 C  
HETATM   28  C   UNL     1      -7.628  12.933  67.528  1.00  0.00    -0.164 C  
HETATM   29  O   UNL     1      -9.601  12.702  69.095  1.00  0.00    -0.301 OA 
HETATM   30  C   UNL     1      -7.968  11.635  66.790  1.00  0.00    -0.140 C  
HETATM   31  H   UNL     1      -9.569  11.941  68.526  1.00  0.00     0.000 HD 
HETATM   32  C   UNL     1      -9.216  11.974  66.013  1.00  0.00    -0.152 A  
HETATM   33  C   UNL     1      -9.878  11.036  65.243  1.00  0.00    -0.309 A  
HETATM   34  C   UNL     1     -11.179  11.252  64.814  1.00  0.00    -0.128 A  
HETATM   35  C   UNL     1     -11.871  12.440  65.185  1.00  0.00    -0.388 A  
HETATM   36  O   UNL     1     -13.211  12.529  64.970  1.00  0.00    -0.700 OA 
HETATM   37  C   UNL     1     -11.173  13.442  65.854  1.00  0.00    -0.300 A  
HETATM   38  H   UNL     1     -13.673  13.322  65.217  1.00  0.00     0.000 HD 
HETATM   39  C   UNL     1      -9.837  13.266  66.239  1.00  0.00    -0.288 A  
HETATM   40  C   UNL     1      -9.398  14.344  67.192  1.00  0.00    -0.226 C  
HETATM   41  C   UNL     1     -10.886  14.798  67.567  1.00  0.00    -0.287 C  
HETATM   42  C   UNL     1      -7.931  15.340  66.858  1.00  0.00    -0.194 C  
HETATM   43  O   UNL     1     -11.714  14.600  66.388  1.00  0.00    -0.369 OA 
HETATM   44  C   UNL     1      -6.417  14.777  67.649  1.00  0.00    -0.139 C  
HETATM   45  N   UNL     1      -6.303  13.320  67.895  1.00  0.00    -0.128 NA 
BRANCH  45  46
HETATM   46  C   UNL     1      -6.032  12.766  69.210  1.00  0.00    -0.093 C  
BRANCH  46  47
HETATM   47  C   UNL     1      -5.906  13.775  70.302  1.00  0.00    -0.152 C  
HETATM   48  C   UNL     1      -5.476  13.471  71.531  1.00  0.00    -0.191 C  
ENDBRANCH  46  47
ENDBRANCH  45  46
ENDBRANCH  23  24
ENDBRANCH  22  23
ENDBRANCH  21  22
ENDBRANCH  20  21
ENDBRANCH  19  20
ENDBRANCH  18  19
ENDBRANCH  17  18
ENDBRANCH  16  17
ENDBRANCH  15  16
ENDBRANCH  14  15
ENDBRANCH  13  14
ENDBRANCH  12  13
ENDBRANCH  11  12
ENDBRANCH  10  11
ENDBRANCH   9  10
ENDBRANCH   8   9
ENDBRANCH   7   8
ENDBRANCH   6   7
ENDBRANCH   5   6
ENDBRANCH   4   5
ENDBRANCH   3   4
ENDBRANCH   2   3
TORSDOF 24
ENDMDL
MODEL       61
REMARK 921   NORMALIZED FREE ENERGY PREDICTED BY IDOCK:   -4.53 KCAL/MOL
REMARK 922        TOTAL FREE ENERGY PREDICTED BY IDOCK:  -13.18 KCAL/MOL
REMARK 923 INTER-LIGAND FREE ENERGY PREDICTED BY IDOCK:   -9.98 KCAL/MOL
REMARK 924 INTRA-LIGAND FREE ENERGY PREDICTED BY IDOCK:   -3.20 KCAL/MOL
REMARK 927      BINDING AFFINITY PREDICTED BY RF-SCORE:    0.00 PKD
ROOT
HETATM    1  C   UNL     1     -13.889   7.442  71.264  1.00  0.00    -0.247 C  
HETATM    2  O   UNL     1     -12.475   7.349  71.163  1.00  0.00    -0.336 OA 
ENDROOT
BRANCH   2   3
HETATM    3  C   UNL     1     -11.839   7.817  72.351  1.00  0.00    -0.321 C  
BRANCH   3   4
HETATM    4  C   UNL     1     -10.329   7.765  72.167  1.00  0.00    -0.224 C  
BRANCH   4   5
HETATM    5  O   UNL     1     -10.009   8.168  70.836  1.00  0.00    -0.185 OA 
BRANCH   5   6
HETATM    6  C   UNL     1      -8.660   7.840  70.515  1.00  0.00    -0.132 C  
BRANCH   6   7
HETATM    7  C   UNL     1      -8.609   7.202  69.136  1.00  0.00    -0.133 C  
BRANCH   7   8
HETATM    8  O   UNL     1      -9.895   7.329  68.534  1.00  0.00    -0.150 OA 
BRANCH   8   9
HETATM    9  C   UNL     1     -10.198   6.205  67.715  1.00  0.00    -0.172 C  
BRANCH   9  10
HETATM   10  C   UNL     1      -8.965   5.841  66.906  1.00  0.00    -0.114 C  
BRANCH  10  11
HETATM   11  O   UNL     1      -9.123   6.354  65.590  1.00  0.00    -0.077 OA 
BRANCH  11  12
HETATM   12  C   UNL     1      -8.038   7.203  65.233  1.00  0.00    -0.134 C  
BRANCH  12  13
HETATM   13  C   UNL     1      -8.537   8.637  65.204  1.00  0.00    -0.173 C  
BRANCH  13  14
HETATM   14  O   UNL     1      -7.567   9.486  65.802  1.00  0.00    -0.097 OA 
BRANCH  14  15
HETATM   15  C   UNL     1      -8.177  10.330  66.771  1.00  0.00    -0.124 C  
BRANCH  15  16
HETATM   16  C   UNL     1      -9.526  10.812  66.268  1.00  0.00    -0.181 C  
BRANCH  16  17
HETATM   17  O   UNL     1     -10.239  11.327  67.385  1.00  0.00    -0.181 OA 
BRANCH  17  18
HETATM   18  C   UNL     1     -11.054  10.347  68.006  1.00  0.00    -0.298 C  
BRANCH  18  19
HETATM   19  C   UNL     1     -11.140  10.687  69.483  1.00  0.00    -0.274 C  
BRANCH  19  20
HETATM   20  O   UNL     1     -12.439  10.381  69.971  1.00  0.00    -0.237 OA 
BRANCH  20  21
HETATM   21  C   UNL     1     -12.911  11.370  70.885  1.00  0.00    -0.232 C  
BRANCH  21  22
HETATM   22  C   UNL     1     -12.180  12.701  70.675  1.00  0.00    -0.285 C  
BRANCH  22  23
HETATM   23  O   UNL     1     -12.978  13.895  70.880  1.00  0.00    -0.308 OA 
BRANCH  23  24
HETATM   24  C   UNL     1     -12.673  14.987  69.980  1.00  0.00    -0.160 C  
HETATM   25  C   UNL     1     -11.683  15.924  70.613  1.00  0.00    -0.411 C  
HETATM   26  C   UNL     1     -10.115  15.579  70.296  1.00  0.00    -0.056 C  
HETATM   27  C   UNL     1      -9.641  15.285  68.745  1.00  0.00    -0.214 C  
HETATM   28  C   UNL     1      -8.745  16.130  67.621  1.00  0.00    -0.177 C  
HETATM   29  O   UNL     1      -9.195  13.922  68.771  1.00  0.00    -0.349 OA 
HETATM   30  C   UNL     1      -8.433  15.454  66.283  1.00  0.00    -0.047 C  
HETATM   31  H   UNL     1      -8.921  13.753  67.876  1.00  0.00     0.000 HD 
HETATM   32  C   UNL     1      -9.774  14.952  65.807  1.00  0.00    -0.359 A  
HETATM   33  C   UNL     1      -9.913  14.228  64.639  1.00  0.00     0.201 A  
HETATM   34  C   UNL     1     -11.062  13.493  64.384  1.00  0.00    -0.397 A  
HETATM   35  C   UNL     1     -12.114  13.449  65.341  1.00  0.00    -0.421 A  
HETATM   36  O   UNL     1     -13.116  12.540  65.194  1.00  0.00    -0.659 OA 
HETATM   37  C   UNL     1     -12.036  14.271  66.463  1.00  0.00    -0.427 A  
HETATM   38  H   UNL     1     -13.819  12.511  65.833  1.00  0.00     0.000 HD 
HETATM   39  C   UNL     1     -10.909  15.069  66.704  1.00  0.00    -0.318 A  
HETATM   40  C   UNL     1     -10.926  15.628  68.100  1.00  0.00    -0.314 C  
HETATM   41  C   UNL     1     -12.010  14.584  68.644  1.00  0.00    -0.285 C  
HETATM   42  C   UNL     1     -10.776  17.402  68.394  1.00  0.00    -0.301 C  
HETATM   43  O   UNL     1     -12.905  14.268  67.542  1.00  0.00     0.476 OA 
HETATM   44  C   UNL     1      -9.115  17.988  68.760  1.00  0.00    -0.214 C  
HETATM   45  N   UNL     1      -7.997  17.222  68.158  1.00  0.00    -0.215 NA 
BRANCH  45  46
HETATM   46  C   UNL     1      -6.914  16.665  68.949  1.00  0.00    -0.200 C  
BRANCH  46  47
HETATM   47  C   UNL     1      -6.033  17.675  69.606  1.00  0.00    -0.254 C  
HETATM   48  C   UNL     1      -5.200  17.376  70.609  1.00  0.00    -0.265 C  
ENDBRANCH  46  47
ENDBRANCH  45  46
ENDBRANCH  23  24
ENDBRANCH  22  23
ENDBRANCH  21  22
ENDBRANCH  20  21
ENDBRANCH  19  20
ENDBRANCH  18  19
ENDBRANCH  17  18
ENDBRANCH  16  17
ENDBRANCH  15  16
ENDBRANCH  14  15
ENDBRANCH  13  14
ENDBRANCH  12  13
ENDBRANCH  11  12
ENDBRANCH  10  11
ENDBRANCH   9  10
ENDBRANCH   8   9
ENDBRANCH   7   8
ENDBRANCH   6   7
ENDBRANCH   5   6
ENDBRANCH   4   5
ENDBRANCH   3   4
ENDBRANCH   2   3
TORSDOF 24
ENDMDL
MODEL       62
REMARK 921   NORMALIZED FREE ENERGY PREDICTED BY IDOCK:   -4.52 KCAL/MOL
REMARK 922        TOTAL FREE ENERGY PREDICTED BY IDOCK:  -13.14 KCAL/MOL
REMARK 923 INTER-LIGAND FREE ENERGY PREDICTED BY IDOCK:  -10.75 KCAL/MOL
REMARK 924 INTRA-LIGAND FREE ENERGY PREDICTED BY IDOCK:   -2.39 KCAL/MOL
REMARK 927      BINDING AFFINITY PREDICTED BY RF-SCORE:    0.00 PKD
ROOT
HETATM    1  C   UNL     1      -5.854   8.109  63.327  1.00  0.00    -0.071 C  
HETATM    2  O   UNL     1      -5.953   8.539  64.678  1.00  0.00    -0.062 OA 
ENDROOT
BRANCH   2   3
HETATM    3  C   UNL     1      -6.992   7.846  65.368  1.00  0.00    -0.059 C  
BRANCH   3   4
HETATM    4  C   UNL     1      -7.643   8.787  66.371  1.00  0.00    -0.091 C  
BRANCH   4   5
HETATM    5  O   UNL     1      -8.122   8.025  67.479  1.00  0.00    -0.120 OA 
BRANCH   5   6
HETATM    6  C   UNL     1      -9.521   7.783  67.365  1.00  0.00    -0.144 C  
BRANCH   6   7
HETATM    7  C   UNL     1      -9.809   6.321  67.662  1.00  0.00    -0.121 C  
BRANCH   7   8
HETATM    8  O   UNL     1      -9.939   6.166  69.074  1.00  0.00    -0.141 OA 
BRANCH   8   9
HETATM    9  C   UNL     1     -11.304   6.177  69.473  1.00  0.00    -0.356 C  
BRANCH   9  10
HETATM   10  C   UNL     1     -11.435   6.987  70.751  1.00  0.00    -0.318 C  
BRANCH  10  11
HETATM   11  O   UNL     1     -10.256   7.765  70.915  1.00  0.00    -0.198 OA 
BRANCH  11  12
HETATM   12  C   UNL     1     -10.504   8.919  71.709  1.00  0.00    -0.360 C  
BRANCH  12  13
HETATM   13  C   UNL     1     -11.855   8.760  72.385  1.00  0.00    -0.286 C  
BRANCH  13  14
HETATM   14  O   UNL     1     -12.579   9.978  72.283  1.00  0.00    -0.280 OA 
BRANCH  14  15
HETATM   15  C   UNL     1     -12.344  10.591  71.021  1.00  0.00    -0.399 C  
BRANCH  15  16
HETATM   16  C   UNL     1     -12.605  12.084  71.108  1.00  0.00    -0.271 C  
BRANCH  16  17
HETATM   17  O   UNL     1     -13.578  12.290  72.124  1.00  0.00    -0.461 OA 
BRANCH  17  18
HETATM   18  C   UNL     1     -13.513  13.592  72.681  1.00  0.00    -0.498 C  
BRANCH  18  19
HETATM   19  C   UNL     1     -13.817  14.584  71.574  1.00  0.00    -0.402 C  
BRANCH  19  20
HETATM   20  O   UNL     1     -13.491  15.898  72.003  1.00  0.00    -0.424 OA 
BRANCH  20  21
HETATM   21  C   UNL     1     -12.087  16.144  71.945  1.00  0.00    -0.476 C  
BRANCH  21  22
HETATM   22  C   UNL     1     -11.498  15.647  70.620  1.00  0.00    -0.375 C  
BRANCH  22  23
HETATM   23  O   UNL     1     -12.011  16.291  69.425  1.00  0.00    -0.171 OA 
BRANCH  23  24
HETATM   24  C   UNL     1     -11.218  16.071  68.233  1.00  0.00    -0.350 C  
HETATM   25  C   UNL     1     -10.572  17.354  67.793  1.00  0.00    -0.371 C  
HETATM   26  C   UNL     1      -9.080  17.615  68.411  1.00  0.00    -0.277 C  
HETATM   27  C   UNL     1      -7.952  16.415  68.360  1.00  0.00    -0.178 C  
HETATM   28  C   UNL     1      -6.558  16.164  67.480  1.00  0.00    -0.171 C  
HETATM   29  O   UNL     1      -7.694  16.121  69.740  1.00  0.00    -0.001 OA 
HETATM   30  C   UNL     1      -5.706  14.932  67.802  1.00  0.00    -0.098 C  
HETATM   31  H   UNL     1      -7.043  15.429  69.710  1.00  0.00     0.000 HD 
HETATM   32  C   UNL     1      -6.697  13.794  67.798  1.00  0.00    -0.180 A  
HETATM   33  C   UNL     1      -6.325  12.498  68.101  1.00  0.00    -0.076 A  
HETATM   34  C   UNL     1      -7.273  11.538  68.423  1.00  0.00    -0.089 A  
HETATM   35  C   UNL     1      -8.655  11.880  68.475  1.00  0.00    -0.110 A  
HETATM   36  O   UNL     1      -9.541  11.007  69.025  1.00  0.00    -0.295 OA 
HETATM   37  C   UNL     1      -9.048  13.148  68.053  1.00  0.00    -0.207 A  
HETATM   38  H   UNL     1     -10.463  11.235  69.059  1.00  0.00     0.000 HD 
HETATM   39  C   UNL     1      -8.107  14.110  67.663  1.00  0.00    -0.188 A  
HETATM   40  C   UNL     1      -8.738  15.470  67.539  1.00  0.00    -0.183 C  
HETATM   41  C   UNL     1     -10.037  15.087  68.391  1.00  0.00    -0.225 C  
HETATM   42  C   UNL     1      -8.590  16.429  66.017  1.00  0.00    -0.246 C  
HETATM   43  O   UNL     1     -10.323  13.683  68.146  1.00  0.00    -0.232 OA 
HETATM   44  C   UNL     1      -7.260  17.640  65.993  1.00  0.00    -0.281 C  
HETATM   45  N   UNL     1      -6.063  17.323  66.808  1.00  0.00    -0.182 NA 
BRANCH  45  46
HETATM   46  C   UNL     1      -5.542  18.227  67.819  1.00  0.00    -0.155 C  
BRANCH  46  47
HETATM   47  C   UNL     1      -6.223  19.554  67.885  1.00  0.00    -0.230 C  
HETATM   48  C   UNL     1      -6.509  20.171  69.036  1.00  0.00    -0.343 C  
ENDBRANCH  46  47
ENDBRANCH  45  46
ENDBRANCH  23  24
ENDBRANCH  22  23
ENDBRANCH  21  22
ENDBRANCH  20  21
ENDBRANCH  19  20
ENDBRANCH  18  19
ENDBRANCH  17  18
ENDBRANCH  16  17
ENDBRANCH  15  16
ENDBRANCH  14  15
ENDBRANCH  13  14
ENDBRANCH  12  13
ENDBRANCH  11  12
ENDBRANCH  10  11
ENDBRANCH   9  10
ENDBRANCH   8   9
ENDBRANCH   7   8
ENDBRANCH   6   7
ENDBRANCH   5   6
ENDBRANCH   4   5
ENDBRANCH   3   4
ENDBRANCH   2   3
TORSDOF 24
ENDMDL
MODEL       63
REMARK 921   NORMALIZED FREE ENERGY PREDICTED BY IDOCK:   -4.49 KCAL/MOL
REMARK 922        TOTAL FREE ENERGY PREDICTED BY IDOCK:  -13.09 KCAL/MOL
REMARK 923 INTER-LIGAND FREE ENERGY PREDICTED BY IDOCK:  -10.76 KCAL/MOL
REMARK 924 INTRA-LIGAND FREE ENERGY PREDICTED BY IDOCK:   -2.32 KCAL/MOL
REMARK 927      BINDING AFFINITY PREDICTED BY RF-SCORE:    0.00 PKD
ROOT
HETATM    1  C   UNL     1     -14.058   8.448  71.612  1.00  0.00    -0.419 C  
HETATM    2  O   UNL     1     -12.734   8.182  72.053  1.00  0.00    -0.318 OA 
ENDROOT
BRANCH   2   3
HETATM    3  C   UNL     1     -11.906   9.337  71.934  1.00  0.00    -0.356 C  
BRANCH   3   4
HETATM    4  C   UNL     1     -12.780  10.583  71.915  1.00  0.00    -0.332 C  
BRANCH   4   5
HETATM    5  O   UNL     1     -12.416  11.389  70.795  1.00  0.00    -0.360 OA 
BRANCH   5   6
HETATM    6  C   UNL     1     -12.712  12.761  71.037  1.00  0.00    -0.243 C  
BRANCH   6   7
HETATM    7  C   UNL     1     -13.673  12.874  72.209  1.00  0.00    -0.458 C  
BRANCH   7   8
HETATM    8  O   UNL     1     -13.816  14.253  72.542  1.00  0.00    -0.480 OA 
BRANCH   8   9
HETATM    9  C   UNL     1     -12.708  14.721  73.301  1.00  0.00    -0.482 C  
BRANCH   9  10
HETATM   10  C   UNL     1     -12.290  16.082  72.770  1.00  0.00    -0.507 C  
BRANCH  10  11
HETATM   11  O   UNL     1     -12.642  16.157  71.395  1.00  0.00    -0.354 OA 
BRANCH  11  12
HETATM   12  C   UNL     1     -11.494  16.049  70.561  1.00  0.00    -0.389 C  
BRANCH  12  13
HETATM   13  C   UNL     1     -11.946  16.075  69.111  1.00  0.00    -0.177 C  
BRANCH  13  14
HETATM   14  O   UNL     1     -10.869  16.501  68.289  1.00  0.00    -0.327 OA 
BRANCH  14  15
HETATM   15  C   UNL     1     -10.181  17.587  68.898  1.00  0.00    -0.353 C  
BRANCH  15  16
HETATM   16  C   UNL     1     -10.178  18.790  67.971  1.00  0.00    -0.386 C  
BRANCH  16  17
HETATM   17  O   UNL     1      -9.108  19.637  68.371  1.00  0.00    -0.344 OA 
BRANCH  17  18
HETATM   18  C   UNL     1      -8.052  19.659  67.425  1.00  0.00    -0.288 C  
BRANCH  18  19
HETATM   19  C   UNL     1      -6.759  19.381  68.170  1.00  0.00    -0.259 C  
BRANCH  19  20
HETATM   20  O   UNL     1      -7.049  18.822  69.443  1.00  0.00    -0.228 OA 
BRANCH  20  21
HETATM   21  C   UNL     1      -6.227  17.691  69.727  1.00  0.00    -0.178 C  
BRANCH  21  22
HETATM   22  C   UNL     1      -6.240  16.698  68.560  1.00  0.00    -0.135 C  
BRANCH  22  23
HETATM   23  O   UNL     1      -6.198  15.295  68.928  1.00  0.00    -0.092 OA 
BRANCH  23  24
HETATM   24  C   UNL     1      -6.246  14.376  67.809  1.00  0.00    -0.136 C  
HETATM   25  C   UNL     1      -5.141  13.363  67.919  1.00  0.00    -0.091 C  
HETATM   26  C   UNL     1      -5.546  11.993  68.716  1.00  0.00    -0.049 C  
HETATM   27  C   UNL     1      -6.942  11.206  68.331  1.00  0.00    -0.072 C  
HETATM   28  C   UNL     1      -7.296   9.780  67.542  1.00  0.00    -0.090 C  
HETATM   29  O   UNL     1      -7.728  11.287  69.528  1.00  0.00    -0.362 OA 
HETATM   30  C   UNL     1      -8.759   9.333  67.469  1.00  0.00    -0.116 C  
HETATM   31  H   UNL     1      -8.533  10.833  69.305  1.00  0.00     0.000 HD 
HETATM   32  C   UNL     1      -9.489  10.556  66.970  1.00  0.00    -0.188 A  
HETATM   33  C   UNL     1     -10.861  10.578  66.815  1.00  0.00    -0.209 A  
HETATM   34  C   UNL     1     -11.548  11.776  66.685  1.00  0.00    -0.273 A  
HETATM   35  C   UNL     1     -10.850  13.015  66.739  1.00  0.00    -0.268 A  
HETATM   36  O   UNL     1     -11.550  14.175  66.858  1.00  0.00    -0.351 OA 
HETATM   37  C   UNL     1      -9.457  12.999  66.772  1.00  0.00    -0.250 A  
HETATM   38  H   UNL     1     -11.084  15.002  66.894  1.00  0.00     0.000 HD 
HETATM   39  C   UNL     1      -8.744  11.794  66.837  1.00  0.00    -0.189 A  
HETATM   40  C   UNL     1      -7.295  12.037  67.160  1.00  0.00    -0.134 C  
HETATM   41  C   UNL     1      -7.530  13.524  67.701  1.00  0.00    -0.181 C  
HETATM   42  C   UNL     1      -5.985  11.380  66.106  1.00  0.00     0.026 C  
HETATM   43  O   UNL     1      -8.629  14.097  66.943  1.00  0.00    -0.204 OA 
HETATM   44  C   UNL     1      -5.281   9.811  66.635  1.00  0.00    -0.040 C  
HETATM   45  N   UNL     1      -6.183   8.900  67.380  1.00  0.00    -0.055 NA 
BRANCH  45  46
HETATM   46  C   UNL     1      -5.850   8.367  68.689  1.00  0.00    -0.044 C  
BRANCH  46  47
HETATM   47  C   UNL     1      -5.249   7.001  68.676  1.00  0.00    -0.017 C  
HETATM   48  C   UNL     1      -5.405   6.143  67.662  1.00  0.00    -0.005 C  
ENDBRANCH  46  47
ENDBRANCH  45  46
ENDBRANCH  23  24
ENDBRANCH  22  23
ENDBRANCH  21  22
ENDBRANCH  20  21
ENDBRANCH  19  20
ENDBRANCH  18  19
ENDBRANCH  17  18
ENDBRANCH  16  17
ENDBRANCH  15  16
ENDBRANCH  14  15
ENDBRANCH  13  14
ENDBRANCH  12  13
ENDBRANCH  11  12
ENDBRANCH  10  11
ENDBRANCH   9  10
ENDBRANCH   8   9
ENDBRANCH   7   8
ENDBRANCH   6   7
ENDBRANCH   5   6
ENDBRANCH   4   5
ENDBRANCH   3   4
ENDBRANCH   2   3
TORSDOF 24
ENDMDL
MODEL       64
REMARK 921   NORMALIZED FREE ENERGY PREDICTED BY IDOCK:   -4.48 KCAL/MOL
REMARK 922        TOTAL FREE ENERGY PREDICTED BY IDOCK:  -13.07 KCAL/MOL
REMARK 923 INTER-LIGAND FREE ENERGY PREDICTED BY IDOCK:  -10.40 KCAL/MOL
REMARK 924 INTRA-LIGAND FREE ENERGY PREDICTED BY IDOCK:   -2.67 KCAL/MOL
REMARK 927      BINDING AFFINITY PREDICTED BY RF-SCORE:    0.00 PKD
ROOT
HETATM    1  C   UNL     1     -13.622   9.098  72.344  1.00  0.00    -0.483 C  
HETATM    2  O   UNL     1     -12.829   8.836  71.194  1.00  0.00    -0.240 OA 
ENDROOT
BRANCH   2   3
HETATM    3  C   UNL     1     -11.946   9.921  70.915  1.00  0.00    -0.345 C  
BRANCH   3   4
HETATM    4  C   UNL     1     -10.521   9.398  70.819  1.00  0.00    -0.304 C  
BRANCH   4   5
HETATM    5  O   UNL     1      -9.935   9.865  69.604  1.00  0.00    -0.204 OA 
BRANCH   5   6
HETATM    6  C   UNL     1     -10.654   9.382  68.473  1.00  0.00    -0.197 C  
BRANCH   6   7
HETATM    7  C   UNL     1      -9.766   8.447  67.669  1.00  0.00    -0.160 C  
BRANCH   7   8
HETATM    8  O   UNL     1     -10.553   7.339  67.237  1.00  0.00    -0.268 OA 
BRANCH   8   9
HETATM    9  C   UNL     1      -9.771   6.400  66.508  1.00  0.00    -0.129 C  
BRANCH   9  10
HETATM   10  C   UNL     1     -10.315   5.005  66.764  1.00  0.00    -0.244 C  
BRANCH  10  11
HETATM   11  O   UNL     1     -10.899   4.522  65.561  1.00  0.00    -0.280 OA 
BRANCH  11  12
HETATM   12  C   UNL     1      -9.903   4.173  64.607  1.00  0.00    -0.178 C  
BRANCH  12  13
HETATM   13  C   UNL     1      -9.185   2.926  65.092  1.00  0.00    -0.145 C  
BRANCH  13  14
HETATM   14  O   UNL     1      -7.788   3.072  64.875  1.00  0.00    -0.080 OA 
BRANCH  14  15
HETATM   15  C   UNL     1      -7.515   3.219  63.487  1.00  0.00    -0.059 C  
BRANCH  15  16
HETATM   16  C   UNL     1      -6.403   4.232  63.277  1.00  0.00    -0.026 C  
BRANCH  16  17
HETATM   17  O   UNL     1      -6.377   5.081  64.417  1.00  0.00    -0.031 OA 
BRANCH  17  18
HETATM   18  C   UNL     1      -6.907   6.368  64.146  1.00  0.00    -0.038 C  
BRANCH  18  19
HETATM   19  C   UNL     1      -6.282   7.341  65.128  1.00  0.00    -0.038 C  
BRANCH  19  20
HETATM   20  O   UNL     1      -7.093   8.503  65.236  1.00  0.00    -0.079 OA 
BRANCH  20  21
HETATM   21  C   UNL     1      -6.320   9.700  65.161  1.00  0.00    -0.083 C  
BRANCH  21  22
HETATM   22  C   UNL     1      -6.008  10.237  66.563  1.00  0.00    -0.065 C  
BRANCH  22  23
HETATM   23  O   UNL     1      -6.416  11.606  66.816  1.00  0.00    -0.143 OA 
BRANCH  23  24
HETATM   24  C   UNL     1      -7.758  11.749  67.341  1.00  0.00    -0.151 C  
HETATM   25  C   UNL     1      -7.774  12.740  68.470  1.00  0.00    -0.113 C  
HETATM   26  C   UNL     1      -8.075  14.285  68.020  1.00  0.00    -0.145 C  
HETATM   27  C   UNL     1      -9.341  14.611  67.018  1.00  0.00    -0.232 C  
HETATM   28  C   UNL     1     -10.831  15.331  67.221  1.00  0.00    -0.318 C  
HETATM   29  O   UNL     1      -8.722  15.140  65.837  1.00  0.00    -0.376 OA 
HETATM   30  C   UNL     1     -11.711  15.543  65.985  1.00  0.00     0.335 C  
HETATM   31  H   UNL     1      -9.453  15.328  65.259  1.00  0.00     0.000 HD 
HETATM   32  C   UNL     1     -11.723  14.193  65.311  1.00  0.00    -0.353 A  
HETATM   33  C   UNL     1     -12.378  13.977  64.114  1.00  0.00    -0.374 A  
HETATM   34  C   UNL     1     -12.110  12.855  63.344  1.00  0.00    -0.610 A  
HETATM   35  C   UNL     1     -11.128  11.913  63.762  1.00  0.00    -0.436 A  
HETATM   36  O   UNL     1     -10.701  10.959  62.892  1.00  0.00    -0.779 OA 
HETATM   37  C   UNL     1     -10.554  12.058  65.023  1.00  0.00    -0.289 A  
HETATM   38  H   UNL     1     -10.046  10.330  63.171  1.00  0.00     0.000 HD 
HETATM   39  C   UNL     1     -10.862  13.152  65.842  1.00  0.00    -0.288 A  
HETATM   40  C   UNL     1      -9.911  13.248  67.004  1.00  0.00    -0.242 C  
HETATM   41  C   UNL     1      -8.808  12.292  66.347  1.00  0.00    -0.071 C  
HETATM   42  C   UNL     1     -10.521  13.319  68.701  1.00  0.00    -0.242 C  
HETATM   43  O   UNL     1      -9.508  11.308  65.538  1.00  0.00    -0.219 OA 
HETATM   44  C   UNL     1     -10.682  14.971  69.396  1.00  0.00    -0.261 C  
HETATM   45  N   UNL     1     -10.975  16.064  68.439  1.00  0.00    -0.315 NA 
BRANCH  45  46
HETATM   46  C   UNL     1     -10.152  17.255  68.335  1.00  0.00    -0.333 C  
BRANCH  46  47
HETATM   47  C   UNL     1     -10.842  18.447  67.758  1.00  0.00    -0.268 C  
HETATM   48  C   UNL     1     -10.405  19.088  66.669  1.00  0.00    -0.501 C  
ENDBRANCH  46  47
ENDBRANCH  45  46
ENDBRANCH  23  24
ENDBRANCH  22  23
ENDBRANCH  21  22
ENDBRANCH  20  21
ENDBRANCH  19  20
ENDBRANCH  18  19
ENDBRANCH  17  18
ENDBRANCH  16  17
ENDBRANCH  15  16
ENDBRANCH  14  15
ENDBRANCH  13  14
ENDBRANCH  12  13
ENDBRANCH  11  12
ENDBRANCH  10  11
ENDBRANCH   9  10
ENDBRANCH   8   9
ENDBRANCH   7   8
ENDBRANCH   6   7
ENDBRANCH   5   6
ENDBRANCH   4   5
ENDBRANCH   3   4
ENDBRANCH   2   3
TORSDOF 24
ENDMDL
MODEL       65
REMARK 921   NORMALIZED FREE ENERGY PREDICTED BY IDOCK:   -4.48 KCAL/MOL
REMARK 922        TOTAL FREE ENERGY PREDICTED BY IDOCK:  -13.05 KCAL/MOL
REMARK 923 INTER-LIGAND FREE ENERGY PREDICTED BY IDOCK:  -10.77 KCAL/MOL
REMARK 924 INTRA-LIGAND FREE ENERGY PREDICTED BY IDOCK:   -2.28 KCAL/MOL
REMARK 927      BINDING AFFINITY PREDICTED BY RF-SCORE:    0.00 PKD
ROOT
HETATM    1  C   UNL     1     -12.198  14.469  64.490  1.00  0.00    -0.465 C  
HETATM    2  O   UNL     1     -10.782  14.362  64.545  1.00  0.00    -0.371 OA 
ENDROOT
BRANCH   2   3
HETATM    3  C   UNL     1     -10.210  15.433  65.294  1.00  0.00    -0.357 C  
BRANCH   3   4
HETATM    4  C   UNL     1     -11.092  15.732  66.497  1.00  0.00    -0.079 C  
BRANCH   4   5
HETATM    5  O   UNL     1     -10.321  15.581  67.688  1.00  0.00    -0.258 OA 
BRANCH   5   6
HETATM    6  C   UNL     1     -10.792  16.450  68.715  1.00  0.00    -0.338 C  
BRANCH   6   7
HETATM    7  C   UNL     1     -11.339  15.623  69.867  1.00  0.00    -0.337 C  
BRANCH   7   8
HETATM    8  O   UNL     1     -12.669  16.056  70.139  1.00  0.00    -0.244 OA 
BRANCH   8   9
HETATM    9  C   UNL     1     -13.158  15.497  71.353  1.00  0.00    -0.507 C  
BRANCH   9  10
HETATM   10  C   UNL     1     -12.516  14.136  71.560  1.00  0.00    -0.341 C  
BRANCH  10  11
HETATM   11  O   UNL     1     -13.460  13.134  71.209  1.00  0.00    -0.133 OA 
BRANCH  11  12
HETATM   12  C   UNL     1     -13.251  11.941  71.956  1.00  0.00    -0.356 C  
BRANCH  12  13
HETATM   13  C   UNL     1     -12.439  10.976  71.110  1.00  0.00    -0.397 C  
BRANCH  13  14
HETATM   14  O   UNL     1     -12.897  11.029  69.766  1.00  0.00    -0.133 OA 
BRANCH  14  15
HETATM   15  C   UNL     1     -11.795  11.096  68.869  1.00  0.00    -0.337 C  
BRANCH  15  16
HETATM   16  C   UNL     1     -11.846  12.387  68.071  1.00  0.00    -0.316 C  
BRANCH  16  17
HETATM   17  O   UNL     1     -11.803  12.041  66.693  1.00  0.00    -0.583 OA 
BRANCH  17  18
HETATM   18  C   UNL     1     -10.756  11.132  66.396  1.00  0.00    -0.247 C  
BRANCH  18  19
HETATM   19  C   UNL     1      -9.460  11.919  66.349  1.00  0.00    -0.228 C  
BRANCH  19  20
HETATM   20  O   UNL     1      -8.355  11.026  66.320  1.00  0.00    -0.160 OA 
BRANCH  20  21
HETATM   21  C   UNL     1      -7.280  11.483  67.138  1.00  0.00    -0.140 C  
BRANCH  21  22
HETATM   22  C   UNL     1      -7.430  10.969  68.575  1.00  0.00    -0.106 C  
BRANCH  22  23
HETATM   23  O   UNL     1      -6.244  10.367  69.154  1.00  0.00    -0.040 OA 
BRANCH  23  24
HETATM   24  C   UNL     1      -6.422   9.008  69.619  1.00  0.00    -0.042 C  
HETATM   25  C   UNL     1      -7.001   9.003  71.006  1.00  0.00    -0.097 C  
HETATM   26  C   UNL     1      -8.636   8.952  71.065  1.00  0.00    -0.255 C  
HETATM   27  C   UNL     1      -9.452   7.850  70.152  1.00  0.00    -0.160 C  
HETATM   28  C   UNL     1     -10.296   6.453  70.492  1.00  0.00    -0.202 C  
HETATM   29  O   UNL     1     -10.221   8.652  69.244  1.00  0.00    -0.201 OA 
HETATM   30  C   UNL     1     -11.018   5.741  69.344  1.00  0.00    -0.352 C  
HETATM   31  H   UNL     1     -10.691   8.016  68.717  1.00  0.00     0.000 HD 
HETATM   32  C   UNL     1      -9.965   5.625  68.269  1.00  0.00    -0.197 A  
HETATM   33  C   UNL     1     -10.239   5.076  67.031  1.00  0.00    -0.253 A  
HETATM   34  C   UNL     1      -9.387   5.276  65.955  1.00  0.00    -0.165 A  
HETATM   35  C   UNL     1      -8.220   6.078  66.101  1.00  0.00    -0.121 A  
HETATM   36  O   UNL     1      -7.531   6.466  64.994  1.00  0.00    -0.074 OA 
HETATM   37  C   UNL     1      -7.872   6.532  67.371  1.00  0.00    -0.112 A  
HETATM   38  H   UNL     1      -6.752   7.002  65.091  1.00  0.00     0.000 HD 
HETATM   39  C   UNL     1      -8.690   6.285  68.482  1.00  0.00    -0.112 A  
HETATM   40  C   UNL     1      -8.268   7.114  69.664  1.00  0.00    -0.131 C  
HETATM   41  C   UNL     1      -7.406   8.146  68.797  1.00  0.00    -0.088 C  
HETATM   42  C   UNL     1      -7.899   6.345  71.254  1.00  0.00    -0.104 C  
HETATM   43  O   UNL     1      -6.846   7.412  67.673  1.00  0.00    -0.072 OA 
HETATM   44  C   UNL     1      -9.255   6.326  72.437  1.00  0.00    -0.138 C  
HETATM   45  N   UNL     1     -10.624   6.279  71.871  1.00  0.00    -0.213 NA 
BRANCH  45  46
HETATM   46  C   UNL     1     -11.645   7.255  72.206  1.00  0.00    -0.277 C  
BRANCH  46  47
HETATM   47  C   UNL     1     -12.952   7.061  71.512  1.00  0.00    -0.411 C  
HETATM   48  C   UNL     1     -14.057   7.744  71.829  1.00  0.00    -0.519 C  
ENDBRANCH  46  47
ENDBRANCH  45  46
ENDBRANCH  23  24
ENDBRANCH  22  23
ENDBRANCH  21  22
ENDBRANCH  20  21
ENDBRANCH  19  20
ENDBRANCH  18  19
ENDBRANCH  17  18
ENDBRANCH  16  17
ENDBRANCH  15  16
ENDBRANCH  14  15
ENDBRANCH  13  14
ENDBRANCH  12  13
ENDBRANCH  11  12
ENDBRANCH  10  11
ENDBRANCH   9  10
ENDBRANCH   8   9
ENDBRANCH   7   8
ENDBRANCH   6   7
ENDBRANCH   5   6
ENDBRANCH   4   5
ENDBRANCH   3   4
ENDBRANCH   2   3
TORSDOF 24
ENDMDL
MODEL       66
REMARK 921   NORMALIZED FREE ENERGY PREDICTED BY IDOCK:   -4.45 KCAL/MOL
REMARK 922        TOTAL FREE ENERGY PREDICTED BY IDOCK:  -12.99 KCAL/MOL
REMARK 923 INTER-LIGAND FREE ENERGY PREDICTED BY IDOCK:  -10.60 KCAL/MOL
REMARK 924 INTRA-LIGAND FREE ENERGY PREDICTED BY IDOCK:   -2.38 KCAL/MOL
REMARK 927      BINDING AFFINITY PREDICTED BY RF-SCORE:    0.00 PKD
ROOT
HETATM    1  C   UNL     1     -10.461   3.622  64.298  1.00  0.00    -0.218 C  
HETATM    2  O   UNL     1     -10.012   4.490  65.330  1.00  0.00    -0.187 OA 
ENDROOT
BRANCH   2   3
HETATM    3  C   UNL     1      -8.679   4.936  65.088  1.00  0.00    -0.148 C  
BRANCH   3   4
HETATM    4  C   UNL     1      -7.709   3.796  65.364  1.00  0.00    -0.082 C  
BRANCH   4   5
HETATM    5  O   UNL     1      -7.627   3.587  66.773  1.00  0.00    -0.078 OA 
BRANCH   5   6
HETATM    6  C   UNL     1      -6.334   3.930  67.265  1.00  0.00    -0.037 C  
BRANCH   6   7
HETATM    7  C   UNL     1      -6.391   5.294  67.932  1.00  0.00    -0.040 C  
BRANCH   7   8
HETATM    8  O   UNL     1      -6.858   5.122  69.268  1.00  0.00    -0.050 OA 
BRANCH   8   9
HETATM    9  C   UNL     1      -8.102   5.781  69.472  1.00  0.00    -0.108 C  
BRANCH   9  10
HETATM   10  C   UNL     1      -7.961   6.745  70.637  1.00  0.00    -0.110 C  
BRANCH  10  11
HETATM   11  O   UNL     1      -8.693   7.927  70.335  1.00  0.00    -0.135 OA 
BRANCH  11  12
HETATM   12  C   UNL     1      -8.080   8.659  69.280  1.00  0.00    -0.112 C  
BRANCH  12  13
HETATM   13  C   UNL     1      -8.423  10.128  69.449  1.00  0.00    -0.171 C  
BRANCH  13  14
HETATM   14  O   UNL     1      -7.990  10.848  68.302  1.00  0.00    -0.110 OA 
BRANCH  14  15
HETATM   15  C   UNL     1      -6.630  11.238  68.447  1.00  0.00    -0.059 C  
BRANCH  15  16
HETATM   16  C   UNL     1      -6.461  12.093  69.691  1.00  0.00    -0.082 C  
BRANCH  16  17
HETATM   17  O   UNL     1      -5.710  13.243  69.321  1.00  0.00    -0.076 OA 
BRANCH  17  18
HETATM   18  C   UNL     1      -6.370  14.028  68.341  1.00  0.00    -0.105 C  
BRANCH  18  19
HETATM   19  C   UNL     1      -6.286  15.478  68.779  1.00  0.00    -0.103 C  
BRANCH  19  20
HETATM   20  O   UNL     1      -7.525  15.880  69.349  1.00  0.00    -0.219 OA 
BRANCH  20  21
HETATM   21  C   UNL     1      -7.995  17.105  68.789  1.00  0.00    -0.255 C  
BRANCH  21  22
HETATM   22  C   UNL     1      -8.551  16.884  67.378  1.00  0.00    -0.202 C  
BRANCH  22  23
HETATM   23  O   UNL     1      -9.794  17.568  67.078  1.00  0.00    -0.274 OA 
BRANCH  23  24
HETATM   24  C   UNL     1     -10.902  16.693  66.753  1.00  0.00    -0.037 C  
HETATM   25  C   UNL     1     -10.716  16.102  65.384  1.00  0.00    -0.374 C  
HETATM   26  C   UNL     1      -9.927  14.668  65.361  1.00  0.00    -0.365 C  
HETATM   27  C   UNL     1     -10.383  13.468  66.393  1.00  0.00    -0.289 C  
HETATM   28  C   UNL     1     -11.173  12.011  66.210  1.00  0.00    -0.342 C  
HETATM   29  O   UNL     1      -9.234  13.275  67.231  1.00  0.00    -0.204 OA 
HETATM   30  C   UNL     1     -11.324  11.106  67.436  1.00  0.00    -0.329 C  
HETATM   31  H   UNL     1      -9.497  12.583  67.827  1.00  0.00     0.000 HD 
HETATM   32  C   UNL     1     -11.880  12.023  68.498  1.00  0.00    -0.369 A  
HETATM   33  C   UNL     1     -12.115  11.591  69.789  1.00  0.00    -0.374 A  
HETATM   34  C   UNL     1     -12.299  12.496  70.825  1.00  0.00    -0.376 A  
HETATM   35  C   UNL     1     -12.220  13.896  70.578  1.00  0.00    -0.373 A  
HETATM   36  O   UNL     1     -12.156  14.759  71.628  1.00  0.00    -0.328 OA 
HETATM   37  C   UNL     1     -12.107  14.341  69.263  1.00  0.00    -0.313 A  
HETATM   38  H   UNL     1     -12.104  15.693  71.464  1.00  0.00     0.000 HD 
HETATM   39  C   UNL     1     -11.985  13.439  68.198  1.00  0.00    -0.356 A  
HETATM   40  C   UNL     1     -11.582  14.143  66.931  1.00  0.00    -0.410 C  
HETATM   41  C   UNL     1     -11.074  15.466  67.675  1.00  0.00    -0.316 C  
HETATM   42  C   UNL     1     -12.550  13.964  65.419  1.00  0.00    -0.538 C  
HETATM   43  O   UNL     1     -11.902  15.649  68.856  1.00  0.00    -0.379 OA 
HETATM   44  C   UNL     1     -11.962  12.711  64.268  1.00  0.00    -0.408 C  
HETATM   45  N   UNL     1     -11.259  11.549  64.861  1.00  0.00    -0.224 NA 
BRANCH  45  46
HETATM   46  C   UNL     1      -9.926  11.146  64.449  1.00  0.00    -0.301 C  
BRANCH  46  47
HETATM   47  C   UNL     1      -9.750  10.973  62.977  1.00  0.00    -0.381 C  
HETATM   48  C   UNL     1      -8.865  10.126  62.441  1.00  0.00    -0.261 C  
ENDBRANCH  46  47
ENDBRANCH  45  46
ENDBRANCH  23  24
ENDBRANCH  22  23
ENDBRANCH  21  22
ENDBRANCH  20  21
ENDBRANCH  19  20
ENDBRANCH  18  19
ENDBRANCH  17  18
ENDBRANCH  16  17
ENDBRANCH  15  16
ENDBRANCH  14  15
ENDBRANCH  13  14
ENDBRANCH  12  13
ENDBRANCH  11  12
ENDBRANCH  10  11
ENDBRANCH   9  10
ENDBRANCH   8   9
ENDBRANCH   7   8
ENDBRANCH   6   7
ENDBRANCH   5   6
ENDBRANCH   4   5
ENDBRANCH   3   4
ENDBRANCH   2   3
TORSDOF 24
ENDMDL
MODEL       67
REMARK 921   NORMALIZED FREE ENERGY PREDICTED BY IDOCK:   -4.44 KCAL/MOL
REMARK 922        TOTAL FREE ENERGY PREDICTED BY IDOCK:  -12.97 KCAL/MOL
REMARK 923 INTER-LIGAND FREE ENERGY PREDICTED BY IDOCK:  -10.49 KCAL/MOL
REMARK 924 INTRA-LIGAND FREE ENERGY PREDICTED BY IDOCK:   -2.48 KCAL/MOL
REMARK 927      BINDING AFFINITY PREDICTED BY RF-SCORE:    0.00 PKD
ROOT
HETATM    1  C   UNL     1      -6.971   2.555  70.797  1.00  0.00    -0.033 C  
HETATM    2  O   UNL     1      -7.430   2.943  72.085  1.00  0.00    -0.049 OA 
ENDROOT
BRANCH   2   3
HETATM    3  C   UNL     1      -6.428   3.669  72.795  1.00  0.00    -0.021 C  
BRANCH   3   4
HETATM    4  C   UNL     1      -7.092   4.745  73.641  1.00  0.00    -0.073 C  
BRANCH   4   5
HETATM    5  O   UNL     1      -7.582   5.775  72.782  1.00  0.00    -0.095 OA 
BRANCH   5   6
HETATM    6  C   UNL     1      -7.195   7.061  73.256  1.00  0.00    -0.073 C  
BRANCH   6   7
HETATM    7  C   UNL     1      -8.436   7.868  73.602  1.00  0.00    -0.242 C  
BRANCH   7   8
HETATM    8  O   UNL     1      -9.557   7.268  72.956  1.00  0.00    -0.150 OA 
BRANCH   8   9
HETATM    9  C   UNL     1     -10.616   8.202  72.783  1.00  0.00    -0.316 C  
BRANCH   9  10
HETATM   10  C   UNL     1     -10.711   8.569  71.313  1.00  0.00    -0.240 C  
BRANCH  10  11
HETATM   11  O   UNL     1     -11.953   8.094  70.809  1.00  0.00    -0.238 OA 
BRANCH  11  12
HETATM   12  C   UNL     1     -11.906   6.696  70.552  1.00  0.00    -0.370 C  
BRANCH  12  13
HETATM   13  C   UNL     1     -10.712   6.408  69.659  1.00  0.00    -0.282 C  
BRANCH  13  14
HETATM   14  O   UNL     1     -10.048   5.240  70.121  1.00  0.00    -0.218 OA 
BRANCH  14  15
HETATM   15  C   UNL     1      -9.521   4.503  69.024  1.00  0.00    -0.162 C  
BRANCH  15  16
HETATM   16  C   UNL     1      -9.622   5.321  67.748  1.00  0.00    -0.133 C  
BRANCH  16  17
HETATM   17  O   UNL     1      -8.333   5.340  67.149  1.00  0.00    -0.108 OA 
BRANCH  17  18
HETATM   18  C   UNL     1      -7.727   6.621  67.209  1.00  0.00    -0.104 C  
BRANCH  18  19
HETATM   19  C   UNL     1      -7.653   7.164  65.795  1.00  0.00    -0.094 C  
BRANCH  19  20
HETATM   20  O   UNL     1      -8.221   8.466  65.750  1.00  0.00    -0.116 OA 
BRANCH  20  21
HETATM   21  C   UNL     1      -8.997   8.749  66.913  1.00  0.00    -0.132 C  
BRANCH  21  22
HETATM   22  C   UNL     1     -10.383   9.279  66.530  1.00  0.00    -0.200 C  
BRANCH  22  23
HETATM   23  O   UNL     1     -10.464  10.706  66.283  1.00  0.00    -0.243 OA 
BRANCH  23  24
HETATM   24  C   UNL     1      -9.873  11.532  67.315  1.00  0.00    -0.190 C  
HETATM   25  C   UNL     1      -9.182  12.718  66.702  1.00  0.00    -0.212 C  
HETATM   26  C   UNL     1     -10.119  14.051  66.549  1.00  0.00    -0.287 C  
HETATM   27  C   UNL     1     -11.017  14.571  67.829  1.00  0.00    -0.275 C  
HETATM   28  C   UNL     1     -10.914  15.866  68.874  1.00  0.00    -0.290 C  
HETATM   29  O   UNL     1     -12.373  14.438  67.380  1.00  0.00    -0.623 OA 
HETATM   30  C   UNL     1     -12.032  16.060  69.904  1.00  0.00    -0.187 C  
HETATM   31  H   UNL     1     -12.890  14.737  68.119  1.00  0.00     0.000 HD 
HETATM   32  C   UNL     1     -12.168  14.705  70.553  1.00  0.00    -0.389 A  
HETATM   33  C   UNL     1     -13.122  14.448  71.518  1.00  0.00    -0.411 A  
HETATM   34  C   UNL     1     -13.463  13.147  71.859  1.00  0.00    -0.513 A  
HETATM   35  C   UNL     1     -12.851  12.045  71.196  1.00  0.00    -0.235 A  
HETATM   36  O   UNL     1     -13.363  10.796  71.360  1.00  0.00    -0.310 OA 
HETATM   37  C   UNL     1     -11.803  12.293  70.312  1.00  0.00    -0.240 A  
HETATM   38  H   UNL     1     -12.955  10.061  70.917  1.00  0.00     0.000 HD 
HETATM   39  C   UNL     1     -11.403  13.600  70.005  1.00  0.00    -0.054 A  
HETATM   40  C   UNL     1     -10.473  13.621  68.823  1.00  0.00    -0.214 C  
HETATM   41  C   UNL     1     -10.866  12.153  68.323  1.00  0.00    -0.223 C  
HETATM   42  C   UNL     1      -8.856  14.417  68.926  1.00  0.00    -0.067 C  
HETATM   43  O   UNL     1     -11.179  11.359  69.500  1.00  0.00    -0.254 OA 
HETATM   44  C   UNL     1      -8.788  16.111  68.323  1.00  0.00    -0.188 C  
HETATM   45  N   UNL     1     -10.034  16.905  68.446  1.00  0.00    -0.260 NA 
BRANCH  45  46
HETATM   46  C   UNL     1     -10.655  17.568  67.313  1.00  0.00    -0.287 C  
BRANCH  46  47
HETATM   47  C   UNL     1     -10.394  19.035  67.223  1.00  0.00    -0.505 C  
HETATM   48  C   UNL     1     -10.210  19.675  66.064  1.00  0.00    -0.587 C  
ENDBRANCH  46  47
ENDBRANCH  45  46
ENDBRANCH  23  24
ENDBRANCH  22  23
ENDBRANCH  21  22
ENDBRANCH  20  21
ENDBRANCH  19  20
ENDBRANCH  18  19
ENDBRANCH  17  18
ENDBRANCH  16  17
ENDBRANCH  15  16
ENDBRANCH  14  15
ENDBRANCH  13  14
ENDBRANCH  12  13
ENDBRANCH  11  12
ENDBRANCH  10  11
ENDBRANCH   9  10
ENDBRANCH   8   9
ENDBRANCH   7   8
ENDBRANCH   6   7
ENDBRANCH   5   6
ENDBRANCH   4   5
ENDBRANCH   3   4
ENDBRANCH   2   3
TORSDOF 24
ENDMDL
MODEL       68
REMARK 921   NORMALIZED FREE ENERGY PREDICTED BY IDOCK:   -4.39 KCAL/MOL
REMARK 922        TOTAL FREE ENERGY PREDICTED BY IDOCK:  -12.83 KCAL/MOL
REMARK 923 INTER-LIGAND FREE ENERGY PREDICTED BY IDOCK:  -10.19 KCAL/MOL
REMARK 924 INTRA-LIGAND FREE ENERGY PREDICTED BY IDOCK:   -2.64 KCAL/MOL
REMARK 927      BINDING AFFINITY PREDICTED BY RF-SCORE:    0.00 PKD
ROOT
HETATM    1  C   UNL     1      -5.735   9.687  71.891  1.00  0.00     0.028 C  
HETATM    2  O   UNL     1      -5.293  10.363  70.721  1.00  0.00    -0.063 OA 
ENDROOT
BRANCH   2   3
HETATM    3  C   UNL     1      -6.389  10.917  69.996  1.00  0.00    -0.142 C  
BRANCH   3   4
HETATM    4  C   UNL     1      -6.112  12.385  69.711  1.00  0.00    -0.137 C  
BRANCH   4   5
HETATM    5  O   UNL     1      -7.241  12.951  69.047  1.00  0.00    -0.076 OA 
BRANCH   5   6
HETATM    6  C   UNL     1      -7.817  12.020  68.136  1.00  0.00    -0.145 C  
BRANCH   6   7
HETATM    7  C   UNL     1      -9.331  12.146  68.171  1.00  0.00    -0.204 C  
BRANCH   7   8
HETATM    8  O   UNL     1      -9.668  13.530  68.133  1.00  0.00    -0.221 OA 
BRANCH   8   9
HETATM    9  C   UNL     1     -11.025  13.744  68.503  1.00  0.00    -0.262 C  
BRANCH   9  10
HETATM   10  C   UNL     1     -11.705  14.569  67.424  1.00  0.00    -0.400 C  
BRANCH  10  11
HETATM   11  O   UNL     1     -12.413  13.687  66.562  1.00  0.00    -0.381 OA 
BRANCH  11  12
HETATM   12  C   UNL     1     -12.399  14.156  65.219  1.00  0.00    -0.460 C  
BRANCH  12  13
HETATM   13  C   UNL     1     -10.955  14.305  64.774  1.00  0.00    -0.398 C  
BRANCH  13  14
HETATM   14  O   UNL     1     -10.392  13.018  64.558  1.00  0.00    -0.366 OA 
BRANCH  14  15
HETATM   15  C   UNL     1     -11.147  12.304  63.586  1.00  0.00    -0.469 C  
BRANCH  15  16
HETATM   16  C   UNL     1     -10.353  11.112  63.080  1.00  0.00    -0.247 C  
BRANCH  16  17
HETATM   17  O   UNL     1      -8.989  11.506  63.010  1.00  0.00    -0.182 OA 
BRANCH  17  18
HETATM   18  C   UNL     1      -8.128  10.423  62.700  1.00  0.00    -0.159 C  
BRANCH  18  19
HETATM   19  C   UNL     1      -8.845   9.140  63.078  1.00  0.00    -0.096 C  
BRANCH  19  20
HETATM   20  O   UNL     1      -8.421   8.715  64.366  1.00  0.00    -0.160 OA 
BRANCH  20  21
HETATM   21  C   UNL     1      -7.586   7.560  64.297  1.00  0.00    -0.105 C  
BRANCH  21  22
HETATM   22  C   UNL     1      -8.228   6.377  65.031  1.00  0.00    -0.125 C  
BRANCH  22  23
HETATM   23  O   UNL     1      -9.238   6.720  66.014  1.00  0.00    -0.132 OA 
BRANCH  23  24
HETATM   24  C   UNL     1      -8.723   6.980  67.343  1.00  0.00    -0.120 C  
HETATM   25  C   UNL     1      -9.164   8.337  67.817  1.00  0.00    -0.144 C  
HETATM   26  C   UNL     1     -10.571   8.345  68.653  1.00  0.00    -0.149 C  
HETATM   27  C   UNL     1     -10.803   7.262  69.873  1.00  0.00    -0.247 C  
HETATM   28  C   UNL     1     -10.859   7.375  71.535  1.00  0.00    -0.224 C  
HETATM   29  O   UNL     1     -11.902   6.459  69.420  1.00  0.00    -0.577 OA 
HETATM   30  C   UNL     1     -11.205   6.118  72.339  1.00  0.00    -0.329 C  
HETATM   31  H   UNL     1     -12.036   5.834  70.124  1.00  0.00     0.000 HD 
HETATM   32  C   UNL     1     -10.276   5.065  71.785  1.00  0.00    -0.272 A  
HETATM   33  C   UNL     1     -10.312   3.754  72.220  1.00  0.00    -0.155 A  
HETATM   34  C   UNL     1      -9.710   2.741  71.490  1.00  0.00    -0.225 A  
HETATM   35  C   UNL     1      -9.063   3.031  70.255  1.00  0.00    -0.120 A  
HETATM   36  O   UNL     1      -8.696   2.010  69.434  1.00  0.00    -0.059 OA 
HETATM   37  C   UNL     1      -8.916   4.362  69.871  1.00  0.00    -0.093 A  
HETATM   38  H   UNL     1      -8.264   2.203  68.610  1.00  0.00     0.000 HD 
HETATM   39  C   UNL     1      -9.463   5.404  70.632  1.00  0.00    -0.215 A  
HETATM   40  C   UNL     1      -9.435   6.703  69.875  1.00  0.00    -0.159 C  
HETATM   41  C   UNL     1      -9.212   6.017  68.447  1.00  0.00    -0.114 C  
HETATM   42  C   UNL     1      -8.670   8.176  70.586  1.00  0.00    -0.136 C  
HETATM   43  O   UNL     1      -8.423   4.814  68.658  1.00  0.00    -0.086 OA 
HETATM   44  C   UNL     1      -9.795   9.308  71.416  1.00  0.00    -0.226 C  
HETATM   45  N   UNL     1     -10.999   8.705  72.035  1.00  0.00    -0.340 NA 
BRANCH  45  46
HETATM   46  C   UNL     1     -12.346   9.151  71.725  1.00  0.00    -0.372 C  
BRANCH  46  47
HETATM   47  C   UNL     1     -12.439  10.539  71.184  1.00  0.00    -0.517 C  
HETATM   48  C   UNL     1     -13.263  11.465  71.685  1.00  0.00    -0.413 C  
ENDBRANCH  46  47
ENDBRANCH  45  46
ENDBRANCH  23  24
ENDBRANCH  22  23
ENDBRANCH  21  22
ENDBRANCH  20  21
ENDBRANCH  19  20
ENDBRANCH  18  19
ENDBRANCH  17  18
ENDBRANCH  16  17
ENDBRANCH  15  16
ENDBRANCH  14  15
ENDBRANCH  13  14
ENDBRANCH  12  13
ENDBRANCH  11  12
ENDBRANCH  10  11
ENDBRANCH   9  10
ENDBRANCH   8   9
ENDBRANCH   7   8
ENDBRANCH   6   7
ENDBRANCH   5   6
ENDBRANCH   4   5
ENDBRANCH   3   4
ENDBRANCH   2   3
TORSDOF 24
ENDMDL
MODEL       69
REMARK 921   NORMALIZED FREE ENERGY PREDICTED BY IDOCK:   -4.38 KCAL/MOL
REMARK 922        TOTAL FREE ENERGY PREDICTED BY IDOCK:  -12.81 KCAL/MOL
REMARK 923 INTER-LIGAND FREE ENERGY PREDICTED BY IDOCK:  -10.49 KCAL/MOL
REMARK 924 INTRA-LIGAND FREE ENERGY PREDICTED BY IDOCK:   -2.32 KCAL/MOL
REMARK 927      BINDING AFFINITY PREDICTED BY RF-SCORE:    0.00 PKD
ROOT
HETATM    1  C   UNL     1      -7.559   9.133  70.724  1.00  0.00    -0.133 C  
HETATM    2  O   UNL     1      -7.857   8.943  72.100  1.00  0.00    -0.351 OA 
ENDROOT
BRANCH   2   3
HETATM    3  C   UNL     1      -9.258   8.774  72.308  1.00  0.00    -0.125 C  
BRANCH   3   4
HETATM    4  C   UNL     1     -10.019   9.433  71.168  1.00  0.00    -0.241 C  
BRANCH   4   5
HETATM    5  O   UNL     1     -11.419   9.274  71.390  1.00  0.00    -0.311 OA 
BRANCH   5   6
HETATM    6  C   UNL     1     -11.667   8.318  72.418  1.00  0.00    -0.397 C  
BRANCH   6   7
HETATM    7  C   UNL     1     -12.428   7.137  71.838  1.00  0.00    -0.306 C  
BRANCH   7   8
HETATM    8  O   UNL     1     -11.557   6.008  71.817  1.00  0.00    -0.287 OA 
BRANCH   8   9
HETATM    9  C   UNL     1     -11.009   5.752  73.104  1.00  0.00    -0.271 C  
BRANCH   9  10
HETATM   10  C   UNL     1      -9.816   4.823  72.954  1.00  0.00    -0.151 C  
BRANCH  10  11
HETATM   11  O   UNL     1     -10.119   3.858  71.955  1.00  0.00    -0.179 OA 
BRANCH  11  12
HETATM   12  C   UNL     1      -8.945   3.432  71.275  1.00  0.00    -0.096 C  
BRANCH  12  13
HETATM   13  C   UNL     1      -8.425   4.586  70.437  1.00  0.00    -0.078 C  
BRANCH  13  14
HETATM   14  O   UNL     1      -9.288   4.788  69.326  1.00  0.00    -0.113 OA 
BRANCH  14  15
HETATM   15  C   UNL     1      -9.635   6.163  69.212  1.00  0.00    -0.133 C  
BRANCH  15  16
HETATM   16  C   UNL     1     -10.922   6.313  68.419  1.00  0.00    -0.325 C  
BRANCH  16  17
HETATM   17  O   UNL     1     -10.900   7.596  67.807  1.00  0.00    -0.170 OA 
BRANCH  17  18
HETATM   18  C   UNL     1      -9.955   7.677  66.753  1.00  0.00    -0.247 C  
BRANCH  18  19
HETATM   19  C   UNL     1      -9.984   9.095  66.214  1.00  0.00    -0.282 C  
BRANCH  19  20
HETATM   20  O   UNL     1      -9.055   9.223  65.146  1.00  0.00    -0.214 OA 
BRANCH  20  21
HETATM   21  C   UNL     1      -7.902   9.969  65.530  1.00  0.00    -0.134 C  
BRANCH  21  22
HETATM   22  C   UNL     1      -8.229  10.929  66.679  1.00  0.00    -0.145 C  
BRANCH  22  23
HETATM   23  O   UNL     1      -8.035  12.339  66.395  1.00  0.00     0.116 OA 
BRANCH  23  24
HETATM   24  C   UNL     1      -9.244  13.135  66.437  1.00  0.00    -0.122 C  
HETATM   25  C   UNL     1     -10.222  12.548  67.416  1.00  0.00    -0.217 C  
HETATM   26  C   UNL     1     -10.102  13.135  68.939  1.00  0.00     0.023 C  
HETATM   27  C   UNL     1     -10.030  14.763  69.183  1.00  0.00    -0.181 C  
HETATM   28  C   UNL     1     -11.089  15.897  69.794  1.00  0.00    -0.324 C  
HETATM   29  O   UNL     1      -8.735  14.970  69.764  1.00  0.00    -0.451 OA 
HETATM   30  C   UNL     1     -10.598  17.339  69.953  1.00  0.00     0.314 C  
HETATM   31  H   UNL     1      -8.694  15.909  69.905  1.00  0.00     0.000 HD 
HETATM   32  C   UNL     1      -9.990  17.667  68.611  1.00  0.00    -0.367 A  
HETATM   33  C   UNL     1      -9.381  18.881  68.359  1.00  0.00    -0.396 A  
HETATM   34  C   UNL     1      -8.544  19.049  67.265  1.00  0.00    -0.298 A  
HETATM   35  C   UNL     1      -8.275  17.957  66.392  1.00  0.00    -0.255 A  
HETATM   36  O   UNL     1      -7.273  18.062  65.478  1.00  0.00    -0.532 OA 
HETATM   37  C   UNL     1      -8.979  16.768  66.566  1.00  0.00    -0.273 A  
HETATM   38  H   UNL     1      -7.093  17.334  64.894  1.00  0.00     0.000 HD 
HETATM   39  C   UNL     1      -9.877  16.603  67.630  1.00  0.00    -0.256 A  
HETATM   40  C   UNL     1     -10.281  15.163  67.782  1.00  0.00    -0.236 C  
HETATM   41  C   UNL     1      -9.064  14.594  66.913  1.00  0.00    -0.252 C  
HETATM   42  C   UNL     1     -12.021  14.681  67.796  1.00  0.00    -0.302 C  
HETATM   43  O   UNL     1      -8.760  15.580  65.889  1.00  0.00    -0.172 OA 
HETATM   44  C   UNL     1     -12.760  14.499  69.426  1.00  0.00     0.241 C  
HETATM   45  N   UNL     1     -12.200  15.349  70.503  1.00  0.00    -0.365 NA 
BRANCH  45  46
HETATM   46  C   UNL     1     -11.698  14.802  71.752  1.00  0.00    -0.243 C  
BRANCH  46  47
HETATM   47  C   UNL     1     -12.016  15.612  72.965  1.00  0.00    -0.590 C  
HETATM   48  C   UNL     1     -13.265  15.855  73.375  1.00  0.00    -0.668 C  
ENDBRANCH  46  47
ENDBRANCH  45  46
ENDBRANCH  23  24
ENDBRANCH  22  23
ENDBRANCH  21  22
ENDBRANCH  20  21
ENDBRANCH  19  20
ENDBRANCH  18  19
ENDBRANCH  17  18
ENDBRANCH  16  17
ENDBRANCH  15  16
ENDBRANCH  14  15
ENDBRANCH  13  14
ENDBRANCH  12  13
ENDBRANCH  11  12
ENDBRANCH  10  11
ENDBRANCH   9  10
ENDBRANCH   8   9
ENDBRANCH   7   8
ENDBRANCH   6   7
ENDBRANCH   5   6
ENDBRANCH   4   5
ENDBRANCH   3   4
ENDBRANCH   2   3
TORSDOF 24
ENDMDL
MODEL       70
REMARK 921   NORMALIZED FREE ENERGY PREDICTED BY IDOCK:   -4.38 KCAL/MOL
REMARK 922        TOTAL FREE ENERGY PREDICTED BY IDOCK:  -12.81 KCAL/MOL
REMARK 923 INTER-LIGAND FREE ENERGY PREDICTED BY IDOCK:  -10.33 KCAL/MOL
REMARK 924 INTRA-LIGAND FREE ENERGY PREDICTED BY IDOCK:   -2.48 KCAL/MOL
REMARK 927      BINDING AFFINITY PREDICTED BY RF-SCORE:    0.00 PKD
ROOT
HETATM    1  C   UNL     1     -11.395  10.730  68.419  1.00  0.00    -0.302 C  
HETATM    2  O   UNL     1     -11.723  11.429  67.226  1.00  0.00    -0.577 OA 
ENDROOT
BRANCH   2   3
HETATM    3  C   UNL     1     -10.688  11.307  66.252  1.00  0.00    -0.257 C  
BRANCH   3   4
HETATM    4  C   UNL     1     -11.190  11.833  64.916  1.00  0.00    -0.266 C  
BRANCH   4   5
HETATM    5  O   UNL     1     -10.270  11.457  63.892  1.00  0.00    -0.292 OA 
BRANCH   5   6
HETATM    6  C   UNL     1      -9.625  10.227  64.213  1.00  0.00    -0.313 C  
BRANCH   6   7
HETATM    7  C   UNL     1      -8.734   9.805  63.057  1.00  0.00    -0.227 C  
BRANCH   7   8
HETATM    8  O   UNL     1      -8.123   8.561  63.390  1.00  0.00    -0.159 OA 
BRANCH   8   9
HETATM    9  C   UNL     1      -7.411   8.646  64.619  1.00  0.00    -0.094 C  
BRANCH   9  10
HETATM   10  C   UNL     1      -7.845   7.502  65.518  1.00  0.00    -0.114 C  
BRANCH  10  11
HETATM   11  O   UNL     1      -8.577   8.041  66.611  1.00  0.00    -0.126 OA 
BRANCH  11  12
HETATM   12  C   UNL     1      -8.611   7.134  67.707  1.00  0.00    -0.126 C  
BRANCH  12  13
HETATM   13  C   UNL     1      -9.865   7.406  68.521  1.00  0.00    -0.159 C  
BRANCH  13  14
HETATM   14  O   UNL     1      -9.515   7.549  69.891  1.00  0.00    -0.161 OA 
BRANCH  14  15
HETATM   15  C   UNL     1      -8.102   7.615  70.037  1.00  0.00    -0.120 C  
BRANCH  15  16
HETATM   16  C   UNL     1      -7.743   8.290  71.350  1.00  0.00    -0.097 C  
BRANCH  16  17
HETATM   17  O   UNL     1      -7.865   9.693  71.156  1.00  0.00    -0.289 OA 
BRANCH  17  18
HETATM   18  C   UNL     1      -7.427  10.102  69.871  1.00  0.00    -0.170 C  
BRANCH  18  19
HETATM   19  C   UNL     1      -5.999  10.597  70.006  1.00  0.00    -0.087 C  
BRANCH  19  20
HETATM   20  O   UNL     1      -5.900  11.485  71.111  1.00  0.00    -0.380 OA 
BRANCH  20  21
HETATM   21  C   UNL     1      -5.667  12.829  70.695  1.00  0.00    -0.156 C  
BRANCH  21  22
HETATM   22  C   UNL     1      -5.285  12.885  69.212  1.00  0.00    -0.073 C  
BRANCH  22  23
HETATM   23  O   UNL     1      -5.337  14.198  68.598  1.00  0.00    -0.081 OA 
BRANCH  23  24
HETATM   24  C   UNL     1      -6.397  14.368  67.626  1.00  0.00    -0.106 C  
HETATM   25  C   UNL     1      -7.644  13.666  68.085  1.00  0.00    -0.137 C  
HETATM   26  C   UNL     1      -8.667  14.592  68.963  1.00  0.00    -0.097 C  
HETATM   27  C   UNL     1      -9.080  16.093  68.422  1.00  0.00    -0.199 C  
HETATM   28  C   UNL     1     -10.467  16.758  67.778  1.00  0.00    -0.335 C  
HETATM   29  O   UNL     1      -8.555  16.979  69.420  1.00  0.00     0.022 OA 
HETATM   30  C   UNL     1     -10.483  18.260  67.481  1.00  0.00    -0.431 C  
HETATM   31  H   UNL     1      -8.794  17.845  69.107  1.00  0.00     0.000 HD 
HETATM   32  C   UNL     1      -9.219  18.488  66.688  1.00  0.00    -0.306 A  
HETATM   33  C   UNL     1      -8.837  19.746  66.266  1.00  0.00    -0.417 A  
HETATM   34  C   UNL     1      -7.539  19.996  65.845  1.00  0.00    -0.316 A  
HETATM   35  C   UNL     1      -6.563  18.959  65.867  1.00  0.00    -0.243 A  
HETATM   36  O   UNL     1      -5.251  19.269  65.690  1.00  0.00    -0.148 OA 
HETATM   37  C   UNL     1      -6.969  17.662  66.173  1.00  0.00    -0.303 A  
HETATM   38  H   UNL     1      -4.600  18.578  65.705  1.00  0.00     0.000 HD 
HETATM   39  C   UNL     1      -8.293  17.381  66.539  1.00  0.00    -0.308 A  
HETATM   40  C   UNL     1      -8.418  15.993  67.104  1.00  0.00    -0.223 C  
HETATM   41  C   UNL     1      -6.852  15.825  67.384  1.00  0.00    -0.201 C  
HETATM   42  C   UNL     1      -9.607  14.816  66.425  1.00  0.00    -0.324 C  
HETATM   43  O   UNL     1      -6.142  16.566  66.354  1.00  0.00    -0.236 OA 
HETATM   44  C   UNL     1     -11.184  14.726  67.287  1.00  0.00    -0.346 C  
HETATM   45  N   UNL     1     -11.642  15.966  67.957  1.00  0.00    -0.242 NA 
BRANCH  45  46
HETATM   46  C   UNL     1     -11.993  16.012  69.365  1.00  0.00    -0.178 C  
BRANCH  46  47
HETATM   47  C   UNL     1     -12.577  14.751  69.908  1.00  0.00    -0.215 C  
HETATM   48  C   UNL     1     -12.141  14.166  71.028  1.00  0.00    -0.411 C  
ENDBRANCH  46  47
ENDBRANCH  45  46
ENDBRANCH  23  24
ENDBRANCH  22  23
ENDBRANCH  21  22
ENDBRANCH  20  21
ENDBRANCH  19  20
ENDBRANCH  18  19
ENDBRANCH  17  18
ENDBRANCH  16  17
ENDBRANCH  15  16
ENDBRANCH  14  15
ENDBRANCH  13  14
ENDBRANCH  12  13
ENDBRANCH  11  12
ENDBRANCH  10  11
ENDBRANCH   9  10
ENDBRANCH   8   9
ENDBRANCH   7   8
ENDBRANCH   6   7
ENDBRANCH   5   6
ENDBRANCH   4   5
ENDBRANCH   3   4
ENDBRANCH   2   3
TORSDOF 24
ENDMDL
MODEL       71
REMARK 921   NORMALIZED FREE ENERGY PREDICTED BY IDOCK:   -4.36 KCAL/MOL
REMARK 922        TOTAL FREE ENERGY PREDICTED BY IDOCK:  -12.77 KCAL/MOL
REMARK 923 INTER-LIGAND FREE ENERGY PREDICTED BY IDOCK:   -9.97 KCAL/MOL
REMARK 924 INTRA-LIGAND FREE ENERGY PREDICTED BY IDOCK:   -2.80 KCAL/MOL
REMARK 927      BINDING AFFINITY PREDICTED BY RF-SCORE:    0.00 PKD
ROOT
HETATM    1  C   UNL     1     -13.657   7.471  71.578  1.00  0.00    -0.363 C  
HETATM    2  O   UNL     1     -12.253   7.279  71.684  1.00  0.00    -0.308 OA 
ENDROOT
BRANCH   2   3
HETATM    3  C   UNL     1     -11.698   8.074  72.730  1.00  0.00    -0.290 C  
BRANCH   3   4
HETATM    4  C   UNL     1     -10.298   7.575  73.053  1.00  0.00    -0.322 C  
BRANCH   4   5
HETATM    5  O   UNL     1      -9.692   7.086  71.857  1.00  0.00    -0.158 OA 
BRANCH   5   6
HETATM    6  C   UNL     1      -8.539   6.302  72.153  1.00  0.00    -0.126 C  
BRANCH   6   7
HETATM    7  C   UNL     1      -8.451   5.141  71.176  1.00  0.00    -0.122 C  
BRANCH   7   8
HETATM    8  O   UNL     1      -9.143   5.503  69.984  1.00  0.00    -0.131 OA 
BRANCH   8   9
HETATM    9  C   UNL     1      -9.636   4.356  69.302  1.00  0.00    -0.191 C  
BRANCH   9  10
HETATM   10  C   UNL     1      -8.579   3.266  69.346  1.00  0.00    -0.067 C  
BRANCH  10  11
HETATM   11  O   UNL     1      -7.878   3.267  68.109  1.00  0.00    -0.063 OA 
BRANCH  11  12
HETATM   12  C   UNL     1      -6.573   3.816  68.255  1.00  0.00    -0.045 C  
BRANCH  12  13
HETATM   13  C   UNL     1      -6.549   5.187  67.601  1.00  0.00    -0.053 C  
BRANCH  13  14
HETATM   14  O   UNL     1      -5.662   6.035  68.316  1.00  0.00    -0.011 OA 
BRANCH  14  15
HETATM   15  C   UNL     1      -6.310   7.254  68.661  1.00  0.00    -0.036 C  
BRANCH  15  16
HETATM   16  C   UNL     1      -7.306   7.639  67.581  1.00  0.00    -0.095 C  
BRANCH  16  17
HETATM   17  O   UNL     1      -8.057   8.744  68.066  1.00  0.00    -0.106 OA 
BRANCH  17  18
HETATM   18  C   UNL     1      -9.318   8.355  68.586  1.00  0.00    -0.143 C  
BRANCH  18  19
HETATM   19  C   UNL     1      -9.879   9.531  69.364  1.00  0.00    -0.186 C  
BRANCH  19  20
HETATM   20  O   UNL     1     -11.269   9.338  69.590  1.00  0.00    -0.170 OA 
BRANCH  20  21
HETATM   21  C   UNL     1     -11.893  10.514  70.102  1.00  0.00    -0.320 C  
BRANCH  21  22
HETATM   22  C   UNL     1     -11.558  11.733  69.234  1.00  0.00    -0.315 C  
BRANCH  22  23
HETATM   23  O   UNL     1     -12.049  11.687  67.870  1.00  0.00    -0.613 OA 
BRANCH  23  24
HETATM   24  C   UNL     1     -11.304  12.502  66.933  1.00  0.00    -0.326 C  
HETATM   25  C   UNL     1     -11.982  13.830  66.744  1.00  0.00    -0.465 C  
HETATM   26  C   UNL     1     -11.474  15.008  67.759  1.00  0.00    -0.347 C  
HETATM   27  C   UNL     1      -9.860  15.268  67.965  1.00  0.00    -0.216 C  
HETATM   28  C   UNL     1      -8.803  16.468  67.491  1.00  0.00    -0.191 C  
HETATM   29  O   UNL     1      -9.633  14.965  69.349  1.00  0.00    -0.352 OA 
HETATM   30  C   UNL     1      -7.353  16.395  67.980  1.00  0.00    -0.144 C  
HETATM   31  H   UNL     1      -8.702  15.115  69.468  1.00  0.00     0.000 HD 
HETATM   32  C   UNL     1      -6.930  14.984  67.655  1.00  0.00    -0.205 A  
HETATM   33  C   UNL     1      -5.681  14.498  67.990  1.00  0.00    -0.140 A  
HETATM   34  C   UNL     1      -5.421  13.135  67.997  1.00  0.00    -0.108 A  
HETATM   35  C   UNL     1      -6.452  12.205  67.683  1.00  0.00    -0.110 A  
HETATM   36  O   UNL     1      -6.258  10.881  67.930  1.00  0.00    -0.053 OA 
HETATM   37  C   UNL     1      -7.676  12.689  67.226  1.00  0.00    -0.140 A  
HETATM   38  H   UNL     1      -6.946  10.260  67.720  1.00  0.00     0.000 HD 
HETATM   39  C   UNL     1      -7.933  14.064  67.151  1.00  0.00    -0.083 A  
HETATM   40  C   UNL     1      -9.395  14.333  66.920  1.00  0.00    -0.268 C  
HETATM   41  C   UNL     1      -9.867  12.870  67.365  1.00  0.00    -0.207 C  
HETATM   42  C   UNL     1      -9.945  15.359  65.541  1.00  0.00    -0.379 C  
HETATM   43  O   UNL     1      -8.816  11.938  66.990  1.00  0.00    -0.176 OA 
HETATM   44  C   UNL     1     -10.244  17.089  65.936  1.00  0.00    -0.296 C  
HETATM   45  N   UNL     1      -9.432  17.665  67.033  1.00  0.00    -0.258 NA 
BRANCH  45  46
HETATM   46  C   UNL     1     -10.025  18.319  68.186  1.00  0.00    -0.360 C  
BRANCH  46  47
HETATM   47  C   UNL     1     -10.177  19.798  68.061  1.00  0.00    -0.581 C  
HETATM   48  C   UNL     1      -9.187  20.603  67.661  1.00  0.00    -0.331 C  
ENDBRANCH  46  47
ENDBRANCH  45  46
ENDBRANCH  23  24
ENDBRANCH  22  23
ENDBRANCH  21  22
ENDBRANCH  20  21
ENDBRANCH  19  20
ENDBRANCH  18  19
ENDBRANCH  17  18
ENDBRANCH  16  17
ENDBRANCH  15  16
ENDBRANCH  14  15
ENDBRANCH  13  14
ENDBRANCH  12  13
ENDBRANCH  11  12
ENDBRANCH  10  11
ENDBRANCH   9  10
ENDBRANCH   8   9
ENDBRANCH   7   8
ENDBRANCH   6   7
ENDBRANCH   5   6
ENDBRANCH   4   5
ENDBRANCH   3   4
ENDBRANCH   2   3
TORSDOF 24
ENDMDL
MODEL       72
REMARK 921   NORMALIZED FREE ENERGY PREDICTED BY IDOCK:   -4.34 KCAL/MOL
REMARK 922        TOTAL FREE ENERGY PREDICTED BY IDOCK:  -12.73 KCAL/MOL
REMARK 923 INTER-LIGAND FREE ENERGY PREDICTED BY IDOCK:  -10.81 KCAL/MOL
REMARK 924 INTRA-LIGAND FREE ENERGY PREDICTED BY IDOCK:   -1.91 KCAL/MOL
REMARK 927      BINDING AFFINITY PREDICTED BY RF-SCORE:    0.00 PKD
ROOT
HETATM    1  C   UNL     1      -9.957  20.057  66.664  1.00  0.00    -0.470 C  
HETATM    2  O   UNL     1      -8.929  19.077  66.652  1.00  0.00    -0.302 OA 
ENDROOT
BRANCH   2   3
HETATM    3  C   UNL     1      -7.677  19.644  66.268  1.00  0.00    -0.315 C  
BRANCH   3   4
HETATM    4  C   UNL     1      -6.550  18.877  66.944  1.00  0.00    -0.189 C  
BRANCH   4   5
HETATM    5  O   UNL     1      -6.952  18.532  68.269  1.00  0.00    -0.235 OA 
BRANCH   5   6
HETATM    6  C   UNL     1      -6.390  17.283  68.664  1.00  0.00    -0.173 C  
BRANCH   6   7
HETATM    7  C   UNL     1      -6.792  16.209  67.667  1.00  0.00    -0.152 C  
BRANCH   7   8
HETATM    8  O   UNL     1      -8.184  15.946  67.826  1.00  0.00    -0.142 OA 
BRANCH   8   9
HETATM    9  C   UNL     1      -8.439  15.197  69.008  1.00  0.00    -0.214 C  
BRANCH   9  10
HETATM   10  C   UNL     1      -9.774  14.488  68.861  1.00  0.00    -0.169 C  
BRANCH  10  11
HETATM   11  O   UNL     1     -10.345  14.855  67.612  1.00  0.00    -0.239 OA 
BRANCH  11  12
HETATM   12  C   UNL     1     -11.740  14.576  67.579  1.00  0.00    -0.386 C  
BRANCH  12  13
HETATM   13  C   UNL     1     -12.065  13.894  66.261  1.00  0.00    -0.451 C  
BRANCH  13  14
HETATM   14  O   UNL     1     -11.646  12.538  66.316  1.00  0.00    -0.351 OA 
BRANCH  14  15
HETATM   15  C   UNL     1     -10.484  12.346  65.518  1.00  0.00    -0.275 C  
BRANCH  15  16
HETATM   16  C   UNL     1      -9.744  11.096  65.964  1.00  0.00    -0.226 C  
BRANCH  16  17
HETATM   17  O   UNL     1     -10.097  10.049  65.069  1.00  0.00    -0.323 OA 
BRANCH  17  18
HETATM   18  C   UNL     1      -9.658  10.299  63.744  1.00  0.00    -0.284 C  
BRANCH  18  19
HETATM   19  C   UNL     1      -8.580   9.283  63.415  1.00  0.00    -0.197 C  
BRANCH  19  20
HETATM   20  O   UNL     1      -8.294   8.497  64.563  1.00  0.00    -0.161 OA 
BRANCH  20  21
HETATM   21  C   UNL     1      -8.050   7.132  64.226  1.00  0.00    -0.043 C  
BRANCH  21  22
HETATM   22  C   UNL     1      -7.620   6.332  65.461  1.00  0.00    -0.087 C  
BRANCH  22  23
HETATM   23  O   UNL     1      -8.660   6.081  66.440  1.00  0.00    -0.121 OA 
BRANCH  23  24
HETATM   24  C   UNL     1      -8.363   6.562  67.774  1.00  0.00    -0.119 C  
HETATM   25  C   UNL     1      -8.852   7.973  67.941  1.00  0.00    -0.130 C  
HETATM   26  C   UNL     1     -10.375   8.104  68.525  1.00  0.00    -0.230 C  
HETATM   27  C   UNL     1     -10.819   7.235  69.852  1.00  0.00    -0.247 C  
HETATM   28  C   UNL     1     -11.142   7.619  71.442  1.00  0.00    -0.238 C  
HETATM   29  O   UNL     1     -11.844   6.357  69.365  1.00  0.00    -0.577 OA 
HETATM   30  C   UNL     1     -11.634   6.508  72.374  1.00  0.00    -0.292 C  
HETATM   31  H   UNL     1     -12.100   5.855  70.131  1.00  0.00     0.000 HD 
HETATM   32  C   UNL     1     -10.645   5.389  72.159  1.00  0.00    -0.284 A  
HETATM   33  C   UNL     1     -10.773   4.167  72.792  1.00  0.00    -0.197 A  
HETATM   34  C   UNL     1     -10.077   3.053  72.345  1.00  0.00    -0.229 A  
HETATM   35  C   UNL     1      -9.234   3.143  71.201  1.00  0.00    -0.126 A  
HETATM   36  O   UNL     1      -8.757   2.004  70.630  1.00  0.00    -0.050 OA 
HETATM   37  C   UNL     1      -9.005   4.394  70.633  1.00  0.00    -0.107 A  
HETATM   38  H   UNL     1      -8.194   2.064  69.866  1.00  0.00     0.000 HD 
HETATM   39  C   UNL     1      -9.651   5.541  71.113  1.00  0.00    -0.207 A  
HETATM   40  C   UNL     1      -9.479   6.699  70.168  1.00  0.00    -0.162 C  
HETATM   41  C   UNL     1      -9.039   5.788  68.927  1.00  0.00    -0.115 C  
HETATM   42  C   UNL     1      -8.814   8.276  70.741  1.00  0.00    -0.162 C  
HETATM   43  O   UNL     1      -8.315   4.645  69.458  1.00  0.00    -0.074 OA 
HETATM   44  C   UNL     1     -10.040   9.517  71.181  1.00  0.00    -0.192 C  
HETATM   45  N   UNL     1     -11.339   9.013  71.687  1.00  0.00    -0.335 NA 
BRANCH  45  46
HETATM   46  C   UNL     1     -12.610   9.387  71.094  1.00  0.00    -0.282 C  
BRANCH  46  47
HETATM   47  C   UNL     1     -12.783  10.850  70.852  1.00  0.00    -0.464 C  
HETATM   48  C   UNL     1     -13.132  11.713  71.812  1.00  0.00    -0.487 C  
ENDBRANCH  46  47
ENDBRANCH  45  46
ENDBRANCH  23  24
ENDBRANCH  22  23
ENDBRANCH  21  22
ENDBRANCH  20  21
ENDBRANCH  19  20
ENDBRANCH  18  19
ENDBRANCH  17  18
ENDBRANCH  16  17
ENDBRANCH  15  16
ENDBRANCH  14  15
ENDBRANCH  13  14
ENDBRANCH  12  13
ENDBRANCH  11  12
ENDBRANCH  10  11
ENDBRANCH   9  10
ENDBRANCH   8   9
ENDBRANCH   7   8
ENDBRANCH   6   7
ENDBRANCH   5   6
ENDBRANCH   4   5
ENDBRANCH   3   4
ENDBRANCH   2   3
TORSDOF 24
ENDMDL
MODEL       73
REMARK 921   NORMALIZED FREE ENERGY PREDICTED BY IDOCK:   -4.33 KCAL/MOL
REMARK 922        TOTAL FREE ENERGY PREDICTED BY IDOCK:  -12.69 KCAL/MOL
REMARK 923 INTER-LIGAND FREE ENERGY PREDICTED BY IDOCK:  -10.99 KCAL/MOL
REMARK 924 INTRA-LIGAND FREE ENERGY PREDICTED BY IDOCK:   -1.70 KCAL/MOL
REMARK 927      BINDING AFFINITY PREDICTED BY RF-SCORE:    0.00 PKD
ROOT
HETATM    1  C   UNL     1     -10.391   7.944  66.959  1.00  0.00    -0.341 C  
HETATM    2  O   UNL     1     -11.143   6.740  67.023  1.00  0.00    -0.403 OA 
ENDROOT
BRANCH   2   3
HETATM    3  C   UNL     1     -11.089   6.164  68.327  1.00  0.00    -0.239 C  
BRANCH   3   4
HETATM    4  C   UNL     1      -9.873   5.255  68.425  1.00  0.00    -0.153 C  
BRANCH   4   5
HETATM    5  O   UNL     1      -9.045   5.701  69.499  1.00  0.00    -0.123 OA 
BRANCH   5   6
HETATM    6  C   UNL     1      -7.682   5.787  69.091  1.00  0.00    -0.090 C  
BRANCH   6   7
HETATM    7  C   UNL     1      -7.062   4.400  69.099  1.00  0.00    -0.051 C  
BRANCH   7   8
HETATM    8  O   UNL     1      -7.227   3.841  70.401  1.00  0.00    -0.040 OA 
BRANCH   8   9
HETATM    9  C   UNL     1      -5.971   3.614  71.030  1.00  0.00    -0.014 C  
BRANCH   9  10
HETATM   10  C   UNL     1      -6.098   3.932  72.509  1.00  0.00    -0.009 C  
BRANCH  10  11
HETATM   11  O   UNL     1      -7.155   4.869  72.679  1.00  0.00    -0.073 OA 
BRANCH  11  12
HETATM   12  C   UNL     1      -7.889   4.608  73.870  1.00  0.00    -0.101 C  
BRANCH  12  13
HETATM   13  C   UNL     1      -9.185   3.911  73.495  1.00  0.00    -0.101 C  
BRANCH  13  14
HETATM   14  O   UNL     1     -10.259   4.484  74.228  1.00  0.00    -0.184 OA 
BRANCH  14  15
HETATM   15  C   UNL     1     -11.320   4.846  73.353  1.00  0.00    -0.298 C  
BRANCH  15  16
HETATM   16  C   UNL     1     -11.032   6.192  72.712  1.00  0.00    -0.260 C  
BRANCH  16  17
HETATM   17  O   UNL     1     -12.193   6.577  71.987  1.00  0.00    -0.338 OA 
BRANCH  17  18
HETATM   18  C   UNL     1     -12.041   7.835  71.349  1.00  0.00    -0.311 C  
BRANCH  18  19
HETATM   19  C   UNL     1     -13.362   8.573  71.462  1.00  0.00    -0.293 C  
BRANCH  19  20
HETATM   20  O   UNL     1     -13.122   9.961  71.646  1.00  0.00    -0.374 OA 
BRANCH  20  21
HETATM   21  C   UNL     1     -11.878  10.367  71.076  1.00  0.00    -0.361 C  
BRANCH  21  22
HETATM   22  C   UNL     1     -12.049  10.744  69.601  1.00  0.00    -0.289 C  
BRANCH  22  23
HETATM   23  O   UNL     1     -12.012  12.164  69.306  1.00  0.00    -0.300 OA 
BRANCH  23  24
HETATM   24  C   UNL     1     -11.358  12.505  68.060  1.00  0.00    -0.289 C  
HETATM   25  C   UNL     1     -12.116  13.593  67.353  1.00  0.00    -0.375 C  
HETATM   26  C   UNL     1     -11.628  15.112  67.714  1.00  0.00    -0.303 C  
HETATM   27  C   UNL     1     -10.023  15.485  67.679  1.00  0.00    -0.233 C  
HETATM   28  C   UNL     1      -9.058  16.384  66.660  1.00  0.00    -0.250 C  
HETATM   29  O   UNL     1      -9.717  15.828  69.038  1.00  0.00    -0.211 OA 
HETATM   30  C   UNL     1      -7.586  16.577  67.034  1.00  0.00    -0.240 C  
HETATM   31  H   UNL     1      -8.791  16.043  69.018  1.00  0.00     0.000 HD 
HETATM   32  C   UNL     1      -7.100  15.180  67.332  1.00  0.00    -0.219 A  
HETATM   33  C   UNL     1      -5.811  14.929  67.764  1.00  0.00    -0.112 A  
HETATM   34  C   UNL     1      -5.476  13.717  68.349  1.00  0.00    -0.097 A  
HETATM   35  C   UNL     1      -6.467  12.713  68.543  1.00  0.00    -0.074 A  
HETATM   36  O   UNL     1      -6.189  11.640  69.331  1.00  0.00    -0.079 OA 
HETATM   37  C   UNL     1      -7.735  12.909  68.002  1.00  0.00    -0.143 A  
HETATM   38  H   UNL     1      -6.850  10.970  69.461  1.00  0.00     0.000 HD 
HETATM   39  C   UNL     1      -8.072  14.103  67.350  1.00  0.00    -0.205 A  
HETATM   40  C   UNL     1      -9.556  14.199  67.121  1.00  0.00    -0.244 C  
HETATM   41  C   UNL     1      -9.925  13.068  68.191  1.00  0.00    -0.231 C  
HETATM   42  C   UNL     1     -10.225  14.496  65.471  1.00  0.00    -0.394 C  
HETATM   43  O   UNL     1      -8.842  12.098  68.194  1.00  0.00    -0.176 OA 
HETATM   44  C   UNL     1     -10.602  16.213  65.088  1.00  0.00    -0.343 C  
HETATM   45  N   UNL     1      -9.773  17.238  65.766  1.00  0.00    -0.544 NA 
BRANCH  45  46
HETATM   46  C   UNL     1     -10.348  18.315  66.553  1.00  0.00    -0.392 C  
BRANCH  46  47
HETATM   47  C   UNL     1      -9.761  19.663  66.296  1.00  0.00    -0.511 C  
HETATM   48  C   UNL     1      -9.607  20.587  67.250  1.00  0.00    -0.580 C  
ENDBRANCH  46  47
ENDBRANCH  45  46
ENDBRANCH  23  24
ENDBRANCH  22  23
ENDBRANCH  21  22
ENDBRANCH  20  21
ENDBRANCH  19  20
ENDBRANCH  18  19
ENDBRANCH  17  18
ENDBRANCH  16  17
ENDBRANCH  15  16
ENDBRANCH  14  15
ENDBRANCH  13  14
ENDBRANCH  12  13
ENDBRANCH  11  12
ENDBRANCH  10  11
ENDBRANCH   9  10
ENDBRANCH   8   9
ENDBRANCH   7   8
ENDBRANCH   6   7
ENDBRANCH   5   6
ENDBRANCH   4   5
ENDBRANCH   3   4
ENDBRANCH   2   3
TORSDOF 24
ENDMDL
MODEL       74
REMARK 921   NORMALIZED FREE ENERGY PREDICTED BY IDOCK:   -4.32 KCAL/MOL
REMARK 922        TOTAL FREE ENERGY PREDICTED BY IDOCK:  -12.68 KCAL/MOL
REMARK 923 INTER-LIGAND FREE ENERGY PREDICTED BY IDOCK:   -9.67 KCAL/MOL
REMARK 924 INTRA-LIGAND FREE ENERGY PREDICTED BY IDOCK:   -3.01 KCAL/MOL
REMARK 927      BINDING AFFINITY PREDICTED BY RF-SCORE:    0.00 PKD
ROOT
HETATM    1  C   UNL     1     -12.750  13.781  65.050  1.00  0.00    -0.336 C  
HETATM    2  O   UNL     1     -11.514  13.802  64.349  1.00  0.00    -0.372 OA 
ENDROOT
BRANCH   2   3
HETATM    3  C   UNL     1     -11.417  12.711  63.436  1.00  0.00    -0.435 C  
BRANCH   3   4
HETATM    4  C   UNL     1     -10.166  11.904  63.749  1.00  0.00    -0.413 C  
BRANCH   4   5
HETATM    5  O   UNL     1     -10.498  10.870  64.674  1.00  0.00    -0.337 OA 
BRANCH   5   6
HETATM    6  C   UNL     1     -10.016  11.179  65.979  1.00  0.00    -0.236 C  
BRANCH   6   7
HETATM    7  C   UNL     1     -10.953  10.587  67.019  1.00  0.00    -0.180 C  
BRANCH   7   8
HETATM    8  O   UNL     1     -11.828  11.617  67.473  1.00  0.00    -0.591 OA 
BRANCH   8   9
HETATM    9  C   UNL     1     -11.251  12.353  68.545  1.00  0.00    -0.279 C  
BRANCH   9  10
HETATM   10  C   UNL     1     -12.022  13.650  68.721  1.00  0.00    -0.359 C  
BRANCH  10  11
HETATM   11  O   UNL     1     -11.721  14.182  70.005  1.00  0.00    -0.276 OA 
BRANCH  11  12
HETATM   12  C   UNL     1     -10.846  15.300  69.908  1.00  0.00    -0.281 C  
BRANCH  12  13
HETATM   13  C   UNL     1     -11.447  16.302  68.938  1.00  0.00    -0.282 C  
BRANCH  13  14
HETATM   14  O   UNL     1     -10.404  16.950  68.223  1.00  0.00    -0.297 OA 
BRANCH  14  15
HETATM   15  C   UNL     1      -9.276  16.091  68.107  1.00  0.00    -0.195 C  
BRANCH  15  16
HETATM   16  C   UNL     1      -8.682  16.194  66.713  1.00  0.00    -0.240 C  
BRANCH  16  17
HETATM   17  O   UNL     1      -7.275  16.025  66.834  1.00  0.00    -0.215 OA 
BRANCH  17  18
HETATM   18  C   UNL     1      -6.914  15.316  68.008  1.00  0.00    -0.133 C  
BRANCH  18  19
HETATM   19  C   UNL     1      -5.609  14.595  67.730  1.00  0.00    -0.044 C  
BRANCH  19  20
HETATM   20  O   UNL     1      -5.874  13.259  67.327  1.00  0.00    -0.349 OA 
BRANCH  20  21
HETATM   21  C   UNL     1      -6.924  12.670  68.093  1.00  0.00    -0.096 C  
BRANCH  21  22
HETATM   22  C   UNL     1      -6.357  11.809  69.227  1.00  0.00    -0.103 C  
BRANCH  22  23
HETATM   23  O   UNL     1      -6.257  10.389  68.948  1.00  0.00    -0.044 OA 
BRANCH  23  24
HETATM   24  C   UNL     1      -7.371   9.840  68.203  1.00  0.00    -0.080 C  
HETATM   25  C   UNL     1      -6.872   9.000  67.061  1.00  0.00    -0.077 C  
HETATM   26  C   UNL     1      -6.675   7.414  67.414  1.00  0.00    -0.069 C  
HETATM   27  C   UNL     1      -7.879   6.593  68.183  1.00  0.00    -0.110 C  
HETATM   28  C   UNL     1      -8.976   5.426  67.716  1.00  0.00    -0.108 C  
HETATM   29  O   UNL     1      -7.295   6.212  69.436  1.00  0.00    -0.085 OA 
HETATM   30  C   UNL     1      -9.897   4.825  68.781  1.00  0.00    -0.218 C  
HETATM   31  H   UNL     1      -7.990   5.738  69.879  1.00  0.00     0.000 HD 
HETATM   32  C   UNL     1     -10.480   6.030  69.479  1.00  0.00    -0.330 A  
HETATM   33  C   UNL     1     -11.337   5.909  70.556  1.00  0.00    -0.215 A  
HETATM   34  C   UNL     1     -11.596   6.987  71.389  1.00  0.00    -0.329 A  
HETATM   35  C   UNL     1     -10.957   8.240  71.165  1.00  0.00    -0.245 A  
HETATM   36  O   UNL     1     -11.025   9.207  72.119  1.00  0.00    -0.300 OA 
HETATM   37  C   UNL     1     -10.190   8.404  70.014  1.00  0.00    -0.202 A  
HETATM   38  H   UNL     1     -10.598  10.043  71.969  1.00  0.00     0.000 HD 
HETATM   39  C   UNL     1      -9.970   7.342  69.127  1.00  0.00    -0.170 A  
HETATM   40  C   UNL     1      -8.887   7.674  68.138  1.00  0.00    -0.125 C  
HETATM   41  C   UNL     1      -8.298   8.891  68.994  1.00  0.00    -0.124 C  
HETATM   42  C   UNL     1      -9.176   7.539  66.361  1.00  0.00    -0.212 C  
HETATM   43  O   UNL     1      -9.410   9.506  69.701  1.00  0.00    -0.173 OA 
HETATM   44  C   UNL     1      -8.644   5.995  65.606  1.00  0.00    -0.153 C  
HETATM   45  N   UNL     1      -8.673   4.792  66.472  1.00  0.00    -0.112 NA 
BRANCH  45  46
HETATM   46  C   UNL     1      -7.509   3.949  66.681  1.00  0.00    -0.080 C  
BRANCH  46  47
HETATM   47  C   UNL     1      -6.528   3.944  65.556  1.00  0.00    -0.033 C  
HETATM   48  C   UNL     1      -6.496   2.991  64.618  1.00  0.00    -0.027 C  
ENDBRANCH  46  47
ENDBRANCH  45  46
ENDBRANCH  23  24
ENDBRANCH  22  23
ENDBRANCH  21  22
ENDBRANCH  20  21
ENDBRANCH  19  20
ENDBRANCH  18  19
ENDBRANCH  17  18
ENDBRANCH  16  17
ENDBRANCH  15  16
ENDBRANCH  14  15
ENDBRANCH  13  14
ENDBRANCH  12  13
ENDBRANCH  11  12
ENDBRANCH  10  11
ENDBRANCH   9  10
ENDBRANCH   8   9
ENDBRANCH   7   8
ENDBRANCH   6   7
ENDBRANCH   5   6
ENDBRANCH   4   5
ENDBRANCH   3   4
ENDBRANCH   2   3
TORSDOF 24
ENDMDL
MODEL       75
REMARK 921   NORMALIZED FREE ENERGY PREDICTED BY IDOCK:   -4.31 KCAL/MOL
REMARK 922        TOTAL FREE ENERGY PREDICTED BY IDOCK:  -12.66 KCAL/MOL
REMARK 923 INTER-LIGAND FREE ENERGY PREDICTED BY IDOCK:  -10.80 KCAL/MOL
REMARK 924 INTRA-LIGAND FREE ENERGY PREDICTED BY IDOCK:   -1.86 KCAL/MOL
REMARK 927      BINDING AFFINITY PREDICTED BY RF-SCORE:    0.00 PKD
ROOT
HETATM    1  C   UNL     1     -12.449  11.999  63.590  1.00  0.00    -0.525 C  
HETATM    2  O   UNL     1     -11.418  12.493  64.433  1.00  0.00    -0.316 OA 
ENDROOT
BRANCH   2   3
HETATM    3  C   UNL     1     -11.762  12.352  65.810  1.00  0.00    -0.414 C  
BRANCH   3   4
HETATM    4  C   UNL     1     -10.811  13.188  66.654  1.00  0.00    -0.280 C  
BRANCH   4   5
HETATM    5  O   UNL     1     -10.181  14.159  65.820  1.00  0.00    -0.305 OA 
BRANCH   5   6
HETATM    6  C   UNL     1     -10.817  15.428  65.945  1.00  0.00    -0.325 C  
BRANCH   6   7
HETATM    7  C   UNL     1     -11.295  15.891  64.578  1.00  0.00    -0.309 C  
BRANCH   7   8
HETATM    8  O   UNL     1     -11.206  17.313  64.529  1.00  0.00    -1.083 OA 
BRANCH   8   9
HETATM    9  C   UNL     1     -10.436  17.822  65.611  1.00  0.00    -0.128 C  
BRANCH   9  10
HETATM   10  C   UNL     1     -10.690  19.315  65.735  1.00  0.00    -0.330 C  
BRANCH  10  11
HETATM   11  O   UNL     1      -9.868  19.827  66.776  1.00  0.00    -0.352 OA 
BRANCH  11  12
HETATM   12  C   UNL     1     -10.494  19.683  68.046  1.00  0.00    -0.407 C  
BRANCH  12  13
HETATM   13  C   UNL     1      -9.713  18.663  68.857  1.00  0.00    -0.322 C  
BRANCH  13  14
HETATM   14  O   UNL     1      -8.335  18.751  68.522  1.00  0.00    -0.329 OA 
BRANCH  14  15
HETATM   15  C   UNL     1      -7.818  17.463  68.207  1.00  0.00    -0.247 C  
BRANCH  15  16
HETATM   16  C   UNL     1      -8.413  16.420  69.138  1.00  0.00    -0.181 C  
BRANCH  16  17
HETATM   17  O   UNL     1      -7.521  15.313  69.165  1.00  0.00    -0.147 OA 
BRANCH  17  18
HETATM   18  C   UNL     1      -7.589  14.535  67.981  1.00  0.00    -0.134 C  
BRANCH  18  19
HETATM   19  C   UNL     1      -6.252  13.838  67.809  1.00  0.00    -0.150 C  
BRANCH  19  20
HETATM   20  O   UNL     1      -5.663  13.609  69.082  1.00  0.00    -0.076 OA 
BRANCH  20  21
HETATM   21  C   UNL     1      -5.145  12.284  69.198  1.00  0.00    -0.059 C  
BRANCH  21  22
HETATM   22  C   UNL     1      -5.611  11.628  70.502  1.00  0.00    -0.153 C  
BRANCH  22  23
HETATM   23  O   UNL     1      -6.856  10.887  70.424  1.00  0.00    -0.257 OA 
BRANCH  23  24
HETATM   24  C   UNL     1      -6.699   9.455  70.275  1.00  0.00    -0.074 C  
HETATM   25  C   UNL     1      -6.643   8.794  71.624  1.00  0.00    -0.075 C  
HETATM   26  C   UNL     1      -8.091   8.303  72.206  1.00  0.00    -0.203 C  
HETATM   27  C   UNL     1      -9.109   7.440  71.240  1.00  0.00    -0.142 C  
HETATM   28  C   UNL     1      -9.602   5.847  71.196  1.00  0.00    -0.169 C  
HETATM   29  O   UNL     1     -10.256   8.289  71.097  1.00  0.00    -0.191 OA 
HETATM   30  C   UNL     1     -10.669   5.444  70.174  1.00  0.00    -0.295 C  
HETATM   31  H   UNL     1     -10.844   7.791  70.540  1.00  0.00     0.000 HD 
HETATM   32  C   UNL     1     -10.155   6.006  68.871  1.00  0.00    -0.220 A  
HETATM   33  C   UNL     1     -10.869   5.897  67.694  1.00  0.00    -0.331 A  
HETATM   34  C   UNL     1     -10.566   6.689  66.596  1.00  0.00    -0.224 A  
HETATM   35  C   UNL     1      -9.524   7.656  66.673  1.00  0.00    -0.198 A  
HETATM   36  O   UNL     1      -9.399   8.586  65.689  1.00  0.00    -0.387 OA 
HETATM   37  C   UNL     1      -8.721   7.688  67.811  1.00  0.00    -0.127 A  
HETATM   38  H   UNL     1      -8.703   9.232  65.740  1.00  0.00     0.000 HD 
HETATM   39  C   UNL     1      -8.974   6.848  68.904  1.00  0.00    -0.131 A  
HETATM   40  C   UNL     1      -8.175   7.267  70.108  1.00  0.00    -0.134 C  
HETATM   41  C   UNL     1      -7.852   8.730  69.547  1.00  0.00    -0.091 C  
HETATM   42  C   UNL     1      -7.107   6.094  70.969  1.00  0.00    -0.070 C  
HETATM   43  O   UNL     1      -7.747   8.630  68.100  1.00  0.00    -0.099 OA 
HETATM   44  C   UNL     1      -7.838   5.294  72.406  1.00  0.00    -0.102 C  
HETATM   45  N   UNL     1      -9.307   5.103  72.379  1.00  0.00    -0.137 NA 
BRANCH  45  46
HETATM   46  C   UNL     1     -10.180   5.589  73.433  1.00  0.00    -0.203 C  
BRANCH  46  47
HETATM   47  C   UNL     1     -11.324   4.690  73.764  1.00  0.00    -0.138 C  
HETATM   48  C   UNL     1     -11.319   3.377  73.512  1.00  0.00    -0.228 C  
ENDBRANCH  46  47
ENDBRANCH  45  46
ENDBRANCH  23  24
ENDBRANCH  22  23
ENDBRANCH  21  22
ENDBRANCH  20  21
ENDBRANCH  19  20
ENDBRANCH  18  19
ENDBRANCH  17  18
ENDBRANCH  16  17
ENDBRANCH  15  16
ENDBRANCH  14  15
ENDBRANCH  13  14
ENDBRANCH  12  13
ENDBRANCH  11  12
ENDBRANCH  10  11
ENDBRANCH   9  10
ENDBRANCH   8   9
ENDBRANCH   7   8
ENDBRANCH   6   7
ENDBRANCH   5   6
ENDBRANCH   4   5
ENDBRANCH   3   4
ENDBRANCH   2   3
TORSDOF 24
ENDMDL
MODEL       76
REMARK 921   NORMALIZED FREE ENERGY PREDICTED BY IDOCK:   -4.31 KCAL/MOL
REMARK 922        TOTAL FREE ENERGY PREDICTED BY IDOCK:  -12.66 KCAL/MOL
REMARK 923 INTER-LIGAND FREE ENERGY PREDICTED BY IDOCK:  -10.90 KCAL/MOL
REMARK 924 INTRA-LIGAND FREE ENERGY PREDICTED BY IDOCK:   -1.76 KCAL/MOL
REMARK 927      BINDING AFFINITY PREDICTED BY RF-SCORE:    0.00 PKD
ROOT
HETATM    1  C   UNL     1     -13.847  15.205  71.450  1.00  0.00    -0.502 C  
HETATM    2  O   UNL     1     -13.015  14.635  70.448  1.00  0.00    -0.323 OA 
ENDROOT
BRANCH   2   3
HETATM    3  C   UNL     1     -11.634  14.802  70.765  1.00  0.00    -0.267 C  
BRANCH   3   4
HETATM    4  C   UNL     1     -11.174  16.177  70.302  1.00  0.00    -0.381 C  
BRANCH   4   5
HETATM    5  O   UNL     1     -11.373  16.283  68.893  1.00  0.00    -0.342 OA 
BRANCH   5   6
HETATM    6  C   UNL     1     -10.186  16.728  68.242  1.00  0.00    -0.295 C  
BRANCH   6   7
HETATM    7  C   UNL     1     -10.518  17.894  67.326  1.00  0.00    -0.366 C  
BRANCH   7   8
HETATM    8  O   UNL     1     -10.277  17.491  65.980  1.00  0.00    -0.440 OA 
BRANCH   8   9
HETATM    9  C   UNL     1      -9.792  16.155  65.918  1.00  0.00    -0.353 C  
BRANCH   9  10
HETATM   10  C   UNL     1     -10.721  15.335  65.039  1.00  0.00    -0.439 C  
BRANCH  10  11
HETATM   11  O   UNL     1     -11.662  14.672  65.874  1.00  0.00    -0.353 OA 
BRANCH  11  12
HETATM   12  C   UNL     1     -12.606  13.936  65.105  1.00  0.00    -0.434 C  
BRANCH  12  13
HETATM   13  C   UNL     1     -12.136  12.495  65.014  1.00  0.00    -0.446 C  
BRANCH  13  14
HETATM   14  O   UNL     1     -11.886  12.165  63.654  1.00  0.00    -0.442 OA 
BRANCH  14  15
HETATM   15  C   UNL     1     -10.527  11.785  63.478  1.00  0.00    -0.449 C  
BRANCH  15  16
HETATM   16  C   UNL     1     -10.166  10.671  64.445  1.00  0.00    -0.330 C  
BRANCH  16  17
HETATM   17  O   UNL     1      -9.374   9.729  63.734  1.00  0.00    -0.258 OA 
BRANCH  17  18
HETATM   18  C   UNL     1      -8.053  10.193  63.507  1.00  0.00    -0.162 C  
BRANCH  18  19
HETATM   19  C   UNL     1      -7.192   8.991  63.167  1.00  0.00    -0.092 C  
BRANCH  19  20
HETATM   20  O   UNL     1      -7.952   7.799  63.315  1.00  0.00    -0.140 OA 
BRANCH  20  21
HETATM   21  C   UNL     1      -7.185   6.749  63.902  1.00  0.00    -0.068 C  
BRANCH  21  22
HETATM   22  C   UNL     1      -8.071   5.541  64.228  1.00  0.00    -0.124 C  
BRANCH  22  23
HETATM   23  O   UNL     1      -9.004   5.723  65.323  1.00  0.00    -0.108 OA 
BRANCH  23  24
HETATM   24  C   UNL     1      -8.519   6.567  66.395  1.00  0.00    -0.124 C  
HETATM   25  C   UNL     1      -9.493   7.680  66.664  1.00  0.00    -0.255 C  
HETATM   26  C   UNL     1     -10.620   7.343  67.801  1.00  0.00    -0.278 C  
HETATM   27  C   UNL     1     -10.158   6.692  69.242  1.00  0.00    -0.169 C  
HETATM   28  C   UNL     1     -10.059   7.269  70.804  1.00  0.00    -0.190 C  
HETATM   29  O   UNL     1     -10.786   5.402  69.259  1.00  0.00    -0.248 OA 
HETATM   30  C   UNL     1      -9.663   6.294  71.916  1.00  0.00    -0.166 C  
HETATM   31  H   UNL     1     -10.518   5.027  70.090  1.00  0.00     0.000 HD 
HETATM   32  C   UNL     1      -8.419   5.624  71.387  1.00  0.00    -0.128 A  
HETATM   33  C   UNL     1      -7.772   4.624  72.086  1.00  0.00    -0.091 A  
HETATM   34  C   UNL     1      -6.852   3.794  71.462  1.00  0.00    -0.031 A  
HETATM   35  C   UNL     1      -6.577   3.941  70.073  1.00  0.00    -0.033 A  
HETATM   36  O   UNL     1      -5.869   2.978  69.424  1.00  0.00    -0.021 OA 
HETATM   37  C   UNL     1      -7.131   5.022  69.390  1.00  0.00    -0.056 A  
HETATM   38  H   UNL     1      -5.686   3.076  68.497  1.00  0.00     0.000 HD 
HETATM   39  C   UNL     1      -8.013   5.908  70.023  1.00  0.00    -0.105 A  
HETATM   40  C   UNL     1      -8.700   6.798  69.024  1.00  0.00    -0.130 C  
HETATM   41  C   UNL     1      -8.351   5.874  67.766  1.00  0.00    -0.108 C  
HETATM   42  C   UNL     1      -8.651   8.595  69.192  1.00  0.00    -0.129 C  
HETATM   43  O   UNL     1      -7.064   5.249  68.025  1.00  0.00    -0.064 OA 
HETATM   44  C   UNL     1     -10.071   9.333  70.014  1.00  0.00    -0.212 C  
HETATM   45  N   UNL     1     -10.756   8.496  71.027  1.00  0.00    -0.219 NA 
BRANCH  45  46
HETATM   46  C   UNL     1     -12.179   8.208  70.973  1.00  0.00    -0.177 C  
BRANCH  46  47
HETATM   47  C   UNL     1     -12.896   8.344  72.275  1.00  0.00    -0.359 C  
HETATM   48  C   UNL     1     -13.943   9.157  72.452  1.00  0.00    -0.488 C  
ENDBRANCH  46  47
ENDBRANCH  45  46
ENDBRANCH  23  24
ENDBRANCH  22  23
ENDBRANCH  21  22
ENDBRANCH  20  21
ENDBRANCH  19  20
ENDBRANCH  18  19
ENDBRANCH  17  18
ENDBRANCH  16  17
ENDBRANCH  15  16
ENDBRANCH  14  15
ENDBRANCH  13  14
ENDBRANCH  12  13
ENDBRANCH  11  12
ENDBRANCH  10  11
ENDBRANCH   9  10
ENDBRANCH   8   9
ENDBRANCH   7   8
ENDBRANCH   6   7
ENDBRANCH   5   6
ENDBRANCH   4   5
ENDBRANCH   3   4
ENDBRANCH   2   3
TORSDOF 24
ENDMDL
MODEL       77
REMARK 921   NORMALIZED FREE ENERGY PREDICTED BY IDOCK:   -4.25 KCAL/MOL
REMARK 922        TOTAL FREE ENERGY PREDICTED BY IDOCK:  -12.50 KCAL/MOL
REMARK 923 INTER-LIGAND FREE ENERGY PREDICTED BY IDOCK:  -10.42 KCAL/MOL
REMARK 924 INTRA-LIGAND FREE ENERGY PREDICTED BY IDOCK:   -2.08 KCAL/MOL
REMARK 927      BINDING AFFINITY PREDICTED BY RF-SCORE:    0.00 PKD
ROOT
HETATM    1  C   UNL     1     -12.917  14.061  72.661  1.00  0.00    -0.387 C  
HETATM    2  O   UNL     1     -13.104  14.414  71.297  1.00  0.00    -0.324 OA 
ENDROOT
BRANCH   2   3
HETATM    3  C   UNL     1     -11.915  14.970  70.738  1.00  0.00    -0.318 C  
BRANCH   3   4
HETATM    4  C   UNL     1     -11.999  14.913  69.220  1.00  0.00    -0.291 C  
BRANCH   4   5
HETATM    5  O   UNL     1     -10.957  15.715  68.666  1.00  0.00    -0.262 OA 
BRANCH   5   6
HETATM    6  C   UNL     1     -10.485  16.665  69.617  1.00  0.00    -0.237 C  
BRANCH   6   7
HETATM    7  C   UNL     1     -10.050  17.930  68.897  1.00  0.00    -0.348 C  
BRANCH   7   8
HETATM    8  O   UNL     1     -10.908  18.127  67.776  1.00  0.00    -0.385 OA 
BRANCH   8   9
HETATM    9  C   UNL     1     -10.220  18.754  66.700  1.00  0.00    -0.408 C  
BRANCH   9  10
HETATM   10  C   UNL     1      -9.744  20.123  67.153  1.00  0.00    -0.439 C  
BRANCH  10  11
HETATM   11  O   UNL     1      -8.545  20.437  66.455  1.00  0.00    -0.221 OA 
BRANCH  11  12
HETATM   12  C   UNL     1      -7.482  20.723  67.357  1.00  0.00    -0.324 C  
BRANCH  12  13
HETATM   13  C   UNL     1      -6.277  19.887  66.963  1.00  0.00    -0.182 C  
BRANCH  13  14
HETATM   14  O   UNL     1      -6.524  19.264  65.710  1.00  0.00    -0.206 OA 
BRANCH  14  15
HETATM   15  C   UNL     1      -6.624  17.854  65.868  1.00  0.00    -0.269 C  
BRANCH  15  16
HETATM   16  C   UNL     1      -5.609  17.369  66.889  1.00  0.00    -0.166 C  
BRANCH  16  17
HETATM   17  O   UNL     1      -5.803  15.970  67.053  1.00  0.00    -0.341 OA 
BRANCH  17  18
HETATM   18  C   UNL     1      -7.105  15.656  67.520  1.00  0.00    -0.186 C  
BRANCH  18  19
HETATM   19  C   UNL     1      -7.411  14.229  67.107  1.00  0.00     0.093 C  
BRANCH  19  20
HETATM   20  O   UNL     1      -7.132  13.346  68.185  1.00  0.00    -0.089 OA 
BRANCH  20  21
HETATM   21  C   UNL     1      -8.266  12.552  68.530  1.00  0.00    -0.079 C  
BRANCH  21  22
HETATM   22  C   UNL     1      -8.106  11.117  68.016  1.00  0.00    -0.123 C  
BRANCH  22  23
HETATM   23  O   UNL     1      -8.775  10.819  66.763  1.00  0.00    -0.138 OA 
BRANCH  23  24
HETATM   24  C   UNL     1      -9.765   9.765  66.843  1.00  0.00    -0.192 C  
HETATM   25  C   UNL     1      -9.251   8.516  66.184  1.00  0.00    -0.269 C  
HETATM   26  C   UNL     1      -8.467   7.487  67.186  1.00  0.00    -0.121 C  
HETATM   27  C   UNL     1      -9.146   7.077  68.630  1.00  0.00    -0.132 C  
HETATM   28  C   UNL     1      -9.856   5.693  69.232  1.00  0.00    -0.174 C  
HETATM   29  O   UNL     1      -8.229   7.595  69.604  1.00  0.00    -0.124 OA 
HETATM   30  C   UNL     1     -10.289   5.678  70.701  1.00  0.00    -0.320 C  
HETATM   31  H   UNL     1      -8.621   7.358  70.438  1.00  0.00     0.000 HD 
HETATM   32  C   UNL     1     -11.091   6.946  70.857  1.00  0.00    -0.313 A  
HETATM   33  C   UNL     1     -11.624   7.331  72.072  1.00  0.00    -0.311 A  
HETATM   34  C   UNL     1     -12.059   8.632  72.284  1.00  0.00    -0.443 A  
HETATM   35  C   UNL     1     -11.936   9.607  71.254  1.00  0.00    -0.380 A  
HETATM   36  O   UNL     1     -12.133  10.920  71.549  1.00  0.00    -0.225 OA 
HETATM   37  C   UNL     1     -11.515   9.200  69.990  1.00  0.00    -0.013 A  
HETATM   38  H   UNL     1     -12.051  11.572  70.862  1.00  0.00     0.000 HD 
HETATM   39  C   UNL     1     -11.133   7.874  69.742  1.00  0.00    -0.079 A  
HETATM   40  C   UNL     1     -10.445   7.746  68.411  1.00  0.00    -0.207 C  
HETATM   41  C   UNL     1     -10.142   9.311  68.271  1.00  0.00    -0.185 C  
HETATM   42  C   UNL     1     -11.021   6.562  67.177  1.00  0.00    -0.480 C  
HETATM   43  O   UNL     1     -11.230  10.027  68.916  1.00  0.00    -0.209 OA 
HETATM   44  C   UNL     1     -10.163   4.980  67.163  1.00  0.00    -0.186 C  
HETATM   45  N   UNL     1      -9.612   4.517  68.459  1.00  0.00    -0.152 NA 
BRANCH  45  46
HETATM   46  C   UNL     1      -8.216   4.158  68.633  1.00  0.00    -0.082 C  
BRANCH  46  47
HETATM   47  C   UNL     1      -7.985   2.848  69.310  1.00  0.00    -0.055 C  
HETATM   48  C   UNL     1      -8.840   2.320  70.192  1.00  0.00    -0.137 C  
ENDBRANCH  46  47
ENDBRANCH  45  46
ENDBRANCH  23  24
ENDBRANCH  22  23
ENDBRANCH  21  22
ENDBRANCH  20  21
ENDBRANCH  19  20
ENDBRANCH  18  19
ENDBRANCH  17  18
ENDBRANCH  16  17
ENDBRANCH  15  16
ENDBRANCH  14  15
ENDBRANCH  13  14
ENDBRANCH  12  13
ENDBRANCH  11  12
ENDBRANCH  10  11
ENDBRANCH   9  10
ENDBRANCH   8   9
ENDBRANCH   7   8
ENDBRANCH   6   7
ENDBRANCH   5   6
ENDBRANCH   4   5
ENDBRANCH   3   4
ENDBRANCH   2   3
TORSDOF 24
ENDMDL
MODEL       78
REMARK 921   NORMALIZED FREE ENERGY PREDICTED BY IDOCK:   -4.25 KCAL/MOL
REMARK 922        TOTAL FREE ENERGY PREDICTED BY IDOCK:  -12.50 KCAL/MOL
REMARK 923 INTER-LIGAND FREE ENERGY PREDICTED BY IDOCK:   -9.47 KCAL/MOL
REMARK 924 INTRA-LIGAND FREE ENERGY PREDICTED BY IDOCK:   -3.02 KCAL/MOL
REMARK 927      BINDING AFFINITY PREDICTED BY RF-SCORE:    0.00 PKD
ROOT
HETATM    1  C   UNL     1      -5.747   9.056  71.861  1.00  0.00    -0.064 C  
HETATM    2  O   UNL     1      -6.931   8.940  72.638  1.00  0.00    -0.319 OA 
ENDROOT
BRANCH   2   3
HETATM    3  C   UNL     1      -6.648   8.439  73.943  1.00  0.00    -0.119 C  
BRANCH   3   4
HETATM    4  C   UNL     1      -7.924   7.879  74.554  1.00  0.00    -0.233 C  
BRANCH   4   5
HETATM    5  O   UNL     1      -8.653   7.179  73.548  1.00  0.00    -0.126 OA 
BRANCH   5   6
HETATM    6  C   UNL     1      -8.514   5.769  73.705  1.00  0.00    -0.116 C  
BRANCH   6   7
HETATM    7  C   UNL     1      -7.549   5.235  72.660  1.00  0.00    -0.097 C  
BRANCH   7   8
HETATM    8  O   UNL     1      -7.552   3.811  72.731  1.00  0.00    -0.065 OA 
BRANCH   8   9
HETATM    9  C   UNL     1      -8.660   3.259  72.030  1.00  0.00    -0.078 C  
BRANCH   9  10
HETATM   10  C   UNL     1      -8.291   3.115  70.564  1.00  0.00    -0.055 C  
BRANCH  10  11
HETATM   11  O   UNL     1      -9.484   2.913  69.817  1.00  0.00    -0.149 OA 
BRANCH  11  12
HETATM   12  C   UNL     1      -9.248   2.093  68.678  1.00  0.00    -0.169 C  
BRANCH  12  13
HETATM   13  C   UNL     1      -8.014   2.609  67.959  1.00  0.00    -0.058 C  
BRANCH  13  14
HETATM   14  O   UNL     1      -7.827   1.874  66.757  1.00  0.00    -0.065 OA 
BRANCH  14  15
HETATM   15  C   UNL     1      -9.074   1.662  66.107  1.00  0.00    -0.040 C  
BRANCH  15  16
HETATM   16  C   UNL     1      -8.896   1.724  64.600  1.00  0.00    -0.106 C  
BRANCH  16  17
HETATM   17  O   UNL     1      -8.159   2.904  64.305  1.00  0.00    -0.081 OA 
BRANCH  17  18
HETATM   18  C   UNL     1      -8.966   4.069  64.345  1.00  0.00    -0.137 C  
BRANCH  18  19
HETATM   19  C   UNL     1      -8.196   5.138  65.099  1.00  0.00    -0.132 C  
BRANCH  19  20
HETATM   20  O   UNL     1      -9.105   6.019  65.744  1.00  0.00    -0.148 OA 
BRANCH  20  21
HETATM   21  C   UNL     1      -9.953   5.331  66.662  1.00  0.00    -0.202 C  
BRANCH  21  22
HETATM   22  C   UNL     1      -9.742   5.842  68.091  1.00  0.00    -0.127 C  
BRANCH  22  23
HETATM   23  O   UNL     1      -8.369   6.136  68.457  1.00  0.00    -0.113 OA 
BRANCH  23  24
HETATM   24  C   UNL     1      -8.164   7.451  69.028  1.00  0.00    -0.128 C  
HETATM   25  C   UNL     1      -7.601   8.386  67.994  1.00  0.00    -0.098 C  
HETATM   26  C   UNL     1      -8.722   9.223  67.146  1.00  0.00    -0.134 C  
HETATM   27  C   UNL     1      -9.941   9.995  67.943  1.00  0.00    -0.154 C  
HETATM   28  C   UNL     1     -10.297  11.593  68.259  1.00  0.00    -0.200 C  
HETATM   29  O   UNL     1     -11.128   9.332  67.488  1.00  0.00    -0.455 OA 
HETATM   30  C   UNL     1     -11.615  11.918  68.969  1.00  0.00    -0.376 C  
HETATM   31  H   UNL     1     -11.831   9.777  67.948  1.00  0.00     0.000 HD 
HETATM   32  C   UNL     1     -11.621  10.997  70.164  1.00  0.00    -0.421 A  
HETATM   33  C   UNL     1     -12.684  10.947  71.045  1.00  0.00    -0.505 A  
HETATM   34  C   UNL     1     -12.835   9.886  71.926  1.00  0.00    -0.524 A  
HETATM   35  C   UNL     1     -11.905   8.808  71.919  1.00  0.00    -0.367 A  
HETATM   36  O   UNL     1     -12.195   7.669  72.604  1.00  0.00    -0.549 OA 
HETATM   37  C   UNL     1     -10.767   8.909  71.123  1.00  0.00    -0.263 A  
HETATM   38  H   UNL     1     -11.574   6.949  72.600  1.00  0.00     0.000 HD 
HETATM   39  C   UNL     1     -10.567  10.006  70.274  1.00  0.00    -0.354 A  
HETATM   40  C   UNL     1      -9.439   9.751  69.311  1.00  0.00    -0.201 C  
HETATM   41  C   UNL     1      -9.439   8.166  69.529  1.00  0.00    -0.156 C  
HETATM   42  C   UNL     1      -8.056  10.903  69.175  1.00  0.00    -0.104 C  
HETATM   43  O   UNL     1      -9.827   7.913  70.907  1.00  0.00    -0.178 OA 
HETATM   44  C   UNL     1      -8.189  12.118  67.854  1.00  0.00    -0.155 C  
HETATM   45  N   UNL     1      -9.560  12.531  67.474  1.00  0.00    -0.183 NA 
BRANCH  45  46
HETATM   46  C   UNL     1     -10.055  12.447  66.111  1.00  0.00    -0.248 C  
BRANCH  46  47
HETATM   47  C   UNL     1     -11.447  12.950  65.916  1.00  0.00    -0.387 C  
HETATM   48  C   UNL     1     -12.258  12.499  64.954  1.00  0.00    -0.534 C  
ENDBRANCH  46  47
ENDBRANCH  45  46
ENDBRANCH  23  24
ENDBRANCH  22  23
ENDBRANCH  21  22
ENDBRANCH  20  21
ENDBRANCH  19  20
ENDBRANCH  18  19
ENDBRANCH  17  18
ENDBRANCH  16  17
ENDBRANCH  15  16
ENDBRANCH  14  15
ENDBRANCH  13  14
ENDBRANCH  12  13
ENDBRANCH  11  12
ENDBRANCH  10  11
ENDBRANCH   9  10
ENDBRANCH   8   9
ENDBRANCH   7   8
ENDBRANCH   6   7
ENDBRANCH   5   6
ENDBRANCH   4   5
ENDBRANCH   3   4
ENDBRANCH   2   3
TORSDOF 24
ENDMDL
MODEL       79
REMARK 921   NORMALIZED FREE ENERGY PREDICTED BY IDOCK:   -4.24 KCAL/MOL
REMARK 922        TOTAL FREE ENERGY PREDICTED BY IDOCK:  -12.47 KCAL/MOL
REMARK 923 INTER-LIGAND FREE ENERGY PREDICTED BY IDOCK:   -9.81 KCAL/MOL
REMARK 924 INTRA-LIGAND FREE ENERGY PREDICTED BY IDOCK:   -2.66 KCAL/MOL
REMARK 927      BINDING AFFINITY PREDICTED BY RF-SCORE:    0.00 PKD
ROOT
HETATM    1  C   UNL     1     -14.076   8.955  72.892  1.00  0.00     0.051 C  
HETATM    2  O   UNL     1     -13.301   8.793  71.712  1.00  0.00    -0.340 OA 
ENDROOT
BRANCH   2   3
HETATM    3  C   UNL     1     -12.339   7.751  71.864  1.00  0.00    -0.310 C  
BRANCH   3   4
HETATM    4  C   UNL     1     -10.986   8.362  72.198  1.00  0.00    -0.341 C  
BRANCH   4   5
HETATM    5  O   UNL     1     -10.736   9.452  71.312  1.00  0.00    -0.316 OA 
BRANCH   5   6
HETATM    6  C   UNL     1      -9.450   9.336  70.709  1.00  0.00    -0.271 C  
BRANCH   6   7
HETATM    7  C   UNL     1      -9.588   8.686  69.343  1.00  0.00    -0.166 C  
BRANCH   7   8
HETATM    8  O   UNL     1      -8.342   8.808  68.660  1.00  0.00    -0.125 OA 
BRANCH   8   9
HETATM    9  C   UNL     1      -7.435   7.784  69.049  1.00  0.00    -0.095 C  
BRANCH   9  10
HETATM   10  C   UNL     1      -7.113   6.926  67.838  1.00  0.00    -0.086 C  
BRANCH  10  11
HETATM   11  O   UNL     1      -5.877   7.366  67.290  1.00  0.00    -0.028 OA 
BRANCH  11  12
HETATM   12  C   UNL     1      -5.505   6.584  66.161  1.00  0.00    -0.014 C  
BRANCH  12  13
HETATM   13  C   UNL     1      -6.600   5.565  65.897  1.00  0.00    -0.044 C  
BRANCH  13  14
HETATM   14  O   UNL     1      -6.264   4.800  64.747  1.00  0.00    -0.031 OA 
BRANCH  14  15
HETATM   15  C   UNL     1      -5.843   5.653  63.690  1.00  0.00    -0.018 C  
BRANCH  15  16
HETATM   16  C   UNL     1      -7.044   6.336  63.059  1.00  0.00    -0.052 C  
BRANCH  16  17
HETATM   17  O   UNL     1      -6.697   7.698  62.846  1.00  0.00    -0.069 OA 
BRANCH  17  18
HETATM   18  C   UNL     1      -7.549   8.590  63.545  1.00  0.00    -0.127 C  
BRANCH  18  19
HETATM   19  C   UNL     1      -7.602   9.889  62.762  1.00  0.00    -0.127 C  
BRANCH  19  20
HETATM   20  O   UNL     1      -8.500  10.793  63.392  1.00  0.00    -0.137 OA 
BRANCH  20  21
HETATM   21  C   UNL     1      -9.859  10.506  63.068  1.00  0.00    -0.217 C  
BRANCH  21  22
HETATM   22  C   UNL     1     -10.801  11.004  64.170  1.00  0.00    -0.180 C  
BRANCH  22  23
HETATM   23  O   UNL     1     -10.778  12.434  64.416  1.00  0.00    -0.297 OA 
BRANCH  23  24
HETATM   24  C   UNL     1     -10.015  12.834  65.581  1.00  0.00    -0.238 C  
HETATM   25  C   UNL     1      -9.437  14.206  65.379  1.00  0.00     0.212 C  
HETATM   26  C   UNL     1     -10.383  15.431  65.912  1.00  0.00    -0.359 C  
HETATM   27  C   UNL     1     -11.045  15.357  67.418  1.00  0.00    -0.311 C  
HETATM   28  C   UNL     1     -10.760  16.152  68.856  1.00  0.00    -0.280 C  
HETATM   29  O   UNL     1     -12.458  15.320  67.176  1.00  0.00     0.058 OA 
HETATM   30  C   UNL     1     -11.683  15.861  70.044  1.00  0.00    -0.340 C  
HETATM   31  H   UNL     1     -12.840  15.277  68.045  1.00  0.00     0.000 HD 
HETATM   32  C   UNL     1     -11.709  14.355  70.123  1.00  0.00    -0.361 A  
HETATM   33  C   UNL     1     -12.484  13.683  71.049  1.00  0.00    -0.456 A  
HETATM   34  C   UNL     1     -12.765  12.333  70.903  1.00  0.00    -0.277 A  
HETATM   35  C   UNL     1     -12.279  11.615  69.774  1.00  0.00    -0.219 A  
HETATM   36  O   UNL     1     -12.759  10.369  69.515  1.00  0.00    -0.663 OA 
HETATM   37  C   UNL     1     -11.399  12.251  68.902  1.00  0.00    -0.287 A  
HETATM   38  H   UNL     1     -12.435   9.890  68.761  1.00  0.00     0.000 HD 
HETATM   39  C   UNL     1     -11.054  13.599  69.072  1.00  0.00    -0.295 A  
HETATM   40  C   UNL     1     -10.341  14.135  67.860  1.00  0.00    -0.234 C  
HETATM   41  C   UNL     1     -10.818  12.951  66.895  1.00  0.00    -0.257 C  
HETATM   42  C   UNL     1      -8.728  14.932  68.007  1.00  0.00    -0.165 C  
HETATM   43  O   UNL     1     -10.927  11.746  67.702  1.00  0.00    -0.208 OA 
HETATM   44  C   UNL     1      -8.760  16.728  68.113  1.00  0.00    -0.219 C  
HETATM   45  N   UNL     1      -9.963  17.331  68.734  1.00  0.00    -0.310 NA 
BRANCH  45  46
HETATM   46  C   UNL     1     -10.768  18.338  68.066  1.00  0.00    -0.266 C  
BRANCH  46  47
HETATM   47  C   UNL     1     -10.031  19.173  67.072  1.00  0.00    -0.423 C  
HETATM   48  C   UNL     1     -10.555  19.548  65.901  1.00  0.00    -0.572 C  
ENDBRANCH  46  47
ENDBRANCH  45  46
ENDBRANCH  23  24
ENDBRANCH  22  23
ENDBRANCH  21  22
ENDBRANCH  20  21
ENDBRANCH  19  20
ENDBRANCH  18  19
ENDBRANCH  17  18
ENDBRANCH  16  17
ENDBRANCH  15  16
ENDBRANCH  14  15
ENDBRANCH  13  14
ENDBRANCH  12  13
ENDBRANCH  11  12
ENDBRANCH  10  11
ENDBRANCH   9  10
ENDBRANCH   8   9
ENDBRANCH   7   8
ENDBRANCH   6   7
ENDBRANCH   5   6
ENDBRANCH   4   5
ENDBRANCH   3   4
ENDBRANCH   2   3
TORSDOF 24
ENDMDL
MODEL       80
REMARK 921   NORMALIZED FREE ENERGY PREDICTED BY IDOCK:   -4.22 KCAL/MOL
REMARK 922        TOTAL FREE ENERGY PREDICTED BY IDOCK:  -12.44 KCAL/MOL
REMARK 923 INTER-LIGAND FREE ENERGY PREDICTED BY IDOCK:  -10.32 KCAL/MOL
REMARK 924 INTRA-LIGAND FREE ENERGY PREDICTED BY IDOCK:   -2.13 KCAL/MOL
REMARK 927      BINDING AFFINITY PREDICTED BY RF-SCORE:    0.00 PKD
ROOT
HETATM    1  C   UNL     1     -10.244   6.836  68.418  1.00  0.00    -0.178 C  
HETATM    2  O   UNL     1      -9.620   6.207  67.308  1.00  0.00    -0.112 OA 
ENDROOT
BRANCH   2   3
HETATM    3  C   UNL     1      -9.708   4.787  67.400  1.00  0.00    -0.176 C  
BRANCH   3   4
HETATM    4  C   UNL     1      -8.896   4.309  68.595  1.00  0.00    -0.102 C  
BRANCH   4   5
HETATM    5  O   UNL     1      -9.751   3.581  69.476  1.00  0.00    -0.159 OA 
BRANCH   5   6
HETATM    6  C   UNL     1      -9.349   2.217  69.564  1.00  0.00    -0.093 C  
BRANCH   6   7
HETATM    7  C   UNL     1      -9.374   1.774  71.018  1.00  0.00    -0.113 C  
BRANCH   7   8
HETATM    8  O   UNL     1     -10.268   2.626  71.731  1.00  0.00    -0.111 OA 
BRANCH   8   9
HETATM    9  C   UNL     1     -10.355   2.254  73.102  1.00  0.00    -0.132 C  
BRANCH   9  10
HETATM   10  C   UNL     1     -10.744   3.475  73.918  1.00  0.00    -0.219 C  
BRANCH  10  11
HETATM   11  O   UNL     1      -9.799   4.506  73.664  1.00  0.00    -0.129 OA 
BRANCH  11  12
HETATM   12  C   UNL     1     -10.424   5.784  73.635  1.00  0.00    -0.265 C  
BRANCH  12  13
HETATM   13  C   UNL     1     -11.764   5.651  72.931  1.00  0.00    -0.126 C  
BRANCH  13  14
HETATM   14  O   UNL     1     -11.653   6.153  71.607  1.00  0.00    -0.295 OA 
BRANCH  14  15
HETATM   15  C   UNL     1     -12.641   7.148  71.370  1.00  0.00    -0.394 C  
BRANCH  15  16
HETATM   16  C   UNL     1     -12.093   8.522  71.715  1.00  0.00    -0.333 C  
BRANCH  16  17
HETATM   17  O   UNL     1     -13.170   9.295  72.228  1.00  0.00    -0.417 OA 
BRANCH  17  18
HETATM   18  C   UNL     1     -13.109  10.650  71.814  1.00  0.00    -0.466 C  
BRANCH  18  19
HETATM   19  C   UNL     1     -12.460  10.686  70.443  1.00  0.00    -0.338 C  
BRANCH  19  20
HETATM   20  O   UNL     1     -11.765  11.913  70.272  1.00  0.00    -0.303 OA 
BRANCH  20  21
HETATM   21  C   UNL     1     -12.526  13.026  70.739  1.00  0.00    -0.302 C  
BRANCH  21  22
HETATM   22  C   UNL     1     -11.821  14.347  70.411  1.00  0.00    -0.312 C  
BRANCH  22  23
HETATM   23  O   UNL     1     -12.392  15.109  69.317  1.00  0.00    -0.207 OA 
BRANCH  23  24
HETATM   24  C   UNL     1     -11.531  15.244  68.161  1.00  0.00    -0.346 C  
HETATM   25  C   UNL     1     -10.887  16.603  68.146  1.00  0.00    -0.348 C  
HETATM   26  C   UNL     1      -9.437  16.681  68.900  1.00  0.00    -0.251 C  
HETATM   27  C   UNL     1      -8.284  15.551  68.572  1.00  0.00    -0.148 C  
HETATM   28  C   UNL     1      -6.839  15.569  67.740  1.00  0.00    -0.161 C  
HETATM   29  O   UNL     1      -8.096  14.873  69.822  1.00  0.00    -0.421 OA 
HETATM   30  C   UNL     1      -5.981  14.300  67.745  1.00  0.00    -0.112 C  
HETATM   31  H   UNL     1      -7.431  14.221  69.633  1.00  0.00     0.000 HD 
HETATM   32  C   UNL     1      -6.946  13.207  67.357  1.00  0.00    -0.117 A  
HETATM   33  C   UNL     1      -6.565  11.880  67.296  1.00  0.00    -0.141 A  
HETATM   34  C   UNL     1      -7.509  10.865  67.273  1.00  0.00    -0.104 A  
HETATM   35  C   UNL     1      -8.898  11.172  67.339  1.00  0.00    -0.139 A  
HETATM   36  O   UNL     1      -9.795  10.174  67.563  1.00  0.00    -0.168 OA 
HETATM   37  C   UNL     1      -9.294  12.506  67.277  1.00  0.00    -0.190 A  
HETATM   38  H   UNL     1     -10.722  10.378  67.607  1.00  0.00     0.000 HD 
HETATM   39  C   UNL     1      -8.353  13.543  67.235  1.00  0.00    -0.188 A  
HETATM   40  C   UNL     1      -9.004  14.879  67.470  1.00  0.00    -0.190 C  
HETATM   41  C   UNL     1     -10.340  14.262  68.098  1.00  0.00    -0.233 C  
HETATM   42  C   UNL     1      -8.792  16.235  66.299  1.00  0.00    -0.367 C  
HETATM   43  O   UNL     1     -10.582  12.986  67.445  1.00  0.00    -0.232 OA 
HETATM   44  C   UNL     1      -7.488  17.408  66.701  1.00  0.00    -0.253 C  
HETATM   45  N   UNL     1      -6.332  16.874  67.460  1.00  0.00    -0.143 NA 
BRANCH  45  46
HETATM   46  C   UNL     1      -5.886  17.451  68.716  1.00  0.00    -0.173 C  
BRANCH  46  47
HETATM   47  C   UNL     1      -5.851  18.943  68.744  1.00  0.00    -0.221 C  
HETATM   48  C   UNL     1      -6.725  19.681  69.436  1.00  0.00    -0.389 C  
ENDBRANCH  46  47
ENDBRANCH  45  46
ENDBRANCH  23  24
ENDBRANCH  22  23
ENDBRANCH  21  22
ENDBRANCH  20  21
ENDBRANCH  19  20
ENDBRANCH  18  19
ENDBRANCH  17  18
ENDBRANCH  16  17
ENDBRANCH  15  16
ENDBRANCH  14  15
ENDBRANCH  13  14
ENDBRANCH  12  13
ENDBRANCH  11  12
ENDBRANCH  10  11
ENDBRANCH   9  10
ENDBRANCH   8   9
ENDBRANCH   7   8
ENDBRANCH   6   7
ENDBRANCH   5   6
ENDBRANCH   4   5
ENDBRANCH   3   4
ENDBRANCH   2   3
TORSDOF 24
ENDMDL
MODEL       81
REMARK 921   NORMALIZED FREE ENERGY PREDICTED BY IDOCK:   -4.20 KCAL/MOL
REMARK 922        TOTAL FREE ENERGY PREDICTED BY IDOCK:  -12.39 KCAL/MOL
REMARK 923 INTER-LIGAND FREE ENERGY PREDICTED BY IDOCK:   -9.04 KCAL/MOL
REMARK 924 INTRA-LIGAND FREE ENERGY PREDICTED BY IDOCK:   -3.35 KCAL/MOL
REMARK 927      BINDING AFFINITY PREDICTED BY RF-SCORE:    0.00 PKD
ROOT
HETATM    1  C   UNL     1     -10.697   3.754  62.446  1.00  0.00    -0.185 C  
HETATM    2  O   UNL     1      -9.882   3.783  63.610  1.00  0.00    -0.149 OA 
ENDROOT
BRANCH   2   3
HETATM    3  C   UNL     1      -9.682   2.473  64.136  1.00  0.00    -0.138 C  
BRANCH   3   4
HETATM    4  C   UNL     1      -8.321   2.406  64.814  1.00  0.00    -0.088 C  
BRANCH   4   5
HETATM    5  O   UNL     1      -7.750   3.714  64.838  1.00  0.00    -0.079 OA 
BRANCH   5   6
HETATM    6  C   UNL     1      -6.460   3.695  65.444  1.00  0.00    -0.032 C  
BRANCH   6   7
HETATM    7  C   UNL     1      -5.992   5.121  65.684  1.00  0.00    -0.029 C  
BRANCH   7   8
HETATM    8  O   UNL     1      -6.447   5.533  66.971  1.00  0.00    -0.041 OA 
BRANCH   8   9
HETATM    9  C   UNL     1      -6.716   6.929  67.003  1.00  0.00    -0.056 C  
BRANCH   9  10
HETATM   10  C   UNL     1      -6.971   7.413  65.586  1.00  0.00    -0.060 C  
BRANCH  10  11
HETATM   11  O   UNL     1      -8.341   7.776  65.473  1.00  0.00    -0.137 OA 
BRANCH  11  12
HETATM   12  C   UNL     1      -8.614   8.987  66.168  1.00  0.00    -0.135 C  
BRANCH  12  13
HETATM   13  C   UNL     1      -9.965   9.512  65.713  1.00  0.00    -0.245 C  
BRANCH  13  14
HETATM   14  O   UNL     1      -9.783  10.733  65.009  1.00  0.00    -0.226 OA 
BRANCH  14  15
HETATM   15  C   UNL     1     -10.113  11.838  65.842  1.00  0.00    -0.234 C  
BRANCH  15  16
HETATM   16  C   UNL     1     -11.475  12.392  65.462  1.00  0.00    -0.361 C  
BRANCH  16  17
HETATM   17  O   UNL     1     -12.280  12.389  66.633  1.00  0.00    -0.562 OA 
BRANCH  17  18
HETATM   18  C   UNL     1     -11.538  12.073  67.800  1.00  0.00    -0.330 C  
BRANCH  18  19
HETATM   19  C   UNL     1     -11.826  13.146  68.834  1.00  0.00    -0.320 C  
BRANCH  19  20
HETATM   20  O   UNL     1     -11.917  12.557  70.124  1.00  0.00    -0.347 OA 
BRANCH  20  21
HETATM   21  C   UNL     1     -11.816  11.135  70.069  1.00  0.00    -0.361 C  
BRANCH  21  22
HETATM   22  C   UNL     1     -12.712  10.481  71.126  1.00  0.00    -0.418 C  
BRANCH  22  23
HETATM   23  O   UNL     1     -12.189   9.271  71.732  1.00  0.00    -0.341 OA 
BRANCH  23  24
HETATM   24  C   UNL     1     -10.831   8.944  71.351  1.00  0.00    -0.307 C  
HETATM   25  C   UNL     1     -10.001   8.658  72.571  1.00  0.00    -0.257 C  
HETATM   26  C   UNL     1      -9.968   7.086  73.024  1.00  0.00    -0.227 C  
HETATM   27  C   UNL     1      -9.667   5.919  71.900  1.00  0.00    -0.151 C  
HETATM   28  C   UNL     1      -8.372   4.919  71.578  1.00  0.00    -0.113 C  
HETATM   29  O   UNL     1     -10.874   5.146  71.870  1.00  0.00    -0.193 OA 
HETATM   30  C   UNL     1      -8.521   3.868  70.474  1.00  0.00    -0.099 C  
HETATM   31  H   UNL     1     -10.700   4.473  71.221  1.00  0.00     0.000 HD 
HETATM   32  C   UNL     1      -9.053   4.650  69.298  1.00  0.00    -0.159 A  
HETATM   33  C   UNL     1      -9.375   4.042  68.099  1.00  0.00    -0.218 A  
HETATM   34  C   UNL     1     -10.163   4.687  67.158  1.00  0.00    -0.147 A  
HETATM   35  C   UNL     1     -10.683   5.986  67.424  1.00  0.00    -0.310 A  
HETATM   36  O   UNL     1     -11.644   6.502  66.612  1.00  0.00    -0.678 OA 
HETATM   37  C   UNL     1     -10.264   6.654  68.572  1.00  0.00    -0.171 A  
HETATM   38  H   UNL     1     -11.991   7.369  66.789  1.00  0.00     0.000 HD 
HETATM   39  C   UNL     1      -9.415   6.040  69.503  1.00  0.00    -0.161 A  
HETATM   40  C   UNL     1      -9.346   6.830  70.781  1.00  0.00    -0.161 C  
HETATM   41  C   UNL     1     -10.670   7.677  70.481  1.00  0.00    -0.236 C  
HETATM   42  C   UNL     1      -7.761   7.359  71.463  1.00  0.00    -0.086 C  
HETATM   43  O   UNL     1     -10.754   7.862  69.041  1.00  0.00    -0.193 OA 
HETATM   44  C   UNL     1      -7.065   6.282  72.726  1.00  0.00    -0.076 C  
HETATM   45  N   UNL     1      -7.406   4.843  72.627  1.00  0.00    -0.087 NA 
BRANCH  45  46
HETATM   46  C   UNL     1      -8.005   4.103  73.723  1.00  0.00    -0.089 C  
BRANCH  46  47
HETATM   47  C   UNL     1      -7.400   2.763  73.981  1.00  0.00    -0.042 C  
HETATM   48  C   UNL     1      -6.097   2.507  73.825  1.00  0.00    -0.008 C  
ENDBRANCH  46  47
ENDBRANCH  45  46
ENDBRANCH  23  24
ENDBRANCH  22  23
ENDBRANCH  21  22
ENDBRANCH  20  21
ENDBRANCH  19  20
ENDBRANCH  18  19
ENDBRANCH  17  18
ENDBRANCH  16  17
ENDBRANCH  15  16
ENDBRANCH  14  15
ENDBRANCH  13  14
ENDBRANCH  12  13
ENDBRANCH  11  12
ENDBRANCH  10  11
ENDBRANCH   9  10
ENDBRANCH   8   9
ENDBRANCH   7   8
ENDBRANCH   6   7
ENDBRANCH   5   6
ENDBRANCH   4   5
ENDBRANCH   3   4
ENDBRANCH   2   3
TORSDOF 24
ENDMDL
MODEL       82
REMARK 921   NORMALIZED FREE ENERGY PREDICTED BY IDOCK:   -4.18 KCAL/MOL
REMARK 922        TOTAL FREE ENERGY PREDICTED BY IDOCK:  -12.33 KCAL/MOL
REMARK 923 INTER-LIGAND FREE ENERGY PREDICTED BY IDOCK:   -9.08 KCAL/MOL
REMARK 924 INTRA-LIGAND FREE ENERGY PREDICTED BY IDOCK:   -3.25 KCAL/MOL
REMARK 927      BINDING AFFINITY PREDICTED BY RF-SCORE:    0.00 PKD
ROOT
HETATM    1  C   UNL     1      -8.458  15.962  68.661  1.00  0.00    -0.200 C  
HETATM    2  O   UNL     1      -7.208  15.956  69.337  1.00  0.00    -0.205 OA 
ENDROOT
BRANCH   2   3
HETATM    3  C   UNL     1      -6.918  14.669  69.878  1.00  0.00    -0.099 C  
BRANCH   3   4
HETATM    4  C   UNL     1      -5.427  14.393  69.746  1.00  0.00    -0.095 C  
BRANCH   4   5
HETATM    5  O   UNL     1      -5.233  13.001  69.496  1.00  0.00    -0.075 OA 
BRANCH   5   6
HETATM    6  C   UNL     1      -5.491  12.231  70.667  1.00  0.00    -0.164 C  
BRANCH   6   7
HETATM    7  C   UNL     1      -5.398  10.752  70.332  1.00  0.00    -0.074 C  
BRANCH   7   8
HETATM    8  O   UNL     1      -6.266  10.037  71.208  1.00  0.00    -0.280 OA 
BRANCH   8   9
HETATM    9  C   UNL     1      -5.530   9.262  72.147  1.00  0.00    -0.075 C  
BRANCH   9  10
HETATM   10  C   UNL     1      -5.593   7.802  71.734  1.00  0.00    -0.035 C  
BRANCH  10  11
HETATM   11  O   UNL     1      -6.466   7.118  72.625  1.00  0.00    -0.052 OA 
BRANCH  11  12
HETATM   12  C   UNL     1      -6.674   5.772  72.213  1.00  0.00    -0.071 C  
BRANCH  12  13
HETATM   13  C   UNL     1      -8.164   5.554  72.011  1.00  0.00    -0.115 C  
BRANCH  13  14
HETATM   14  O   UNL     1      -8.397   4.198  71.655  1.00  0.00    -0.088 OA 
BRANCH  14  15
HETATM   15  C   UNL     1      -9.732   4.030  71.195  1.00  0.00    -0.187 C  
BRANCH  15  16
HETATM   16  C   UNL     1      -9.874   4.584  69.788  1.00  0.00    -0.225 C  
BRANCH  16  17
HETATM   17  O   UNL     1      -9.168   3.715  68.912  1.00  0.00    -0.133 OA 
BRANCH  17  18
HETATM   18  C   UNL     1      -9.517   3.916  67.552  1.00  0.00    -0.190 C  
BRANCH  18  19
HETATM   19  C   UNL     1      -8.243   3.839  66.732  1.00  0.00    -0.096 C  
BRANCH  19  20
HETATM   20  O   UNL     1      -7.128   4.186  67.543  1.00  0.00    -0.061 OA 
BRANCH  20  21
HETATM   21  C   UNL     1      -6.214   5.038  66.855  1.00  0.00    -0.032 C  
BRANCH  21  22
HETATM   22  C   UNL     1      -6.483   6.510  67.187  1.00  0.00    -0.042 C  
BRANCH  22  23
HETATM   23  O   UNL     1      -7.390   6.749  68.294  1.00  0.00    -0.088 OA 
BRANCH  23  24
HETATM   24  C   UNL     1      -7.528   8.140  68.673  1.00  0.00    -0.098 C  
HETATM   25  C   UNL     1      -7.406   9.024  67.463  1.00  0.00    -0.081 C  
HETATM   26  C   UNL     1      -8.823   9.365  66.720  1.00  0.00    -0.142 C  
HETATM   27  C   UNL     1     -10.112   9.872  67.612  1.00  0.00    -0.197 C  
HETATM   28  C   UNL     1     -10.897  11.331  67.800  1.00  0.00    -0.235 C  
HETATM   29  O   UNL     1     -11.088   8.835  67.432  1.00  0.00    -0.418 OA 
HETATM   30  C   UNL     1     -12.155  11.373  68.673  1.00  0.00    -0.214 C  
HETATM   31  H   UNL     1     -11.831   9.128  67.947  1.00  0.00     0.000 HD 
HETATM   32  C   UNL     1     -11.736  10.685  69.949  1.00  0.00    -0.395 A  
HETATM   33  C   UNL     1     -12.618  10.472  70.990  1.00  0.00    -0.499 A  
HETATM   34  C   UNL     1     -12.331   9.562  71.997  1.00  0.00    -0.404 A  
HETATM   35  C   UNL     1     -11.125   8.806  71.961  1.00  0.00    -0.371 A  
HETATM   36  O   UNL     1     -10.969   7.753  72.807  1.00  0.00    -0.328 OA 
HETATM   37  C   UNL     1     -10.177   9.102  70.984  1.00  0.00    -0.302 A  
HETATM   38  H   UNL     1     -10.164   7.248  72.783  1.00  0.00     0.000 HD 
HETATM   39  C   UNL     1     -10.425  10.065  69.997  1.00  0.00    -0.337 A  
HETATM   40  C   UNL     1      -9.398   9.997  68.899  1.00  0.00    -0.172 C  
HETATM   41  C   UNL     1      -8.889   8.531  69.290  1.00  0.00    -0.142 C  
HETATM   42  C   UNL     1      -8.459  11.459  68.412  1.00  0.00    -0.155 C  
HETATM   43  O   UNL     1      -9.012   8.395  70.732  1.00  0.00    -0.140 OA 
HETATM   44  C   UNL     1      -9.114  12.365  67.003  1.00  0.00    -0.207 C  
HETATM   45  N   UNL     1     -10.582  12.307  66.806  1.00  0.00    -0.221 NA 
BRANCH  45  46
HETATM   46  C   UNL     1     -11.189  11.875  65.559  1.00  0.00    -0.299 C  
BRANCH  46  47
HETATM   47  C   UNL     1     -12.061  12.891  64.900  1.00  0.00    -0.479 C  
HETATM   48  C   UNL     1     -12.652  13.889  65.565  1.00  0.00    -0.560 C  
ENDBRANCH  46  47
ENDBRANCH  45  46
ENDBRANCH  23  24
ENDBRANCH  22  23
ENDBRANCH  21  22
ENDBRANCH  20  21
ENDBRANCH  19  20
ENDBRANCH  18  19
ENDBRANCH  17  18
ENDBRANCH  16  17
ENDBRANCH  15  16
ENDBRANCH  14  15
ENDBRANCH  13  14
ENDBRANCH  12  13
ENDBRANCH  11  12
ENDBRANCH  10  11
ENDBRANCH   9  10
ENDBRANCH   8   9
ENDBRANCH   7   8
ENDBRANCH   6   7
ENDBRANCH   5   6
ENDBRANCH   4   5
ENDBRANCH   3   4
ENDBRANCH   2   3
TORSDOF 24
ENDMDL
MODEL       83
REMARK 921   NORMALIZED FREE ENERGY PREDICTED BY IDOCK:   -4.17 KCAL/MOL
REMARK 922        TOTAL FREE ENERGY PREDICTED BY IDOCK:  -12.31 KCAL/MOL
REMARK 923 INTER-LIGAND FREE ENERGY PREDICTED BY IDOCK:  -10.11 KCAL/MOL
REMARK 924 INTRA-LIGAND FREE ENERGY PREDICTED BY IDOCK:   -2.20 KCAL/MOL
REMARK 927      BINDING AFFINITY PREDICTED BY RF-SCORE:    0.00 PKD
ROOT
HETATM    1  C   UNL     1     -12.277  14.921  64.253  1.00  0.00    -0.344 C  
HETATM    2  O   UNL     1     -12.441  13.523  64.057  1.00  0.00    -0.645 OA 
ENDROOT
BRANCH   2   3
HETATM    3  C   UNL     1     -12.469  12.825  65.300  1.00  0.00    -0.465 C  
BRANCH   3   4
HETATM    4  C   UNL     1     -12.406  13.828  66.442  1.00  0.00    -0.412 C  
BRANCH   4   5
HETATM    5  O   UNL     1     -11.679  13.252  67.527  1.00  0.00    -0.326 OA 
BRANCH   5   6
HETATM    6  C   UNL     1     -11.739  14.087  68.681  1.00  0.00    -0.354 C  
BRANCH   6   7
HETATM    7  C   UNL     1     -11.674  15.544  68.255  1.00  0.00    -0.274 C  
BRANCH   7   8
HETATM    8  O   UNL     1     -10.304  15.909  68.105  1.00  0.00    -0.244 OA 
BRANCH   8   9
HETATM    9  C   UNL     1     -10.102  16.702  66.942  1.00  0.00    -0.280 C  
BRANCH   9  10
HETATM   10  C   UNL     1      -8.747  17.381  67.039  1.00  0.00    -0.234 C  
BRANCH  10  11
HETATM   11  O   UNL     1      -8.263  17.233  68.367  1.00  0.00    -0.241 OA 
BRANCH  11  12
HETATM   12  C   UNL     1      -6.868  17.500  68.442  1.00  0.00    -0.197 C  
BRANCH  12  13
HETATM   13  C   UNL     1      -6.290  16.731  69.617  1.00  0.00    -0.217 C  
BRANCH  13  14
HETATM   14  O   UNL     1      -5.198  15.939  69.171  1.00  0.00    -0.104 OA 
BRANCH  14  15
HETATM   15  C   UNL     1      -5.350  14.594  69.608  1.00  0.00    -0.092 C  
BRANCH  15  16
HETATM   16  C   UNL     1      -5.203  13.643  68.433  1.00  0.00    -0.098 C  
BRANCH  16  17
HETATM   17  O   UNL     1      -5.572  12.346  68.884  1.00  0.00    -0.061 OA 
BRANCH  17  18
HETATM   18  C   UNL     1      -5.255  11.334  67.942  1.00  0.00    -0.043 C  
BRANCH  18  19
HETATM   19  C   UNL     1      -6.560  10.732  67.455  1.00  0.00    -0.071 C  
BRANCH  19  20
HETATM   20  O   UNL     1      -7.175  11.609  66.521  1.00  0.00    -0.075 OA 
BRANCH  20  21
HETATM   21  C   UNL     1      -8.467  12.029  66.955  1.00  0.00    -0.183 C  
BRANCH  21  22
HETATM   22  C   UNL     1      -9.490  10.897  66.802  1.00  0.00    -0.177 C  
BRANCH  22  23
HETATM   23  O   UNL     1      -9.958  10.302  68.039  1.00  0.00    -0.148 OA 
BRANCH  23  24
HETATM   24  C   UNL     1     -10.577   9.001  67.887  1.00  0.00    -0.196 C  
HETATM   25  C   UNL     1      -9.909   8.232  66.781  1.00  0.00    -0.333 C  
HETATM   26  C   UNL     1      -8.664   7.285  67.262  1.00  0.00    -0.121 C  
HETATM   27  C   UNL     1      -8.851   6.285  68.558  1.00  0.00    -0.114 C  
HETATM   28  C   UNL     1      -8.997   4.634  68.743  1.00  0.00    -0.108 C  
HETATM   29  O   UNL     1      -7.910   6.783  69.520  1.00  0.00    -0.108 OA 
HETATM   30  C   UNL     1      -9.056   4.064  70.164  1.00  0.00    -0.186 C  
HETATM   31  H   UNL     1      -8.018   6.206  70.267  1.00  0.00     0.000 HD 
HETATM   32  C   UNL     1     -10.115   4.896  70.845  1.00  0.00    -0.292 A  
HETATM   33  C   UNL     1     -10.436   4.724  72.178  1.00  0.00    -0.243 A  
HETATM   34  C   UNL     1     -11.147   5.691  72.873  1.00  0.00    -0.337 A  
HETATM   35  C   UNL     1     -11.537   6.899  72.229  1.00  0.00    -0.270 A  
HETATM   36  O   UNL     1     -12.011   7.933  72.975  1.00  0.00    -0.617 OA 
HETATM   37  C   UNL     1     -11.326   7.027  70.858  1.00  0.00    -0.295 A  
HETATM   38  H   UNL     1     -12.272   8.740  72.545  1.00  0.00     0.000 HD 
HETATM   39  C   UNL     1     -10.666   6.030  70.127  1.00  0.00    -0.379 A  
HETATM   40  C   UNL     1     -10.297   6.517  68.753  1.00  0.00    -0.220 C  
HETATM   41  C   UNL     1     -10.473   8.066  69.113  1.00  0.00    -0.208 C  
HETATM   42  C   UNL     1     -10.798   5.606  67.278  1.00  0.00    -0.217 C  
HETATM   43  O   UNL     1     -11.535   8.168  70.100  1.00  0.00    -0.153 OA 
HETATM   44  C   UNL     1      -9.569   4.470  66.615  1.00  0.00    -0.190 C  
HETATM   45  N   UNL     1      -8.628   3.873  67.592  1.00  0.00    -0.098 NA 
BRANCH  45  46
HETATM   46  C   UNL     1      -7.186   3.965  67.448  1.00  0.00    -0.067 C  
BRANCH  46  47
HETATM   47  C   UNL     1      -6.707   4.165  66.048  1.00  0.00    -0.049 C  
HETATM   48  C   UNL     1      -5.736   5.025  65.724  1.00  0.00    -0.018 C  
ENDBRANCH  46  47
ENDBRANCH  45  46
ENDBRANCH  23  24
ENDBRANCH  22  23
ENDBRANCH  21  22
ENDBRANCH  20  21
ENDBRANCH  19  20
ENDBRANCH  18  19
ENDBRANCH  17  18
ENDBRANCH  16  17
ENDBRANCH  15  16
ENDBRANCH  14  15
ENDBRANCH  13  14
ENDBRANCH  12  13
ENDBRANCH  11  12
ENDBRANCH  10  11
ENDBRANCH   9  10
ENDBRANCH   8   9
ENDBRANCH   7   8
ENDBRANCH   6   7
ENDBRANCH   5   6
ENDBRANCH   4   5
ENDBRANCH   3   4
ENDBRANCH   2   3
TORSDOF 24
ENDMDL
MODEL       84
REMARK 921   NORMALIZED FREE ENERGY PREDICTED BY IDOCK:   -4.16 KCAL/MOL
REMARK 922        TOTAL FREE ENERGY PREDICTED BY IDOCK:  -12.30 KCAL/MOL
REMARK 923 INTER-LIGAND FREE ENERGY PREDICTED BY IDOCK:   -9.84 KCAL/MOL
REMARK 924 INTRA-LIGAND FREE ENERGY PREDICTED BY IDOCK:   -2.45 KCAL/MOL
REMARK 927      BINDING AFFINITY PREDICTED BY RF-SCORE:    0.00 PKD
ROOT
HETATM    1  C   UNL     1      -9.472  19.431  68.439  1.00  0.00    -0.374 C  
HETATM    2  O   UNL     1      -9.329  18.151  67.840  1.00  0.00    -0.263 OA 
ENDROOT
BRANCH   2   3
HETATM    3  C   UNL     1      -9.843  18.140  66.510  1.00  0.00    -0.362 C  
BRANCH   3   4
HETATM    4  C   UNL     1     -10.330  16.739  66.171  1.00  0.00    -0.330 C  
BRANCH   4   5
HETATM    5  O   UNL     1     -10.505  16.002  67.380  1.00  0.00    -0.296 OA 
BRANCH   5   6
HETATM    6  C   UNL     1     -11.446  14.947  67.203  1.00  0.00    -0.335 C  
BRANCH   6   7
HETATM    7  C   UNL     1     -11.075  14.139  65.970  1.00  0.00    -0.314 C  
BRANCH   7   8
HETATM    8  O   UNL     1      -9.914  13.368  66.271  1.00  0.00    -0.283 OA 
BRANCH   8   9
HETATM    9  C   UNL     1     -10.241  12.217  67.041  1.00  0.00    -0.215 C  
BRANCH   9  10
HETATM   10  C   UNL     1      -8.983  11.712  67.726  1.00  0.00    -0.170 C  
BRANCH  10  11
HETATM   11  O   UNL     1      -8.716  10.394  67.263  1.00  0.00    -0.126 OA 
BRANCH  11  12
HETATM   12  C   UNL     1      -8.498  10.375  65.857  1.00  0.00    -0.156 C  
BRANCH  12  13
HETATM   13  C   UNL     1      -8.789   8.976  65.342  1.00  0.00    -0.197 C  
BRANCH  13  14
HETATM   14  O   UNL     1      -8.218   8.821  64.050  1.00  0.00    -0.158 OA 
BRANCH  14  15
HETATM   15  C   UNL     1      -7.220   7.808  64.068  1.00  0.00    -0.080 C  
BRANCH  15  16
HETATM   16  C   UNL     1      -7.170   7.100  62.725  1.00  0.00    -0.068 C  
BRANCH  16  17
HETATM   17  O   UNL     1      -8.327   6.278  62.631  1.00  0.00    -0.091 OA 
BRANCH  17  18
HETATM   18  C   UNL     1      -8.080   4.946  63.052  1.00  0.00    -0.094 C  
BRANCH  18  19
HETATM   19  C   UNL     1      -9.275   4.491  63.868  1.00  0.00    -0.095 C  
BRANCH  19  20
HETATM   20  O   UNL     1      -9.256   5.121  65.141  1.00  0.00    -0.140 OA 
BRANCH  20  21
HETATM   21  C   UNL     1     -10.087   4.445  66.082  1.00  0.00    -0.234 C  
BRANCH  21  22
HETATM   22  C   UNL     1      -9.253   3.851  67.223  1.00  0.00    -0.176 C  
BRANCH  22  23
HETATM   23  O   UNL     1      -7.916   4.394  67.371  1.00  0.00    -0.098 OA 
BRANCH  23  24
HETATM   24  C   UNL     1      -7.706   5.161  68.582  1.00  0.00    -0.079 C  
HETATM   25  C   UNL     1      -7.760   6.633  68.284  1.00  0.00    -0.105 C  
HETATM   26  C   UNL     1      -9.244   7.307  68.434  1.00  0.00    -0.137 C  
HETATM   27  C   UNL     1     -10.142   7.012  69.783  1.00  0.00    -0.189 C  
HETATM   28  C   UNL     1     -10.586   7.921  71.109  1.00  0.00    -0.213 C  
HETATM   29  O   UNL     1     -11.293   6.314  69.288  1.00  0.00    -0.450 OA 
HETATM   30  C   UNL     1     -11.539   7.297  72.133  1.00  0.00    -0.324 C  
HETATM   31  H   UNL     1     -11.812   6.143  70.067  1.00  0.00     0.000 HD 
HETATM   32  C   UNL     1     -10.920   5.955  72.437  1.00  0.00    -0.310 A  
HETATM   33  C   UNL     1     -11.516   5.050  73.293  1.00  0.00    -0.339 A  
HETATM   34  C   UNL     1     -11.132   3.718  73.307  1.00  0.00    -0.262 A  
HETATM   35  C   UNL     1     -10.128   3.249  72.413  1.00  0.00    -0.155 A  
HETATM   36  O   UNL     1      -9.936   1.911  72.263  1.00  0.00    -0.121 OA 
HETATM   37  C   UNL     1      -9.438   4.175  71.635  1.00  0.00    -0.150 A  
HETATM   38  H   UNL     1      -9.266   1.598  71.666  1.00  0.00     0.000 HD 
HETATM   39  C   UNL     1      -9.771   5.536  71.656  1.00  0.00    -0.203 A  
HETATM   40  C   UNL     1      -9.101   6.278  70.532  1.00  0.00    -0.157 C  
HETATM   41  C   UNL     1      -8.766   4.961  69.689  1.00  0.00    -0.086 C  
HETATM   42  C   UNL     1      -8.088   7.737  70.854  1.00  0.00    -0.102 C  
HETATM   43  O   UNL     1      -8.522   3.885  70.636  1.00  0.00    -0.068 OA 
HETATM   44  C   UNL     1      -8.929   9.318  70.675  1.00  0.00    -0.243 C  
HETATM   45  N   UNL     1     -10.384   9.327  70.959  1.00  0.00    -0.295 NA 
BRANCH  45  46
HETATM   46  C   UNL     1     -11.365   9.812  70.004  1.00  0.00    -0.220 C  
BRANCH  46  47
HETATM   47  C   UNL     1     -12.246  10.906  70.510  1.00  0.00    -0.459 C  
HETATM   48  C   UNL     1     -13.143  10.730  71.486  1.00  0.00    -0.517 C  
ENDBRANCH  46  47
ENDBRANCH  45  46
ENDBRANCH  23  24
ENDBRANCH  22  23
ENDBRANCH  21  22
ENDBRANCH  20  21
ENDBRANCH  19  20
ENDBRANCH  18  19
ENDBRANCH  17  18
ENDBRANCH  16  17
ENDBRANCH  15  16
ENDBRANCH  14  15
ENDBRANCH  13  14
ENDBRANCH  12  13
ENDBRANCH  11  12
ENDBRANCH  10  11
ENDBRANCH   9  10
ENDBRANCH   8   9
ENDBRANCH   7   8
ENDBRANCH   6   7
ENDBRANCH   5   6
ENDBRANCH   4   5
ENDBRANCH   3   4
ENDBRANCH   2   3
TORSDOF 24
ENDMDL
MODEL       85
REMARK 921   NORMALIZED FREE ENERGY PREDICTED BY IDOCK:   -4.15 KCAL/MOL
REMARK 922        TOTAL FREE ENERGY PREDICTED BY IDOCK:  -12.25 KCAL/MOL
REMARK 923 INTER-LIGAND FREE ENERGY PREDICTED BY IDOCK:   -9.09 KCAL/MOL
REMARK 924 INTRA-LIGAND FREE ENERGY PREDICTED BY IDOCK:   -3.16 KCAL/MOL
REMARK 927      BINDING AFFINITY PREDICTED BY RF-SCORE:    0.00 PKD
ROOT
HETATM    1  C   UNL     1     -12.533  14.275  64.121  1.00  0.00    -0.218 C  
HETATM    2  O   UNL     1     -12.889  14.037  65.476  1.00  0.00    -0.615 OA 
ENDROOT
BRANCH   2   3
HETATM    3  C   UNL     1     -11.782  14.254  66.349  1.00  0.00    -0.391 C  
BRANCH   3   4
HETATM    4  C   UNL     1     -11.847  13.262  67.501  1.00  0.00    -0.358 C  
BRANCH   4   5
HETATM    5  O   UNL     1     -10.902  12.218  67.269  1.00  0.00    -0.231 OA 
BRANCH   5   6
HETATM    6  C   UNL     1      -9.868  12.652  66.390  1.00  0.00    -0.259 C  
BRANCH   6   7
HETATM    7  C   UNL     1      -9.243  11.446  65.708  1.00  0.00    -0.208 C  
BRANCH   7   8
HETATM    8  O   UNL     1     -10.272  10.728  65.032  1.00  0.00    -0.284 OA 
BRANCH   8   9
HETATM    9  C   UNL     1     -10.517  11.267  63.739  1.00  0.00    -0.399 C  
BRANCH   9  10
HETATM   10  C   UNL     1      -9.359  10.902  62.827  1.00  0.00    -0.342 C  
BRANCH  10  11
HETATM   11  O   UNL     1      -9.343   9.490  62.661  1.00  0.00    -0.210 OA 
BRANCH  11  12
HETATM   12  C   UNL     1      -8.014   8.983  62.676  1.00  0.00    -0.136 C  
BRANCH  12  13
HETATM   13  C   UNL     1      -7.745   8.373  64.040  1.00  0.00    -0.139 C  
BRANCH  13  14
HETATM   14  O   UNL     1      -6.624   9.016  64.631  1.00  0.00    -0.070 OA 
BRANCH  14  15
HETATM   15  C   UNL     1      -6.503   8.644  65.999  1.00  0.00    -0.057 C  
BRANCH  15  16
HETATM   16  C   UNL     1      -7.424   7.476  66.306  1.00  0.00    -0.083 C  
BRANCH  16  17
HETATM   17  O   UNL     1      -7.783   7.564  67.679  1.00  0.00    -0.110 OA 
BRANCH  17  18
HETATM   18  C   UNL     1      -7.289   8.743  68.293  1.00  0.00    -0.087 C  
BRANCH  18  19
HETATM   19  C   UNL     1      -8.431   9.373  69.067  1.00  0.00    -0.129 C  
BRANCH  19  20
HETATM   20  O   UNL     1      -9.639   9.248  68.329  1.00  0.00    -0.144 OA 
BRANCH  20  21
HETATM   21  C   UNL     1     -10.782   9.203  69.182  1.00  0.00    -0.172 C  
BRANCH  21  22
HETATM   22  C   UNL     1     -10.423   9.657  70.602  1.00  0.00    -0.312 C  
BRANCH  22  23
HETATM   23  O   UNL     1     -11.436   9.418  71.612  1.00  0.00    -0.369 OA 
BRANCH  23  24
HETATM   24  C   UNL     1     -11.114   8.366  72.554  1.00  0.00    -0.326 C  
HETATM   25  C   UNL     1     -11.851   7.105  72.198  1.00  0.00    -0.315 C  
HETATM   26  C   UNL     1     -11.037   6.094  71.202  1.00  0.00    -0.360 C  
HETATM   27  C   UNL     1      -9.469   5.710  71.531  1.00  0.00    -0.150 C  
HETATM   28  C   UNL     1      -8.696   4.337  72.079  1.00  0.00    -0.108 C  
HETATM   29  O   UNL     1      -8.739   6.245  70.419  1.00  0.00    -0.142 OA 
HETATM   30  C   UNL     1      -7.167   4.349  72.166  1.00  0.00    -0.062 C  
HETATM   31  H   UNL     1      -7.834   6.024  70.609  1.00  0.00     0.000 HD 
HETATM   32  C   UNL     1      -6.855   5.620  72.916  1.00  0.00    -0.075 A  
HETATM   33  C   UNL     1      -5.557   6.026  73.160  1.00  0.00    -0.036 A  
HETATM   34  C   UNL     1      -5.275   7.330  73.540  1.00  0.00    -0.042 A  
HETATM   35  C   UNL     1      -6.322   8.288  73.660  1.00  0.00    -0.115 A  
HETATM   36  O   UNL     1      -6.013   9.606  73.789  1.00  0.00    -0.310 OA 
HETATM   37  C   UNL     1      -7.641   7.857  73.536  1.00  0.00    -0.147 A  
HETATM   38  H   UNL     1      -6.712  10.245  73.869  1.00  0.00     0.000 HD 
HETATM   39  C   UNL     1      -7.946   6.528  73.216  1.00  0.00    -0.099 A  
HETATM   40  C   UNL     1      -9.397   6.375  72.849  1.00  0.00    -0.140 C  
HETATM   41  C   UNL     1      -9.630   7.937  72.592  1.00  0.00    -0.227 C  
HETATM   42  C   UNL     1     -10.447   5.169  73.687  1.00  0.00    -0.292 C  
HETATM   43  O   UNL     1      -8.767   8.665  73.508  1.00  0.00    -0.305 OA 
HETATM   44  C   UNL     1     -10.628   3.587  72.848  1.00  0.00    -0.129 C  
HETATM   45  N   UNL     1      -9.484   3.148  72.014  1.00  0.00    -0.124 NA 
BRANCH  45  46
HETATM   46  C   UNL     1      -9.627   2.792  70.614  1.00  0.00    -0.104 C  
BRANCH  46  47
HETATM   47  C   UNL     1      -8.823   1.611  70.181  1.00  0.00    -0.115 C  
HETATM   48  C   UNL     1      -7.789   1.700  69.337  1.00  0.00    -0.048 C  
ENDBRANCH  46  47
ENDBRANCH  45  46
ENDBRANCH  23  24
ENDBRANCH  22  23
ENDBRANCH  21  22
ENDBRANCH  20  21
ENDBRANCH  19  20
ENDBRANCH  18  19
ENDBRANCH  17  18
ENDBRANCH  16  17
ENDBRANCH  15  16
ENDBRANCH  14  15
ENDBRANCH  13  14
ENDBRANCH  12  13
ENDBRANCH  11  12
ENDBRANCH  10  11
ENDBRANCH   9  10
ENDBRANCH   8   9
ENDBRANCH   7   8
ENDBRANCH   6   7
ENDBRANCH   5   6
ENDBRANCH   4   5
ENDBRANCH   3   4
ENDBRANCH   2   3
TORSDOF 24
ENDMDL
MODEL       86
REMARK 921   NORMALIZED FREE ENERGY PREDICTED BY IDOCK:   -4.14 KCAL/MOL
REMARK 922        TOTAL FREE ENERGY PREDICTED BY IDOCK:  -12.23 KCAL/MOL
REMARK 923 INTER-LIGAND FREE ENERGY PREDICTED BY IDOCK:   -9.93 KCAL/MOL
REMARK 924 INTRA-LIGAND FREE ENERGY PREDICTED BY IDOCK:   -2.30 KCAL/MOL
REMARK 927      BINDING AFFINITY PREDICTED BY RF-SCORE:    0.00 PKD
ROOT
HETATM    1  C   UNL     1      -7.733  19.486  69.023  1.00  0.00    -0.297 C  
HETATM    2  O   UNL     1      -7.859  18.980  67.701  1.00  0.00    -0.240 OA 
ENDROOT
BRANCH   2   3
HETATM    3  C   UNL     1      -9.227  18.889  67.309  1.00  0.00    -0.283 C  
BRANCH   3   4
HETATM    4  C   UNL     1      -9.344  17.969  66.103  1.00  0.00    -0.129 C  
BRANCH   4   5
HETATM    5  O   UNL     1     -10.696  17.526  65.985  1.00  0.00    -0.264 OA 
BRANCH   5   6
HETATM    6  C   UNL     1     -10.931  16.938  64.709  1.00  0.00     0.091 C  
BRANCH   6   7
HETATM    7  C   UNL     1     -11.667  15.621  64.886  1.00  0.00    -0.055 C  
BRANCH   7   8
HETATM    8  O   UNL     1     -10.915  14.594  64.243  1.00  0.00    -0.166 OA 
BRANCH   8   9
HETATM    9  C   UNL     1     -11.670  13.395  64.124  1.00  0.00    -0.419 C  
BRANCH   9  10
HETATM   10  C   UNL     1     -12.482  13.198  65.392  1.00  0.00    -0.481 C  
BRANCH  10  11
HETATM   11  O   UNL     1     -12.072  11.983  66.006  1.00  0.00    -0.561 OA 
BRANCH  11  12
HETATM   12  C   UNL     1     -11.465  12.222  67.270  1.00  0.00    -0.357 C  
BRANCH  12  13
HETATM   13  C   UNL     1     -11.952  13.561  67.795  1.00  0.00    -0.334 C  
BRANCH  13  14
HETATM   14  O   UNL     1     -11.718  13.632  69.195  1.00  0.00    -0.283 OA 
BRANCH  14  15
HETATM   15  C   UNL     1     -10.550  14.398  69.463  1.00  0.00    -0.060 C  
BRANCH  15  16
HETATM   16  C   UNL     1     -10.173  15.222  68.243  1.00  0.00    -0.226 C  
BRANCH  16  17
HETATM   17  O   UNL     1      -8.811  14.947  67.946  1.00  0.00    -0.159 OA 
BRANCH  17  18
HETATM   18  C   UNL     1      -8.010  14.852  69.113  1.00  0.00    -0.165 C  
BRANCH  18  19
HETATM   19  C   UNL     1      -6.624  14.406  68.687  1.00  0.00    -0.088 C  
BRANCH  19  20
HETATM   20  O   UNL     1      -6.706  13.155  68.018  1.00  0.00    -0.089 OA 
BRANCH  20  21
HETATM   21  C   UNL     1      -5.826  12.188  68.590  1.00  0.00    -0.053 C  
BRANCH  21  22
HETATM   22  C   UNL     1      -6.600  10.947  69.050  1.00  0.00    -0.061 C  
BRANCH  22  23
HETATM   23  O   UNL     1      -7.952  11.189  69.519  1.00  0.00     0.026 OA 
BRANCH  23  24
HETATM   24  C   UNL     1      -8.948  10.283  68.985  1.00  0.00    -0.172 C  
HETATM   25  C   UNL     1      -8.298   9.010  68.518  1.00  0.00    -0.124 C  
HETATM   26  C   UNL     1      -8.220   7.829  69.648  1.00  0.00    -0.127 C  
HETATM   27  C   UNL     1      -9.562   7.443  70.521  1.00  0.00    -0.172 C  
HETATM   28  C   UNL     1     -10.609   6.145  70.537  1.00  0.00    -0.253 C  
HETATM   29  O   UNL     1      -9.206   7.774  71.871  1.00  0.00    -0.133 OA 
HETATM   30  C   UNL     1     -11.713   6.113  71.597  1.00  0.00    -0.290 C  
HETATM   31  H   UNL     1      -9.981   7.551  72.374  1.00  0.00     0.000 HD 
HETATM   32  C   UNL     1     -12.359   7.473  71.490  1.00  0.00    -0.367 A  
HETATM   33  C   UNL     1     -13.385   7.864  72.328  1.00  0.00    -0.071 A  
HETATM   34  C   UNL     1     -13.739   9.200  72.451  1.00  0.00    -0.543 A  
HETATM   35  C   UNL     1     -13.026  10.202  71.732  1.00  0.00    -0.462 A  
HETATM   36  O   UNL     1     -13.215  11.512  72.044  1.00  0.00    -0.509 OA 
HETATM   37  C   UNL     1     -12.075   9.806  70.795  1.00  0.00    -0.279 A  
HETATM   38  H   UNL     1     -12.740  12.181  71.565  1.00  0.00     0.000 HD 
HETATM   39  C   UNL     1     -11.752   8.455  70.612  1.00  0.00    -0.159 A  
HETATM   40  C   UNL     1     -10.509   8.301  69.778  1.00  0.00    -0.220 C  
HETATM   41  C   UNL     1     -10.026   9.812  69.986  1.00  0.00    -0.254 C  
HETATM   42  C   UNL     1     -10.508   7.278  68.291  1.00  0.00    -0.239 C  
HETATM   43  O   UNL     1     -11.215  10.640  70.099  1.00  0.00    -0.288 OA 
HETATM   44  C   UNL     1      -9.915   5.593  68.512  1.00  0.00    -0.157 C  
HETATM   45  N   UNL     1     -10.129   4.989  69.849  1.00  0.00    -0.257 NA 
BRANCH  45  46
HETATM   46  C   UNL     1      -9.046   4.426  70.636  1.00  0.00    -0.117 C  
BRANCH  46  47
HETATM   47  C   UNL     1      -7.796   4.142  69.872  1.00  0.00    -0.052 C  
HETATM   48  C   UNL     1      -6.572   4.316  70.382  1.00  0.00    -0.032 C  
ENDBRANCH  46  47
ENDBRANCH  45  46
ENDBRANCH  23  24
ENDBRANCH  22  23
ENDBRANCH  21  22
ENDBRANCH  20  21
ENDBRANCH  19  20
ENDBRANCH  18  19
ENDBRANCH  17  18
ENDBRANCH  16  17
ENDBRANCH  15  16
ENDBRANCH  14  15
ENDBRANCH  13  14
ENDBRANCH  12  13
ENDBRANCH  11  12
ENDBRANCH  10  11
ENDBRANCH   9  10
ENDBRANCH   8   9
ENDBRANCH   7   8
ENDBRANCH   6   7
ENDBRANCH   5   6
ENDBRANCH   4   5
ENDBRANCH   3   4
ENDBRANCH   2   3
TORSDOF 24
ENDMDL
MODEL       87
REMARK 921   NORMALIZED FREE ENERGY PREDICTED BY IDOCK:   -4.13 KCAL/MOL
REMARK 922        TOTAL FREE ENERGY PREDICTED BY IDOCK:  -12.22 KCAL/MOL
REMARK 923 INTER-LIGAND FREE ENERGY PREDICTED BY IDOCK:   -9.57 KCAL/MOL
REMARK 924 INTRA-LIGAND FREE ENERGY PREDICTED BY IDOCK:   -2.65 KCAL/MOL
REMARK 927      BINDING AFFINITY PREDICTED BY RF-SCORE:    0.00 PKD
ROOT
HETATM    1  C   UNL     1      -6.372  17.039  69.517  1.00  0.00    -0.235 C  
HETATM    2  O   UNL     1      -6.635  16.061  68.521  1.00  0.00    -0.118 OA 
ENDROOT
BRANCH   2   3
HETATM    3  C   UNL     1      -5.430  15.612  67.904  1.00  0.00    -0.132 C  
BRANCH   3   4
HETATM    4  C   UNL     1      -5.377  14.092  67.952  1.00  0.00    -0.072 C  
BRANCH   4   5
HETATM    5  O   UNL     1      -6.660  13.594  68.328  1.00  0.00    -0.085 OA 
BRANCH   5   6
HETATM    6  C   UNL     1      -7.060  12.521  67.479  1.00  0.00    -0.151 C  
BRANCH   6   7
HETATM    7  C   UNL     1      -8.495  12.739  67.029  1.00  0.00    -0.153 C  
BRANCH   7   8
HETATM    8  O   UNL     1      -9.358  12.466  68.131  1.00  0.00    -0.200 OA 
BRANCH   8   9
HETATM    9  C   UNL     1     -10.658  12.091  67.692  1.00  0.00    -0.210 C  
BRANCH   9  10
HETATM   10  C   UNL     1     -11.664  13.098  68.220  1.00  0.00    -0.349 C  
BRANCH  10  11
HETATM   11  O   UNL     1     -11.450  14.339  67.559  1.00  0.00    -0.309 OA 
BRANCH  11  12
HETATM   12  C   UNL     1     -12.427  14.561  66.548  1.00  0.00    -0.006 C  
BRANCH  12  13
HETATM   13  C   UNL     1     -11.719  14.682  65.210  1.00  0.00    -0.346 C  
BRANCH  13  14
HETATM   14  O   UNL     1     -12.490  14.035  64.208  1.00  0.00    -0.645 OA 
BRANCH  14  15
HETATM   15  C   UNL     1     -12.532  12.633  64.443  1.00  0.00    -0.428 C  
BRANCH  15  16
HETATM   16  C   UNL     1     -11.819  11.894  63.324  1.00  0.00    -0.318 C  
BRANCH  16  17
HETATM   17  O   UNL     1     -10.436  12.210  63.416  1.00  0.00    -0.441 OA 
BRANCH  17  18
HETATM   18  C   UNL     1      -9.613  11.055  63.379  1.00  0.00    -0.333 C  
BRANCH  18  19
HETATM   19  C   UNL     1      -9.990  10.181  64.561  1.00  0.00    -0.205 C  
BRANCH  19  20
HETATM   20  O   UNL     1      -8.881   9.378  64.938  1.00  0.00    -0.182 OA 
BRANCH  20  21
HETATM   21  C   UNL     1      -8.935   9.007  66.315  1.00  0.00    -0.162 C  
BRANCH  21  22
HETATM   22  C   UNL     1      -7.600   8.412  66.774  1.00  0.00    -0.090 C  
BRANCH  22  23
HETATM   23  O   UNL     1      -6.882   9.176  67.776  1.00  0.00    -0.074 OA 
BRANCH  23  24
HETATM   24  C   UNL     1      -7.091   8.732  69.139  1.00  0.00    -0.063 C  
HETATM   25  C   UNL     1      -8.027   9.666  69.854  1.00  0.00    -0.174 C  
HETATM   26  C   UNL     1      -9.608   9.253  69.762  1.00  0.00    -0.203 C  
HETATM   27  C   UNL     1     -10.067   7.704  70.082  1.00  0.00    -0.199 C  
HETATM   28  C   UNL     1     -10.878   6.964  71.338  1.00  0.00    -0.228 C  
HETATM   29  O   UNL     1     -10.608   7.238  68.837  1.00  0.00    -0.208 OA 
HETATM   30  C   UNL     1     -11.207   5.474  71.214  1.00  0.00    -0.055 C  
HETATM   31  H   UNL     1     -10.873   6.343  69.022  1.00  0.00     0.000 HD 
HETATM   32  C   UNL     1      -9.894   4.843  70.820  1.00  0.00    -0.285 A  
HETATM   33  C   UNL     1      -9.781   3.491  70.558  1.00  0.00    -0.187 A  
HETATM   34  C   UNL     1      -8.681   2.982  69.883  1.00  0.00    -0.133 A  
HETATM   35  C   UNL     1      -7.654   3.854  69.421  1.00  0.00    -0.053 A  
HETATM   36  O   UNL     1      -6.716   3.385  68.556  1.00  0.00    -0.043 OA 
HETATM   37  C   UNL     1      -7.700   5.197  69.787  1.00  0.00    -0.071 A  
HETATM   38  H   UNL     1      -6.031   3.966  68.247  1.00  0.00     0.000 HD 
HETATM   39  C   UNL     1      -8.773   5.715  70.524  1.00  0.00    -0.140 A  
HETATM   40  C   UNL     1      -8.748   7.219  70.539  1.00  0.00    -0.148 C  
HETATM   41  C   UNL     1      -7.751   7.344  69.294  1.00  0.00    -0.107 C  
HETATM   42  C   UNL     1      -8.781   8.134  72.095  1.00  0.00    -0.234 C  
HETATM   43  O   UNL     1      -6.857   6.199  69.332  1.00  0.00    -0.057 OA 
HETATM   44  C   UNL     1     -10.405   8.695  72.628  1.00  0.00    -0.051 C  
HETATM   45  N   UNL     1     -11.559   7.863  72.214  1.00  0.00    -0.327 NA 
BRANCH  45  46
HETATM   46  C   UNL     1     -12.696   8.405  71.490  1.00  0.00    -0.308 C  
BRANCH  46  47
HETATM   47  C   UNL     1     -13.181   9.728  71.982  1.00  0.00    -0.557 C  
HETATM   48  C   UNL     1     -12.983  10.872  71.319  1.00  0.00    -0.492 C  
ENDBRANCH  46  47
ENDBRANCH  45  46
ENDBRANCH  23  24
ENDBRANCH  22  23
ENDBRANCH  21  22
ENDBRANCH  20  21
ENDBRANCH  19  20
ENDBRANCH  18  19
ENDBRANCH  17  18
ENDBRANCH  16  17
ENDBRANCH  15  16
ENDBRANCH  14  15
ENDBRANCH  13  14
ENDBRANCH  12  13
ENDBRANCH  11  12
ENDBRANCH  10  11
ENDBRANCH   9  10
ENDBRANCH   8   9
ENDBRANCH   7   8
ENDBRANCH   6   7
ENDBRANCH   5   6
ENDBRANCH   4   5
ENDBRANCH   3   4
ENDBRANCH   2   3
TORSDOF 24
ENDMDL
MODEL       88
REMARK 921   NORMALIZED FREE ENERGY PREDICTED BY IDOCK:   -4.08 KCAL/MOL
REMARK 922        TOTAL FREE ENERGY PREDICTED BY IDOCK:  -12.11 KCAL/MOL
REMARK 923 INTER-LIGAND FREE ENERGY PREDICTED BY IDOCK:  -10.19 KCAL/MOL
REMARK 924 INTRA-LIGAND FREE ENERGY PREDICTED BY IDOCK:   -1.91 KCAL/MOL
REMARK 927      BINDING AFFINITY PREDICTED BY RF-SCORE:    0.00 PKD
ROOT
HETATM    1  C   UNL     1     -14.141   8.845  72.344  1.00  0.00    -0.420 C  
HETATM    2  O   UNL     1     -13.305   8.419  71.277  1.00  0.00    -0.241 OA 
ENDROOT
BRANCH   2   3
HETATM    3  C   UNL     1     -12.084   7.866  71.764  1.00  0.00    -0.303 C  
BRANCH   3   4
HETATM    4  C   UNL     1     -11.044   8.971  71.883  1.00  0.00    -0.363 C  
BRANCH   4   5
HETATM    5  O   UNL     1     -11.000   9.701  70.658  1.00  0.00    -0.268 OA 
BRANCH   5   6
HETATM    6  C   UNL     1      -9.755   9.506  69.993  1.00  0.00    -0.236 C  
BRANCH   6   7
HETATM    7  C   UNL     1      -9.924   8.467  68.896  1.00  0.00    -0.187 C  
BRANCH   7   8
HETATM    8  O   UNL     1      -8.839   8.599  67.981  1.00  0.00    -0.140 OA 
BRANCH   8   9
HETATM    9  C   UNL     1      -7.939   7.502  68.082  1.00  0.00    -0.123 C  
BRANCH   9  10
HETATM   10  C   UNL     1      -7.275   7.286  66.733  1.00  0.00    -0.083 C  
BRANCH  10  11
HETATM   11  O   UNL     1      -5.977   7.866  66.773  1.00  0.00    -0.045 OA 
BRANCH  11  12
HETATM   12  C   UNL     1      -5.437   8.013  65.465  1.00  0.00    -0.029 C  
BRANCH  12  13
HETATM   13  C   UNL     1      -6.168   7.065  64.530  1.00  0.00    -0.037 C  
BRANCH  13  14
HETATM   14  O   UNL     1      -6.049   7.535  63.194  1.00  0.00    -0.053 OA 
BRANCH  14  15
HETATM   15  C   UNL     1      -6.649   8.818  63.065  1.00  0.00    -0.090 C  
BRANCH  15  16
HETATM   16  C   UNL     1      -8.144   8.723  63.317  1.00  0.00    -0.170 C  
BRANCH  16  17
HETATM   17  O   UNL     1      -8.676  10.040  63.235  1.00  0.00    -0.179 OA 
BRANCH  17  18
HETATM   18  C   UNL     1      -9.638  10.299  64.245  1.00  0.00    -0.313 C  
BRANCH  18  19
HETATM   19  C   UNL     1     -10.556  11.395  63.737  1.00  0.00    -0.403 C  
BRANCH  19  20
HETATM   20  O   UNL     1     -10.906  12.262  64.807  1.00  0.00    -0.283 OA 
BRANCH  20  21
HETATM   21  C   UNL     1     -12.294  12.591  64.793  1.00  0.00    -0.474 C  
BRANCH  21  22
HETATM   22  C   UNL     1     -12.537  13.969  65.418  1.00  0.00    -0.505 C  
BRANCH  22  23
HETATM   23  O   UNL     1     -11.393  14.862  65.433  1.00  0.00    -0.343 OA 
BRANCH  23  24
HETATM   24  C   UNL     1     -10.973  15.282  66.754  1.00  0.00    -0.306 C  
HETATM   25  C   UNL     1     -10.191  14.187  67.425  1.00  0.00    -0.244 C  
HETATM   26  C   UNL     1      -8.574  14.254  67.183  1.00  0.00    -0.234 C  
HETATM   27  C   UNL     1      -7.774  15.679  67.399  1.00  0.00    -0.187 C  
HETATM   28  C   UNL     1      -6.716  16.257  68.551  1.00  0.00    -0.135 C  
HETATM   29  O   UNL     1      -7.264  15.992  66.095  1.00  0.00     0.034 OA 
HETATM   30  C   UNL     1      -6.096  17.641  68.339  1.00  0.00    -0.175 C  
HETATM   31  H   UNL     1      -6.803  16.814  66.220  1.00  0.00     0.000 HD 
HETATM   32  C   UNL     1      -7.278  18.527  68.032  1.00  0.00    -0.257 A  
HETATM   33  C   UNL     1      -7.131  19.866  67.726  1.00  0.00    -0.309 A  
HETATM   34  C   UNL     1      -8.158  20.581  67.126  1.00  0.00    -0.358 A  
HETATM   35  C   UNL     1      -9.381  19.935  66.788  1.00  0.00    -0.384 A  
HETATM   36  O   UNL     1     -10.276  20.574  65.987  1.00  0.00    -0.483 OA 
HETATM   37  C   UNL     1      -9.583  18.621  67.203  1.00  0.00    -0.298 A  
HETATM   38  H   UNL     1     -11.093  20.143  65.761  1.00  0.00     0.000 HD 
HETATM   39  C   UNL     1      -8.579  17.905  67.868  1.00  0.00    -0.252 A  
HETATM   40  C   UNL     1      -8.916  16.441  67.946  1.00  0.00    -0.196 C  
HETATM   41  C   UNL     1     -10.026  16.502  66.796  1.00  0.00    -0.276 C  
HETATM   42  C   UNL     1      -8.933  15.574  69.529  1.00  0.00    -0.244 C  
HETATM   43  O   UNL     1     -10.655  17.811  66.863  1.00  0.00    -0.323 OA 
HETATM   44  C   UNL     1      -7.420  14.695  69.946  1.00  0.00     0.118 C  
HETATM   45  N   UNL     1      -6.160  15.254  69.402  1.00  0.00    -0.111 NA 
BRANCH  45  46
HETATM   46  C   UNL     1      -5.233  14.469  68.607  1.00  0.00    -0.095 C  
BRANCH  46  47
HETATM   47  C   UNL     1      -5.534  13.008  68.552  1.00  0.00    -0.066 C  
HETATM   48  C   UNL     1      -5.512  12.300  67.418  1.00  0.00    -0.127 C  
ENDBRANCH  46  47
ENDBRANCH  45  46
ENDBRANCH  23  24
ENDBRANCH  22  23
ENDBRANCH  21  22
ENDBRANCH  20  21
ENDBRANCH  19  20
ENDBRANCH  18  19
ENDBRANCH  17  18
ENDBRANCH  16  17
ENDBRANCH  15  16
ENDBRANCH  14  15
ENDBRANCH  13  14
ENDBRANCH  12  13
ENDBRANCH  11  12
ENDBRANCH  10  11
ENDBRANCH   9  10
ENDBRANCH   8   9
ENDBRANCH   7   8
ENDBRANCH   6   7
ENDBRANCH   5   6
ENDBRANCH   4   5
ENDBRANCH   3   4
ENDBRANCH   2   3
TORSDOF 24
ENDMDL
MODEL       89
REMARK 921   NORMALIZED FREE ENERGY PREDICTED BY IDOCK:   -4.08 KCAL/MOL
REMARK 922        TOTAL FREE ENERGY PREDICTED BY IDOCK:  -12.09 KCAL/MOL
REMARK 923 INTER-LIGAND FREE ENERGY PREDICTED BY IDOCK:   -9.43 KCAL/MOL
REMARK 924 INTRA-LIGAND FREE ENERGY PREDICTED BY IDOCK:   -2.65 KCAL/MOL
REMARK 927      BINDING AFFINITY PREDICTED BY RF-SCORE:    0.00 PKD
ROOT
HETATM    1  C   UNL     1     -10.363  19.404  66.671  1.00  0.00    -0.457 C  
HETATM    2  O   UNL     1     -10.252  18.844  67.972  1.00  0.00    -0.354 OA 
ENDROOT
BRANCH   2   3
HETATM    3  C   UNL     1      -8.904  18.874  68.437  1.00  0.00    -0.344 C  
BRANCH   3   4
HETATM    4  C   UNL     1      -8.473  17.466  68.821  1.00  0.00    -0.225 C  
BRANCH   4   5
HETATM    5  O   UNL     1      -9.242  16.525  68.073  1.00  0.00    -0.209 OA 
BRANCH   5   6
HETATM    6  C   UNL     1      -8.476  15.973  67.006  1.00  0.00    -0.214 C  
BRANCH   6   7
HETATM    7  C   UNL     1      -8.631  14.462  66.998  1.00  0.00    -0.203 C  
BRANCH   7   8
HETATM    8  O   UNL     1      -7.989  13.938  68.158  1.00  0.00    -0.127 OA 
BRANCH   8   9
HETATM    9  C   UNL     1      -6.668  13.499  67.865  1.00  0.00    -0.150 C  
BRANCH   9  10
HETATM   10  C   UNL     1      -6.705  12.017  67.533  1.00  0.00    -0.120 C  
BRANCH  10  11
HETATM   11  O   UNL     1      -5.745  11.759  66.516  1.00  0.00    -0.232 OA 
BRANCH  11  12
HETATM   12  C   UNL     1      -6.119  10.636  65.726  1.00  0.00    -0.134 C  
BRANCH  12  13
HETATM   13  C   UNL     1      -7.411  10.063  66.281  1.00  0.00    -0.106 C  
BRANCH  13  14
HETATM   14  O   UNL     1      -8.373   9.972  65.239  1.00  0.00    -0.140 OA 
BRANCH  14  15
HETATM   15  C   UNL     1      -9.682   9.851  65.781  1.00  0.00    -0.266 C  
BRANCH  15  16
HETATM   16  C   UNL     1     -10.338  11.218  65.872  1.00  0.00    -0.253 C  
BRANCH  16  17
HETATM   17  O   UNL     1     -10.263  11.639  67.228  1.00  0.00    -0.197 OA 
BRANCH  17  18
HETATM   18  C   UNL     1     -11.352  11.166  68.003  1.00  0.00    -0.312 C  
BRANCH  18  19
HETATM   19  C   UNL     1     -10.881  11.051  69.441  1.00  0.00    -0.231 C  
BRANCH  19  20
HETATM   20  O   UNL     1     -11.787  11.730  70.300  1.00  0.00    -0.329 OA 
BRANCH  20  21
HETATM   21  C   UNL     1     -12.633  10.823  71.005  1.00  0.00    -0.420 C  
BRANCH  21  22
HETATM   22  C   UNL     1     -11.982   9.440  71.114  1.00  0.00    -0.337 C  
BRANCH  22  23
HETATM   23  O   UNL     1     -11.923   8.877  72.450  1.00  0.00    -0.341 OA 
BRANCH  23  24
HETATM   24  C   UNL     1     -10.807   7.983  72.680  1.00  0.00    -0.368 C  
HETATM   25  C   UNL     1     -11.246   6.553  72.540  1.00  0.00    -0.298 C  
HETATM   26  C   UNL     1     -11.085   5.932  71.035  1.00  0.00    -0.315 C  
HETATM   27  C   UNL     1      -9.668   6.128  70.218  1.00  0.00    -0.164 C  
HETATM   28  C   UNL     1      -8.416   5.110  69.795  1.00  0.00    -0.096 C  
HETATM   29  O   UNL     1     -10.029   6.923  69.080  1.00  0.00    -0.153 OA 
HETATM   30  C   UNL     1      -7.287   5.667  68.924  1.00  0.00    -0.082 C  
HETATM   31  H   UNL     1      -9.211   7.036  68.609  1.00  0.00     0.000 HD 
HETATM   32  C   UNL     1      -6.885   6.943  69.622  1.00  0.00    -0.051 A  
HETATM   33  C   UNL     1      -5.912   7.782  69.113  1.00  0.00    -0.034 A  
HETATM   34  C   UNL     1      -5.787   9.088  69.562  1.00  0.00    -0.033 A  
HETATM   35  C   UNL     1      -6.683   9.601  70.543  1.00  0.00    -0.119 A  
HETATM   36  O   UNL     1      -6.709  10.938  70.793  1.00  0.00    -0.458 OA 
HETATM   37  C   UNL     1      -7.584   8.729  71.149  1.00  0.00    -0.115 A  
HETATM   38  H   UNL     1      -7.307  11.280  71.448  1.00  0.00     0.000 HD 
HETATM   39  C   UNL     1      -7.680   7.388  70.751  1.00  0.00    -0.088 A  
HETATM   40  C   UNL     1      -8.906   6.736  71.329  1.00  0.00    -0.136 C  
HETATM   41  C   UNL     1      -9.631   8.116  71.687  1.00  0.00    -0.180 C  
HETATM   42  C   UNL     1      -8.784   5.209  72.284  1.00  0.00    -0.127 C  
HETATM   43  O   UNL     1      -8.596   9.079  72.028  1.00  0.00    -0.367 OA 
HETATM   44  C   UNL     1      -9.074   3.693  71.359  1.00  0.00    -0.116 C  
HETATM   45  N   UNL     1      -8.716   3.719  69.921  1.00  0.00    -0.072 NA 
BRANCH  45  46
HETATM   46  C   UNL     1      -9.660   3.376  68.872  1.00  0.00    -0.051 C  
BRANCH  46  47
HETATM   47  C   UNL     1      -9.234   2.254  67.985  1.00  0.00    -0.248 C  
HETATM   48  C   UNL     1      -8.014   2.173  67.444  1.00  0.00    -0.065 C  
ENDBRANCH  46  47
ENDBRANCH  45  46
ENDBRANCH  23  24
ENDBRANCH  22  23
ENDBRANCH  21  22
ENDBRANCH  20  21
ENDBRANCH  19  20
ENDBRANCH  18  19
ENDBRANCH  17  18
ENDBRANCH  16  17
ENDBRANCH  15  16
ENDBRANCH  14  15
ENDBRANCH  13  14
ENDBRANCH  12  13
ENDBRANCH  11  12
ENDBRANCH  10  11
ENDBRANCH   9  10
ENDBRANCH   8   9
ENDBRANCH   7   8
ENDBRANCH   6   7
ENDBRANCH   5   6
ENDBRANCH   4   5
ENDBRANCH   3   4
ENDBRANCH   2   3
TORSDOF 24
ENDMDL
MODEL       90
REMARK 921   NORMALIZED FREE ENERGY PREDICTED BY IDOCK:   -4.07 KCAL/MOL
REMARK 922        TOTAL FREE ENERGY PREDICTED BY IDOCK:  -12.08 KCAL/MOL
REMARK 923 INTER-LIGAND FREE ENERGY PREDICTED BY IDOCK:   -9.82 KCAL/MOL
REMARK 924 INTRA-LIGAND FREE ENERGY PREDICTED BY IDOCK:   -2.26 KCAL/MOL
REMARK 927      BINDING AFFINITY PREDICTED BY RF-SCORE:    0.00 PKD
ROOT
HETATM    1  C   UNL     1      -7.166   6.785  69.748  1.00  0.00    -0.077 C  
HETATM    2  O   UNL     1      -6.934   5.429  70.103  1.00  0.00    -0.053 OA 
ENDROOT
BRANCH   2   3
HETATM    3  C   UNL     1      -6.973   5.250  71.518  1.00  0.00    -0.065 C  
BRANCH   3   4
HETATM    4  C   UNL     1      -7.458   3.842  71.833  1.00  0.00    -0.060 C  
BRANCH   4   5
HETATM    5  O   UNL     1      -6.874   2.930  70.904  1.00  0.00    -0.031 OA 
BRANCH   5   6
HETATM    6  C   UNL     1      -7.803   1.915  70.534  1.00  0.00    -0.042 C  
BRANCH   6   7
HETATM    7  C   UNL     1      -8.267   2.149  69.106  1.00  0.00    -0.048 C  
BRANCH   7   8
HETATM    8  O   UNL     1      -9.429   2.975  69.140  1.00  0.00    -0.159 OA 
BRANCH   8   9
HETATM    9  C   UNL     1      -9.341   4.033  68.194  1.00  0.00    -0.164 C  
BRANCH   9  10
HETATM   10  C   UNL     1     -10.313   5.130  68.592  1.00  0.00    -0.078 C  
BRANCH  10  11
HETATM   11  O   UNL     1     -10.447   5.121  70.007  1.00  0.00    -0.293 OA 
BRANCH  11  12
HETATM   12  C   UNL     1     -11.092   6.301  70.473  1.00  0.00    -0.335 C  
BRANCH  12  13
HETATM   13  C   UNL     1     -10.368   6.790  71.714  1.00  0.00    -0.199 C  
BRANCH  13  14
HETATM   14  O   UNL     1     -11.014   7.955  72.209  1.00  0.00    -0.254 OA 
BRANCH  14  15
HETATM   15  C   UNL     1     -12.033   8.375  71.310  1.00  0.00    -0.288 C  
BRANCH  15  16
HETATM   16  C   UNL     1     -12.794   9.553  71.896  1.00  0.00    -0.420 C  
BRANCH  16  17
HETATM   17  O   UNL     1     -12.425  10.710  71.157  1.00  0.00    -0.348 OA 
BRANCH  17  18
HETATM   18  C   UNL     1     -13.156  11.860  71.551  1.00  0.00    -0.275 C  
BRANCH  18  19
HETATM   19  C   UNL     1     -12.434  13.076  71.003  1.00  0.00    -0.296 C  
BRANCH  19  20
HETATM   20  O   UNL     1     -12.514  14.144  71.938  1.00  0.00    -0.319 OA 
BRANCH  20  21
HETATM   21  C   UNL     1     -12.520  15.416  71.293  1.00  0.00    -0.397 C  
BRANCH  21  22
HETATM   22  C   UNL     1     -12.032  15.298  69.845  1.00  0.00    -0.343 C  
BRANCH  22  23
HETATM   23  O   UNL     1     -11.151  16.358  69.391  1.00  0.00    -0.318 OA 
BRANCH  23  24
HETATM   24  C   UNL     1     -10.132  15.935  68.452  1.00  0.00    -0.223 C  
HETATM   25  C   UNL     1      -9.119  15.064  69.140  1.00  0.00    -0.183 C  
HETATM   26  C   UNL     1      -9.448  13.462  69.090  1.00  0.00     0.502 C  
HETATM   27  C   UNL     1      -9.861  12.757  67.659  1.00  0.00    -0.214 C  
HETATM   28  C   UNL     1      -9.092  11.714  66.610  1.00  0.00    -0.194 C  
HETATM   29  O   UNL     1     -11.204  12.301  67.872  1.00  0.00    -0.239 OA 
HETATM   30  C   UNL     1      -9.871  11.195  65.398  1.00  0.00    -0.289 C  
HETATM   31  H   UNL     1     -11.442  11.895  67.046  1.00  0.00     0.000 HD 
HETATM   32  C   UNL     1     -10.448  12.443  64.775  1.00  0.00    -0.333 A  
HETATM   33  C   UNL     1     -11.273  12.395  63.668  1.00  0.00    -0.544 A  
HETATM   34  C   UNL     1     -12.057  13.483  63.312  1.00  0.00    -0.223 A  
HETATM   35  C   UNL     1     -12.047  14.667  64.103  1.00  0.00    -0.320 A  
HETATM   36  O   UNL     1     -12.991  15.623  63.890  1.00  0.00    -0.485 OA 
HETATM   37  C   UNL     1     -11.130  14.768  65.146  1.00  0.00    -0.384 A  
HETATM   38  H   UNL     1     -12.984  16.413  64.418  1.00  0.00     0.000 HD 
HETATM   39  C   UNL     1     -10.285  13.701  65.479  1.00  0.00    -0.316 A  
HETATM   40  C   UNL     1      -9.609  13.935  66.803  1.00  0.00    -0.288 C  
HETATM   41  C   UNL     1     -10.631  15.074  67.270  1.00  0.00    -0.279 C  
HETATM   42  C   UNL     1      -7.812  13.854  66.957  1.00  0.00     0.100 C  
HETATM   43  O   UNL     1     -11.063  15.789  66.081  1.00  0.00    -0.226 OA 
HETATM   44  C   UNL     1      -7.154  12.275  67.512  1.00  0.00    -0.142 C  
HETATM   45  N   UNL     1      -7.939  11.070  67.153  1.00  0.00    -0.129 NA 
BRANCH  45  46
HETATM   46  C   UNL     1      -8.397  10.110  68.142  1.00  0.00    -0.117 C  
BRANCH  46  47
HETATM   47  C   UNL     1      -9.128   8.934  67.584  1.00  0.00    -0.144 C  
HETATM   48  C   UNL     1     -10.404   8.662  67.876  1.00  0.00    -0.286 C  
ENDBRANCH  46  47
ENDBRANCH  45  46
ENDBRANCH  23  24
ENDBRANCH  22  23
ENDBRANCH  21  22
ENDBRANCH  20  21
ENDBRANCH  19  20
ENDBRANCH  18  19
ENDBRANCH  17  18
ENDBRANCH  16  17
ENDBRANCH  15  16
ENDBRANCH  14  15
ENDBRANCH  13  14
ENDBRANCH  12  13
ENDBRANCH  11  12
ENDBRANCH  10  11
ENDBRANCH   9  10
ENDBRANCH   8   9
ENDBRANCH   7   8
ENDBRANCH   6   7
ENDBRANCH   5   6
ENDBRANCH   4   5
ENDBRANCH   3   4
ENDBRANCH   2   3
TORSDOF 24
ENDMDL
MODEL       91
REMARK 921   NORMALIZED FREE ENERGY PREDICTED BY IDOCK:   -4.06 KCAL/MOL
REMARK 922        TOTAL FREE ENERGY PREDICTED BY IDOCK:  -12.06 KCAL/MOL
REMARK 923 INTER-LIGAND FREE ENERGY PREDICTED BY IDOCK:  -10.20 KCAL/MOL
REMARK 924 INTRA-LIGAND FREE ENERGY PREDICTED BY IDOCK:   -1.86 KCAL/MOL
REMARK 927      BINDING AFFINITY PREDICTED BY RF-SCORE:    0.00 PKD
ROOT
HETATM    1  C   UNL     1     -14.124   9.020  72.205  1.00  0.00    -0.391 C  
HETATM    2  O   UNL     1     -12.752   8.903  71.852  1.00  0.00    -0.328 OA 
ENDROOT
BRANCH   2   3
HETATM    3  C   UNL     1     -12.321   7.544  71.892  1.00  0.00    -0.310 C  
BRANCH   3   4
HETATM    4  C   UNL     1     -11.158   7.414  72.864  1.00  0.00    -0.349 C  
BRANCH   4   5
HETATM    5  O   UNL     1     -10.211   8.448  72.598  1.00  0.00    -0.302 OA 
BRANCH   5   6
HETATM    6  C   UNL     1      -8.990   8.214  73.295  1.00  0.00    -0.261 C  
BRANCH   6   7
HETATM    7  C   UNL     1      -7.828   8.287  72.319  1.00  0.00    -0.130 C  
BRANCH   7   8
HETATM    8  O   UNL     1      -7.445   6.957  71.976  1.00  0.00    -0.089 OA 
BRANCH   8   9
HETATM    9  C   UNL     1      -7.496   6.748  70.570  1.00  0.00    -0.086 C  
BRANCH   9  10
HETATM   10  C   UNL     1      -8.738   5.939  70.238  1.00  0.00    -0.142 C  
BRANCH  10  11
HETATM   11  O   UNL     1      -9.639   6.771  69.519  1.00  0.00    -0.148 OA 
BRANCH  11  12
HETATM   12  C   UNL     1     -10.711   6.016  68.967  1.00  0.00    -0.324 C  
BRANCH  12  13
HETATM   13  C   UNL     1     -10.980   6.517  67.559  1.00  0.00    -0.359 C  
BRANCH  13  14
HETATM   14  O   UNL     1     -10.684   5.486  66.627  1.00  0.00    -0.295 OA 
BRANCH  14  15
HETATM   15  C   UNL     1      -9.289   5.204  66.627  1.00  0.00    -0.137 C  
BRANCH  15  16
HETATM   16  C   UNL     1      -8.640   5.778  65.380  1.00  0.00    -0.143 C  
BRANCH  16  17
HETATM   17  O   UNL     1      -8.165   7.078  65.706  1.00  0.00    -0.119 OA 
BRANCH  17  18
HETATM   18  C   UNL     1      -7.217   7.060  66.760  1.00  0.00    -0.076 C  
BRANCH  18  19
HETATM   19  C   UNL     1      -6.589   8.439  66.841  1.00  0.00    -0.058 C  
BRANCH  19  20
HETATM   20  O   UNL     1      -5.834   8.553  68.039  1.00  0.00    -0.041 OA 
BRANCH  20  21
HETATM   21  C   UNL     1      -5.217   9.834  68.159  1.00  0.00    -0.036 C  
BRANCH  21  22
HETATM   22  C   UNL     1      -6.248  10.905  68.533  1.00  0.00    -0.046 C  
BRANCH  22  23
HETATM   23  O   UNL     1      -5.905  12.264  68.160  1.00  0.00    -0.052 OA 
BRANCH  23  24
HETATM   24  C   UNL     1      -6.872  12.916  67.300  1.00  0.00    -0.057 C  
HETATM   25  C   UNL     1      -8.207  12.234  67.405  1.00  0.00    -0.178 C  
HETATM   26  C   UNL     1      -9.204  12.855  68.544  1.00  0.00    -0.062 C  
HETATM   27  C   UNL     1      -9.439  14.484  68.624  1.00  0.00    -0.205 C  
HETATM   28  C   UNL     1     -10.710  15.497  68.251  1.00  0.00    -0.271 C  
HETATM   29  O   UNL     1      -8.912  14.848  69.908  1.00  0.00    -0.437 OA 
HETATM   30  C   UNL     1     -10.569  16.988  68.569  1.00  0.00    -0.370 C  
HETATM   31  H   UNL     1      -9.048  15.788  69.954  1.00  0.00     0.000 HD 
HETATM   32  C   UNL     1      -9.235  17.363  67.972  1.00  0.00    -0.266 A  
HETATM   33  C   UNL     1      -8.711  18.636  68.092  1.00  0.00    -0.336 A  
HETATM   34  C   UNL     1      -7.368  18.883  67.845  1.00  0.00    -0.263 A  
HETATM   35  C   UNL     1      -6.494  17.817  67.489  1.00  0.00    -0.163 A  
HETATM   36  O   UNL     1      -5.150  18.023  67.491  1.00  0.00    -0.134 OA 
HETATM   37  C   UNL     1      -7.037  16.557  67.246  1.00  0.00    -0.171 A  
HETATM   38  H   UNL     1      -4.566  17.312  67.253  1.00  0.00     0.000 HD 
HETATM   39  C   UNL     1      -8.403  16.306  67.428  1.00  0.00    -0.189 A  
HETATM   40  C   UNL     1      -8.695  14.830  67.396  1.00  0.00    -0.210 C  
HETATM   41  C   UNL     1      -7.174  14.393  67.637  1.00  0.00    -0.184 C  
HETATM   42  C   UNL     1      -9.932  14.151  66.270  1.00  0.00    -0.315 C  
HETATM   43  O   UNL     1      -6.327  15.392  67.007  1.00  0.00    -0.267 OA 
HETATM   44  C   UNL     1     -11.569  13.909  66.976  1.00  0.00    -0.369 C  
HETATM   45  N   UNL     1     -11.962  14.835  68.065  1.00  0.00    -0.284 NA 
BRANCH  45  46
HETATM   46  C   UNL     1     -12.409  14.369  69.365  1.00  0.00    -0.191 C  
BRANCH  46  47
HETATM   47  C   UNL     1     -12.518  15.431  70.409  1.00  0.00    -0.447 C  
HETATM   48  C   UNL     1     -13.469  15.436  71.349  1.00  0.00    -0.607 C  
ENDBRANCH  46  47
ENDBRANCH  45  46
ENDBRANCH  23  24
ENDBRANCH  22  23
ENDBRANCH  21  22
ENDBRANCH  20  21
ENDBRANCH  19  20
ENDBRANCH  18  19
ENDBRANCH  17  18
ENDBRANCH  16  17
ENDBRANCH  15  16
ENDBRANCH  14  15
ENDBRANCH  13  14
ENDBRANCH  12  13
ENDBRANCH  11  12
ENDBRANCH  10  11
ENDBRANCH   9  10
ENDBRANCH   8   9
ENDBRANCH   7   8
ENDBRANCH   6   7
ENDBRANCH   5   6
ENDBRANCH   4   5
ENDBRANCH   3   4
ENDBRANCH   2   3
TORSDOF 24
ENDMDL
MODEL       92
REMARK 921   NORMALIZED FREE ENERGY PREDICTED BY IDOCK:   -4.06 KCAL/MOL
REMARK 922        TOTAL FREE ENERGY PREDICTED BY IDOCK:  -12.05 KCAL/MOL
REMARK 923 INTER-LIGAND FREE ENERGY PREDICTED BY IDOCK:   -9.97 KCAL/MOL
REMARK 924 INTRA-LIGAND FREE ENERGY PREDICTED BY IDOCK:   -2.08 KCAL/MOL
REMARK 927      BINDING AFFINITY PREDICTED BY RF-SCORE:    0.00 PKD
ROOT
HETATM    1  C   UNL     1      -7.375   6.085  70.629  1.00  0.00    -0.085 C  
HETATM    2  O   UNL     1      -7.500   4.904  69.848  1.00  0.00    -0.054 OA 
ENDROOT
BRANCH   2   3
HETATM    3  C   UNL     1      -7.469   3.737  70.666  1.00  0.00    -0.041 C  
BRANCH   3   4
HETATM    4  C   UNL     1      -8.453   2.713  70.119  1.00  0.00    -0.046 C  
BRANCH   4   5
HETATM    5  O   UNL     1      -8.318   2.651  68.700  1.00  0.00    -0.062 OA 
BRANCH   5   6
HETATM    6  C   UNL     1      -9.593   2.668  68.065  1.00  0.00    -0.028 C  
BRANCH   6   7
HETATM    7  C   UNL     1      -9.562   3.630  66.889  1.00  0.00    -0.150 C  
BRANCH   7   8
HETATM    8  O   UNL     1     -10.218   4.835  67.277  1.00  0.00    -0.171 OA 
BRANCH   8   9
HETATM    9  C   UNL     1      -9.367   5.964  67.118  1.00  0.00    -0.116 C  
BRANCH   9  10
HETATM   10  C   UNL     1      -9.805   7.049  68.086  1.00  0.00    -0.139 C  
BRANCH  10  11
HETATM   11  O   UNL     1     -10.738   6.488  69.000  1.00  0.00    -0.225 OA 
BRANCH  11  12
HETATM   12  C   UNL     1     -11.122   7.433  69.992  1.00  0.00    -0.220 C  
BRANCH  12  13
HETATM   13  C   UNL     1     -10.814   6.850  71.360  1.00  0.00    -0.228 C  
BRANCH  13  14
HETATM   14  O   UNL     1     -11.679   7.431  72.326  1.00  0.00    -0.286 OA 
BRANCH  14  15
HETATM   15  C   UNL     1     -12.695   8.193  71.686  1.00  0.00    -0.321 C  
BRANCH  15  16
HETATM   16  C   UNL     1     -13.031   9.419  72.517  1.00  0.00    -0.271 C  
BRANCH  16  17
HETATM   17  O   UNL     1     -12.833  10.561  71.694  1.00  0.00    -0.412 OA 
BRANCH  17  18
HETATM   18  C   UNL     1     -13.584  11.682  72.132  1.00  0.00    -0.019 C  
BRANCH  18  19
HETATM   19  C   UNL     1     -12.923  12.928  71.573  1.00  0.00    -0.294 C  
BRANCH  19  20
HETATM   20  O   UNL     1     -13.063  14.000  72.495  1.00  0.00    -0.431 OA 
BRANCH  20  21
HETATM   21  C   UNL     1     -13.129  15.264  71.835  1.00  0.00    -0.395 C  
BRANCH  21  22
HETATM   22  C   UNL     1     -12.181  15.303  70.631  1.00  0.00    -0.364 C  
BRANCH  22  23
HETATM   23  O   UNL     1     -12.566  16.199  69.558  1.00  0.00     0.013 OA 
BRANCH  23  24
HETATM   24  C   UNL     1     -11.823  16.021  68.327  1.00  0.00     0.005 C  
HETATM   25  C   UNL     1     -10.783  17.097  68.185  1.00  0.00    -0.366 C  
HETATM   26  C   UNL     1      -9.318  16.718  68.808  1.00  0.00    -0.254 C  
HETATM   27  C   UNL     1      -8.626  15.268  68.445  1.00  0.00    -0.160 C  
HETATM   28  C   UNL     1      -7.340  14.796  67.493  1.00  0.00    -0.201 C  
HETATM   29  O   UNL     1      -8.545  14.595  69.709  1.00  0.00    -0.389 OA 
HETATM   30  C   UNL     1      -6.938  13.319  67.493  1.00  0.00    -0.152 C  
HETATM   31  H   UNL     1      -8.145  13.758  69.499  1.00  0.00     0.000 HD 
HETATM   32  C   UNL     1      -8.236  12.589  67.247  1.00  0.00    -0.184 A  
HETATM   33  C   UNL     1      -8.308  11.209  67.225  1.00  0.00    -0.135 A  
HETATM   34  C   UNL     1      -9.526  10.555  67.336  1.00  0.00    -0.172 A  
HETATM   35  C   UNL     1     -10.730  11.297  67.504  1.00  0.00    -0.232 A  
HETATM   36  O   UNL     1     -11.873  10.649  67.856  1.00  0.00    -0.738 OA 
HETATM   37  C   UNL     1     -10.681  12.685  67.404  1.00  0.00    -0.229 A  
HETATM   38  H   UNL     1     -12.676  11.144  67.968  1.00  0.00     0.000 HD 
HETATM   39  C   UNL     1      -9.465  13.360  67.227  1.00  0.00    -0.234 A  
HETATM   40  C   UNL     1      -9.627  14.840  67.445  1.00  0.00    -0.210 C  
HETATM   41  C   UNL     1     -11.023  14.704  68.216  1.00  0.00    -0.252 C  
HETATM   42  C   UNL     1      -9.107  16.027  66.190  1.00  0.00    -0.387 C  
HETATM   43  O   UNL     1     -11.724  13.562  67.655  1.00  0.00    -0.321 OA 
HETATM   44  C   UNL     1      -7.463  16.722  66.416  1.00  0.00    -0.267 C  
HETATM   45  N   UNL     1      -6.471  15.860  67.102  1.00  0.00    -0.300 NA 
BRANCH  45  46
HETATM   46  C   UNL     1      -5.743  16.290  68.283  1.00  0.00    -0.107 C  
BRANCH  46  47
HETATM   47  C   UNL     1      -5.834  17.750  68.579  1.00  0.00    -0.176 C  
HETATM   48  C   UNL     1      -6.616  18.254  69.539  1.00  0.00    -0.165 C  
ENDBRANCH  46  47
ENDBRANCH  45  46
ENDBRANCH  23  24
ENDBRANCH  22  23
ENDBRANCH  21  22
ENDBRANCH  20  21
ENDBRANCH  19  20
ENDBRANCH  18  19
ENDBRANCH  17  18
ENDBRANCH  16  17
ENDBRANCH  15  16
ENDBRANCH  14  15
ENDBRANCH  13  14
ENDBRANCH  12  13
ENDBRANCH  11  12
ENDBRANCH  10  11
ENDBRANCH   9  10
ENDBRANCH   8   9
ENDBRANCH   7   8
ENDBRANCH   6   7
ENDBRANCH   5   6
ENDBRANCH   4   5
ENDBRANCH   3   4
ENDBRANCH   2   3
TORSDOF 24
ENDMDL
MODEL       93
REMARK 921   NORMALIZED FREE ENERGY PREDICTED BY IDOCK:   -4.05 KCAL/MOL
REMARK 922        TOTAL FREE ENERGY PREDICTED BY IDOCK:  -12.03 KCAL/MOL
REMARK 923 INTER-LIGAND FREE ENERGY PREDICTED BY IDOCK:   -9.57 KCAL/MOL
REMARK 924 INTRA-LIGAND FREE ENERGY PREDICTED BY IDOCK:   -2.46 KCAL/MOL
REMARK 927      BINDING AFFINITY PREDICTED BY RF-SCORE:    0.00 PKD
ROOT
HETATM    1  C   UNL     1      -9.747   3.766  67.878  1.00  0.00    -0.064 C  
HETATM    2  O   UNL     1      -8.979   2.731  68.476  1.00  0.00    -0.109 OA 
ENDROOT
BRANCH   2   3
HETATM    3  C   UNL     1      -8.448   3.141  69.735  1.00  0.00    -0.057 C  
BRANCH   3   4
HETATM    4  C   UNL     1      -9.590   3.554  70.651  1.00  0.00    -0.177 C  
BRANCH   4   5
HETATM    5  O   UNL     1      -9.768   2.553  71.653  1.00  0.00    -0.139 OA 
BRANCH   5   6
HETATM    6  C   UNL     1     -10.480   3.072  72.772  1.00  0.00    -0.127 C  
BRANCH   6   7
HETATM    7  C   UNL     1      -9.727   4.262  73.344  1.00  0.00    -0.121 C  
BRANCH   7   8
HETATM    8  O   UNL     1     -10.669   5.290  73.642  1.00  0.00    -0.254 OA 
BRANCH   8   9
HETATM    9  C   UNL     1     -10.037   6.561  73.736  1.00  0.00    -0.277 C  
BRANCH   9  10
HETATM   10  C   UNL     1     -10.910   7.595  73.048  1.00  0.00    -0.400 C  
BRANCH  10  11
HETATM   11  O   UNL     1     -11.742   6.929  72.107  1.00  0.00    -0.279 OA 
BRANCH  11  12
HETATM   12  C   UNL     1     -11.889   7.693  70.915  1.00  0.00    -0.250 C  
BRANCH  12  13
HETATM   13  C   UNL     1     -10.914   7.163  69.878  1.00  0.00    -0.253 C  
BRANCH  13  14
HETATM   14  O   UNL     1      -9.987   8.185  69.537  1.00  0.00    -0.179 OA 
BRANCH  14  15
HETATM   15  C   UNL     1      -9.984   8.402  68.131  1.00  0.00    -0.191 C  
BRANCH  15  16
HETATM   16  C   UNL     1      -8.756   9.200  67.728  1.00  0.00    -0.121 C  
BRANCH  16  17
HETATM   17  O   UNL     1      -8.125   9.646  68.922  1.00  0.00    -0.092 OA 
BRANCH  17  18
HETATM   18  C   UNL     1      -6.713   9.697  68.801  1.00  0.00    -0.051 C  
BRANCH  18  19
HETATM   19  C   UNL     1      -6.146  10.054  70.163  1.00  0.00    -0.070 C  
BRANCH  19  20
HETATM   20  O   UNL     1      -6.547  11.369  70.521  1.00  0.00    -0.197 OA 
BRANCH  20  21
HETATM   21  C   UNL     1      -5.434  12.257  70.620  1.00  0.00    -0.164 C  
BRANCH  21  22
HETATM   22  C   UNL     1      -5.668  13.522  69.787  1.00  0.00    -0.110 C  
BRANCH  22  23
HETATM   23  O   UNL     1      -5.294  13.432  68.389  1.00  0.00    -0.079 OA 
BRANCH  23  24
HETATM   24  C   UNL     1      -6.296  13.919  67.463  1.00  0.00    -0.029 C  
HETATM   25  C   UNL     1      -7.374  12.889  67.271  1.00  0.00    -0.077 C  
HETATM   26  C   UNL     1      -8.641  13.026  68.297  1.00  0.00    -0.167 C  
HETATM   27  C   UNL     1      -9.354  14.494  68.523  1.00  0.00    -0.203 C  
HETATM   28  C   UNL     1     -10.811  15.165  68.066  1.00  0.00    -0.284 C  
HETATM   29  O   UNL     1      -9.119  14.785  69.908  1.00  0.00    -0.393 OA 
HETATM   30  C   UNL     1     -11.156  16.569  68.571  1.00  0.00    -0.335 C  
HETATM   31  H   UNL     1      -9.530  15.632  70.038  1.00  0.00     0.000 HD 
HETATM   32  C   UNL     1      -9.929  17.384  68.245  1.00  0.00    -0.320 A  
HETATM   33  C   UNL     1      -9.821  18.717  68.593  1.00  0.00    -0.427 A  
HETATM   34  C   UNL     1      -8.592  19.359  68.597  1.00  0.00    -0.394 A  
HETATM   35  C   UNL     1      -7.406  18.643  68.268  1.00  0.00    -0.274 A  
HETATM   36  O   UNL     1      -6.193  19.208  68.512  1.00  0.00    -0.227 OA 
HETATM   37  C   UNL     1      -7.519  17.337  67.799  1.00  0.00    -0.176 A  
HETATM   38  H   UNL     1      -5.401  18.730  68.292  1.00  0.00     0.000 HD 
HETATM   39  C   UNL     1      -8.762  16.694  67.727  1.00  0.00    -0.201 A  
HETATM   40  C   UNL     1      -8.600  15.219  67.479  1.00  0.00    -0.190 C  
HETATM   41  C   UNL     1      -7.060  15.185  67.913  1.00  0.00    -0.146 C  
HETATM   42  C   UNL     1      -9.434  14.411  66.098  1.00  0.00    -0.271 C  
HETATM   43  O   UNL     1      -6.473  16.463  67.546  1.00  0.00    -0.129 OA 
HETATM   44  C   UNL     1     -11.001  13.621  66.496  1.00  0.00    -0.295 C  
HETATM   45  N   UNL     1     -11.779  14.221  67.605  1.00  0.00    -0.369 NA 
BRANCH  45  46
HETATM   46  C   UNL     1     -12.226  13.454  68.754  1.00  0.00    -0.115 C  
BRANCH  46  47
HETATM   47  C   UNL     1     -11.904  11.997  68.699  1.00  0.00    -0.366 C  
HETATM   48  C   UNL     1     -11.771  11.237  69.791  1.00  0.00    -0.422 C  
ENDBRANCH  46  47
ENDBRANCH  45  46
ENDBRANCH  23  24
ENDBRANCH  22  23
ENDBRANCH  21  22
ENDBRANCH  20  21
ENDBRANCH  19  20
ENDBRANCH  18  19
ENDBRANCH  17  18
ENDBRANCH  16  17
ENDBRANCH  15  16
ENDBRANCH  14  15
ENDBRANCH  13  14
ENDBRANCH  12  13
ENDBRANCH  11  12
ENDBRANCH  10  11
ENDBRANCH   9  10
ENDBRANCH   8   9
ENDBRANCH   7   8
ENDBRANCH   6   7
ENDBRANCH   5   6
ENDBRANCH   4   5
ENDBRANCH   3   4
ENDBRANCH   2   3
TORSDOF 24
ENDMDL
MODEL       94
REMARK 921   NORMALIZED FREE ENERGY PREDICTED BY IDOCK:   -4.05 KCAL/MOL
REMARK 922        TOTAL FREE ENERGY PREDICTED BY IDOCK:  -12.02 KCAL/MOL
REMARK 923 INTER-LIGAND FREE ENERGY PREDICTED BY IDOCK:  -10.05 KCAL/MOL
REMARK 924 INTRA-LIGAND FREE ENERGY PREDICTED BY IDOCK:   -1.97 KCAL/MOL
REMARK 927      BINDING AFFINITY PREDICTED BY RF-SCORE:    0.00 PKD
ROOT
HETATM    1  C   UNL     1     -10.660   2.072  63.515  1.00  0.00    -0.135 C  
HETATM    2  O   UNL     1     -10.541   3.474  63.319  1.00  0.00    -0.215 OA 
ENDROOT
BRANCH   2   3
HETATM    3  C   UNL     1     -10.496   4.169  64.564  1.00  0.00    -0.157 C  
BRANCH   3   4
HETATM    4  C   UNL     1      -9.515   3.472  65.494  1.00  0.00    -0.147 C  
BRANCH   4   5
HETATM    5  O   UNL     1      -9.515   4.139  66.755  1.00  0.00    -0.166 OA 
BRANCH   5   6
HETATM    6  C   UNL     1     -10.446   5.218  66.761  1.00  0.00    -0.273 C  
BRANCH   6   7
HETATM    7  C   UNL     1     -10.160   6.128  67.944  1.00  0.00    -0.153 C  
BRANCH   7   8
HETATM    8  O   UNL     1     -11.337   6.209  68.744  1.00  0.00    -0.344 OA 
BRANCH   8   9
HETATM    9  C   UNL     1     -11.020   6.239  70.131  1.00  0.00    -0.347 C  
BRANCH   9  10
HETATM   10  C   UNL     1     -11.726   7.422  70.770  1.00  0.00    -0.276 C  
BRANCH  10  11
HETATM   11  O   UNL     1     -10.910   7.921  71.821  1.00  0.00    -0.226 OA 
BRANCH  11  12
HETATM   12  C   UNL     1     -11.239   7.313  73.065  1.00  0.00    -0.264 C  
BRANCH  12  13
HETATM   13  C   UNL     1      -9.968   7.160  73.881  1.00  0.00    -0.318 C  
BRANCH  13  14
HETATM   14  O   UNL     1      -9.000   8.095  73.425  1.00  0.00    -0.254 OA 
BRANCH  14  15
HETATM   15  C   UNL     1      -7.759   7.445  73.179  1.00  0.00    -0.092 C  
BRANCH  15  16
HETATM   16  C   UNL     1      -6.918   8.270  72.220  1.00  0.00    -0.093 C  
BRANCH  16  17
HETATM   17  O   UNL     1      -7.808   9.062  71.444  1.00  0.00    -0.257 OA 
BRANCH  17  18
HETATM   18  C   UNL     1      -7.931   8.592  70.112  1.00  0.00    -0.105 C  
BRANCH  18  19
HETATM   19  C   UNL     1      -8.843   9.547  69.366  1.00  0.00    -0.170 C  
BRANCH  19  20
HETATM   20  O   UNL     1      -8.133  10.150  68.292  1.00  0.00    -0.100 OA 
BRANCH  20  21
HETATM   21  C   UNL     1      -8.581   9.674  67.024  1.00  0.00    -0.128 C  
BRANCH  21  22
HETATM   22  C   UNL     1      -8.756  10.832  66.036  1.00  0.00    -0.183 C  
BRANCH  22  23
HETATM   23  O   UNL     1      -8.447  12.152  66.553  1.00  0.00    -0.139 OA 
BRANCH  23  24
HETATM   24  C   UNL     1      -9.573  13.062  66.595  1.00  0.00    -0.259 C  
HETATM   25  C   UNL     1     -10.566  12.617  67.632  1.00  0.00    -0.232 C  
HETATM   26  C   UNL     1     -10.335  13.260  69.119  1.00  0.00     0.121 C  
HETATM   27  C   UNL     1     -10.100  14.882  69.280  1.00  0.00    -0.195 C  
HETATM   28  C   UNL     1     -11.024  16.141  69.868  1.00  0.00    -0.362 C  
HETATM   29  O   UNL     1      -8.771  14.990  69.809  1.00  0.00    -0.451 OA 
HETATM   30  C   UNL     1     -10.393  17.534  69.940  1.00  0.00     0.490 C  
HETATM   31  H   UNL     1      -8.636  15.926  69.902  1.00  0.00     0.000 HD 
HETATM   32  C   UNL     1      -9.806  17.739  68.565  1.00  0.00    -0.355 A  
HETATM   33  C   UNL     1      -9.093  18.876  68.235  1.00  0.00    -0.363 A  
HETATM   34  C   UNL     1      -8.285  18.912  67.108  1.00  0.00    -0.283 A  
HETATM   35  C   UNL     1      -8.152  17.761  66.281  1.00  0.00    -0.234 A  
HETATM   36  O   UNL     1      -7.179  17.727  65.331  1.00  0.00    -0.388 OA 
HETATM   37  C   UNL     1      -8.960  16.655  66.536  1.00  0.00    -0.277 A  
HETATM   38  H   UNL     1      -7.090  16.958  64.779  1.00  0.00     0.000 HD 
HETATM   39  C   UNL     1      -9.830  16.626  67.634  1.00  0.00    -0.256 A  
HETATM   40  C   UNL     1     -10.363  15.240  67.871  1.00  0.00    -0.246 C  
HETATM   41  C   UNL     1      -9.238  14.517  66.992  1.00  0.00    -0.240 C  
HETATM   42  C   UNL     1     -12.139  14.930  67.963  1.00  0.00    -0.105 C  
HETATM   43  O   UNL     1      -8.880  15.421  65.911  1.00  0.00    -0.212 OA 
HETATM   44  C   UNL     1     -12.832  14.895  69.623  1.00  0.00     0.188 C  
HETATM   45  N   UNL     1     -12.156  15.735  70.639  1.00  0.00    -0.389 NA 
BRANCH  45  46
HETATM   46  C   UNL     1     -11.662  15.201  71.896  1.00  0.00    -0.415 C  
BRANCH  46  47
HETATM   47  C   UNL     1     -12.449  15.600  73.100  1.00  0.00    -0.588 C  
HETATM   48  C   UNL     1     -12.153  15.187  74.336  1.00  0.00    -0.466 C  
ENDBRANCH  46  47
ENDBRANCH  45  46
ENDBRANCH  23  24
ENDBRANCH  22  23
ENDBRANCH  21  22
ENDBRANCH  20  21
ENDBRANCH  19  20
ENDBRANCH  18  19
ENDBRANCH  17  18
ENDBRANCH  16  17
ENDBRANCH  15  16
ENDBRANCH  14  15
ENDBRANCH  13  14
ENDBRANCH  12  13
ENDBRANCH  11  12
ENDBRANCH  10  11
ENDBRANCH   9  10
ENDBRANCH   8   9
ENDBRANCH   7   8
ENDBRANCH   6   7
ENDBRANCH   5   6
ENDBRANCH   4   5
ENDBRANCH   3   4
ENDBRANCH   2   3
TORSDOF 24
ENDMDL
MODEL       95
REMARK 921   NORMALIZED FREE ENERGY PREDICTED BY IDOCK:   -4.04 KCAL/MOL
REMARK 922        TOTAL FREE ENERGY PREDICTED BY IDOCK:  -12.01 KCAL/MOL
REMARK 923 INTER-LIGAND FREE ENERGY PREDICTED BY IDOCK:   -9.31 KCAL/MOL
REMARK 924 INTRA-LIGAND FREE ENERGY PREDICTED BY IDOCK:   -2.70 KCAL/MOL
REMARK 927      BINDING AFFINITY PREDICTED BY RF-SCORE:    0.00 PKD
ROOT
HETATM    1  C   UNL     1     -11.583  15.246  64.479  1.00  0.00    -0.312 C  
HETATM    2  O   UNL     1     -12.297  14.120  63.986  1.00  0.00    -0.647 OA 
ENDROOT
BRANCH   2   3
HETATM    3  C   UNL     1     -12.583  13.191  65.030  1.00  0.00    -0.438 C  
BRANCH   3   4
HETATM    4  C   UNL     1     -12.397  13.874  66.376  1.00  0.00    -0.426 C  
BRANCH   4   5
HETATM    5  O   UNL     1     -11.809  12.948  67.290  1.00  0.00    -0.362 OA 
BRANCH   5   6
HETATM    6  C   UNL     1     -11.706  13.514  68.594  1.00  0.00    -0.354 C  
BRANCH   6   7
HETATM    7  C   UNL     1     -10.294  14.032  68.811  1.00  0.00    -0.222 C  
BRANCH   7   8
HETATM    8  O   UNL     1      -9.382  13.122  68.200  1.00  0.00    -0.208 OA 
BRANCH   8   9
HETATM    9  C   UNL     1      -8.241  13.799  67.686  1.00  0.00    -0.177 C  
BRANCH   9  10
HETATM   10  C   UNL     1      -7.056  12.848  67.708  1.00  0.00    -0.137 C  
BRANCH  10  11
HETATM   11  O   UNL     1      -7.523  11.554  68.063  1.00  0.00    -0.089 OA 
BRANCH  11  12
HETATM   12  C   UNL     1      -6.442  10.674  68.349  1.00  0.00    -0.054 C  
BRANCH  12  13
HETATM   13  C   UNL     1      -6.594   9.428  67.496  1.00  0.00    -0.064 C  
BRANCH  13  14
HETATM   14  O   UNL     1      -5.665   9.476  66.421  1.00  0.00    -0.051 OA 
BRANCH  14  15
HETATM   15  C   UNL     1      -6.168   8.761  65.299  1.00  0.00    -0.060 C  
BRANCH  15  16
HETATM   16  C   UNL     1      -6.186   9.658  64.073  1.00  0.00    -0.108 C  
BRANCH  16  17
HETATM   17  O   UNL     1      -7.214   9.186  63.213  1.00  0.00    -0.092 OA 
BRANCH  17  18
HETATM   18  C   UNL     1      -8.022  10.236  62.707  1.00  0.00    -0.149 C  
BRANCH  18  19
HETATM   19  C   UNL     1      -9.401  10.095  63.325  1.00  0.00    -0.294 C  
BRANCH  19  20
HETATM   20  O   UNL     1      -9.665  11.206  64.171  1.00  0.00    -0.240 OA 
BRANCH  20  21
HETATM   21  C   UNL     1      -9.616  10.848  65.551  1.00  0.00    -0.221 C  
BRANCH  21  22
HETATM   22  C   UNL     1      -9.873   9.348  65.736  1.00  0.00    -0.275 C  
BRANCH  22  23
HETATM   23  O   UNL     1     -10.158   8.922  67.093  1.00  0.00    -0.205 OA 
BRANCH  23  24
HETATM   24  C   UNL     1     -10.459   7.513  67.233  1.00  0.00    -0.321 C  
HETATM   25  C   UNL     1      -9.459   6.688  66.472  1.00  0.00    -0.192 C  
HETATM   26  C   UNL     1      -8.155   6.220  67.342  1.00  0.00    -0.109 C  
HETATM   27  C   UNL     1      -8.364   5.548  68.831  1.00  0.00    -0.102 C  
HETATM   28  C   UNL     1      -8.201   4.007  69.447  1.00  0.00    -0.058 C  
HETATM   29  O   UNL     1      -7.736   6.478  69.724  1.00  0.00    -0.107 OA 
HETATM   30  C   UNL     1      -8.398   3.800  70.952  1.00  0.00    -0.087 C  
HETATM   31  H   UNL     1      -7.857   6.090  70.584  1.00  0.00     0.000 HD 
HETATM   32  C   UNL     1      -9.710   4.485  71.244  1.00  0.00    -0.252 A  
HETATM   33  C   UNL     1     -10.226   4.566  72.523  1.00  0.00    -0.246 A  
HETATM   34  C   UNL     1     -11.233   5.468  72.833  1.00  0.00    -0.358 A  
HETATM   35  C   UNL     1     -11.740   6.351  71.838  1.00  0.00    -0.328 A  
HETATM   36  O   UNL     1     -12.542   7.386  72.206  1.00  0.00    -0.488 OA 
HETATM   37  C   UNL     1     -11.314   6.192  70.521  1.00  0.00    -0.310 A  
HETATM   38  H   UNL     1     -12.880   7.976  71.541  1.00  0.00     0.000 HD 
HETATM   39  C   UNL     1     -10.343   5.242  70.179  1.00  0.00    -0.354 A  
HETATM   40  C   UNL     1      -9.839   5.458  68.779  1.00  0.00    -0.208 C  
HETATM   41  C   UNL     1     -10.390   6.956  68.672  1.00  0.00    -0.186 C  
HETATM   42  C   UNL     1      -9.867   4.123  67.564  1.00  0.00    -0.139 C  
HETATM   43  O   UNL     1     -11.611   7.029  69.458  1.00  0.00    -0.091 OA 
HETATM   44  C   UNL     1      -8.333   3.199  67.394  1.00  0.00    -0.084 C  
HETATM   45  N   UNL     1      -7.482   3.105  68.604  1.00  0.00    -0.049 NA 
BRANCH  45  46
HETATM   46  C   UNL     1      -6.088   3.510  68.615  1.00  0.00    -0.028 C  
BRANCH  46  47
HETATM   47  C   UNL     1      -5.510   3.807  67.271  1.00  0.00    -0.020 C  
HETATM   48  C   UNL     1      -5.230   5.046  66.854  1.00  0.00    -0.008 C  
ENDBRANCH  46  47
ENDBRANCH  45  46
ENDBRANCH  23  24
ENDBRANCH  22  23
ENDBRANCH  21  22
ENDBRANCH  20  21
ENDBRANCH  19  20
ENDBRANCH  18  19
ENDBRANCH  17  18
ENDBRANCH  16  17
ENDBRANCH  15  16
ENDBRANCH  14  15
ENDBRANCH  13  14
ENDBRANCH  12  13
ENDBRANCH  11  12
ENDBRANCH  10  11
ENDBRANCH   9  10
ENDBRANCH   8   9
ENDBRANCH   7   8
ENDBRANCH   6   7
ENDBRANCH   5   6
ENDBRANCH   4   5
ENDBRANCH   3   4
ENDBRANCH   2   3
TORSDOF 24
ENDMDL
MODEL       96
REMARK 921   NORMALIZED FREE ENERGY PREDICTED BY IDOCK:   -4.04 KCAL/MOL
REMARK 922        TOTAL FREE ENERGY PREDICTED BY IDOCK:  -12.00 KCAL/MOL
REMARK 923 INTER-LIGAND FREE ENERGY PREDICTED BY IDOCK:   -9.14 KCAL/MOL
REMARK 924 INTRA-LIGAND FREE ENERGY PREDICTED BY IDOCK:   -2.87 KCAL/MOL
REMARK 927      BINDING AFFINITY PREDICTED BY RF-SCORE:    0.00 PKD
ROOT
HETATM    1  C   UNL     1     -10.636  19.795  65.476  1.00  0.00    -0.246 C  
HETATM    2  O   UNL     1     -10.786  19.462  66.849  1.00  0.00    -0.460 OA 
ENDROOT
BRANCH   2   3
HETATM    3  C   UNL     1      -9.804  20.116  67.651  1.00  0.00    -0.429 C  
BRANCH   3   4
HETATM    4  C   UNL     1      -8.831  19.082  68.197  1.00  0.00    -0.316 C  
BRANCH   4   5
HETATM    5  O   UNL     1      -9.194  17.794  67.700  1.00  0.00    -0.246 OA 
BRANCH   5   6
HETATM    6  C   UNL     1      -8.163  17.256  66.877  1.00  0.00    -0.227 C  
BRANCH   6   7
HETATM    7  C   UNL     1      -8.420  15.776  66.645  1.00  0.00    -0.288 C  
BRANCH   7   8
HETATM    8  O   UNL     1      -8.270  15.093  67.888  1.00  0.00    -0.137 OA 
BRANCH   8   9
HETATM    9  C   UNL     1      -7.598  13.851  67.719  1.00  0.00    -0.169 C  
BRANCH   9  10
HETATM   10  C   UNL     1      -8.631  12.760  67.501  1.00  0.00    -0.187 C  
BRANCH  10  11
HETATM   11  O   UNL     1      -8.236  11.984  66.377  1.00  0.00    -0.053 OA 
BRANCH  11  12
HETATM   12  C   UNL     1      -9.341  11.716  65.520  1.00  0.00    -0.156 C  
BRANCH  12  13
HETATM   13  C   UNL     1     -10.619  12.095  66.247  1.00  0.00    -0.250 C  
BRANCH  13  14
HETATM   14  O   UNL     1     -11.162  13.272  65.664  1.00  0.00    -0.285 OA 
BRANCH  14  15
HETATM   15  C   UNL     1     -12.275  13.731  66.419  1.00  0.00    -0.436 C  
BRANCH  15  16
HETATM   16  C   UNL     1     -11.892  14.966  67.217  1.00  0.00    -0.219 C  
BRANCH  16  17
HETATM   17  O   UNL     1     -11.471  14.530  68.503  1.00  0.00    -0.271 OA 
BRANCH  17  18
HETATM   18  C   UNL     1     -12.394  13.634  69.100  1.00  0.00    -0.076 C  
BRANCH  18  19
HETATM   19  C   UNL     1     -11.603  12.654  69.947  1.00  0.00    -0.177 C  
BRANCH  19  20
HETATM   20  O   UNL     1     -12.372  12.268  71.078  1.00  0.00    -0.351 OA 
BRANCH  20  21
HETATM   21  C   UNL     1     -12.732  10.888  71.031  1.00  0.00    -0.407 C  
BRANCH  21  22
HETATM   22  C   UNL     1     -11.513  10.015  70.715  1.00  0.00    -0.356 C  
BRANCH  22  23
HETATM   23  O   UNL     1     -11.402   8.790  71.484  1.00  0.00    -0.261 OA 
BRANCH  23  24
HETATM   24  C   UNL     1     -10.234   7.990  71.178  1.00  0.00    -0.193 C  
HETATM   25  C   UNL     1     -10.623   6.786  70.366  1.00  0.00    -0.262 C  
HETATM   26  C   UNL     1     -10.564   7.007  68.746  1.00  0.00    -0.235 C  
HETATM   27  C   UNL     1      -9.230   7.691  68.063  1.00  0.00    -0.137 C  
HETATM   28  C   UNL     1      -7.977   7.116  67.123  1.00  0.00    -0.110 C  
HETATM   29  O   UNL     1      -9.718   8.913  67.494  1.00  0.00    -0.156 OA 
HETATM   30  C   UNL     1      -6.950   8.118  66.589  1.00  0.00    -0.072 C  
HETATM   31  H   UNL     1      -8.948   9.308  67.100  1.00  0.00     0.000 HD 
HETATM   32  C   UNL     1      -6.544   8.908  67.809  1.00  0.00    -0.061 A  
HETATM   33  C   UNL     1      -5.653   9.962  67.736  1.00  0.00    -0.039 A  
HETATM   34  C   UNL     1      -5.545  10.880  68.770  1.00  0.00    -0.040 A  
HETATM   35  C   UNL     1      -6.375  10.769  69.921  1.00  0.00    -0.118 A  
HETATM   36  O   UNL     1      -6.435  11.800  70.806  1.00  0.00    -0.466 OA 
HETATM   37  C   UNL     1      -7.185   9.644  70.057  1.00  0.00    -0.119 A  
HETATM   38  H   UNL     1      -6.990  11.725  71.574  1.00  0.00     0.000 HD 
HETATM   39  C   UNL     1      -7.258   8.673  69.049  1.00  0.00    -0.072 A  
HETATM   40  C   UNL     1      -8.403   7.726  69.287  1.00  0.00    -0.136 C  
HETATM   41  C   UNL     1      -9.152   8.688  70.324  1.00  0.00    -0.162 C  
HETATM   42  C   UNL     1      -8.138   5.942  69.345  1.00  0.00    -0.109 C  
HETATM   43  O   UNL     1      -8.133   9.432  71.045  1.00  0.00    -0.300 OA 
HETATM   44  C   UNL     1      -8.442   5.065  67.803  1.00  0.00    -0.104 C  
HETATM   45  N   UNL     1      -8.207   5.826  66.553  1.00  0.00    -0.106 NA 
BRANCH  45  46
HETATM   46  C   UNL     1      -9.221   5.976  65.525  1.00  0.00     0.116 C  
BRANCH  46  47
HETATM   47  C   UNL     1      -9.891   4.706  65.114  1.00  0.00    -0.106 C  
HETATM   48  C   UNL     1      -9.218   3.615  64.734  1.00  0.00    -0.145 C  
ENDBRANCH  46  47
ENDBRANCH  45  46
ENDBRANCH  23  24
ENDBRANCH  22  23
ENDBRANCH  21  22
ENDBRANCH  20  21
ENDBRANCH  19  20
ENDBRANCH  18  19
ENDBRANCH  17  18
ENDBRANCH  16  17
ENDBRANCH  15  16
ENDBRANCH  14  15
ENDBRANCH  13  14
ENDBRANCH  12  13
ENDBRANCH  11  12
ENDBRANCH  10  11
ENDBRANCH   9  10
ENDBRANCH   8   9
ENDBRANCH   7   8
ENDBRANCH   6   7
ENDBRANCH   5   6
ENDBRANCH   4   5
ENDBRANCH   3   4
ENDBRANCH   2   3
TORSDOF 24
ENDMDL
MODEL       97
REMARK 921   NORMALIZED FREE ENERGY PREDICTED BY IDOCK:   -4.04 KCAL/MOL
REMARK 922        TOTAL FREE ENERGY PREDICTED BY IDOCK:  -11.99 KCAL/MOL
REMARK 923 INTER-LIGAND FREE ENERGY PREDICTED BY IDOCK:  -10.12 KCAL/MOL
REMARK 924 INTRA-LIGAND FREE ENERGY PREDICTED BY IDOCK:   -1.87 KCAL/MOL
REMARK 927      BINDING AFFINITY PREDICTED BY RF-SCORE:    0.00 PKD
ROOT
HETATM    1  C   UNL     1     -10.405   2.035  63.258  1.00  0.00    -0.141 C  
HETATM    2  O   UNL     1      -9.819   3.129  62.567  1.00  0.00    -0.092 OA 
ENDROOT
BRANCH   2   3
HETATM    3  C   UNL     1      -9.382   4.141  63.472  1.00  0.00    -0.140 C  
BRANCH   3   4
HETATM    4  C   UNL     1      -8.631   3.493  64.626  1.00  0.00    -0.101 C  
BRANCH   4   5
HETATM    5  O   UNL     1      -8.709   4.344  65.768  1.00  0.00    -0.117 OA 
BRANCH   5   6
HETATM    6  C   UNL     1     -10.064   4.642  66.091  1.00  0.00    -0.266 C  
BRANCH   6   7
HETATM    7  C   UNL     1     -10.137   5.999  66.771  1.00  0.00    -0.187 C  
BRANCH   7   8
HETATM    8  O   UNL     1     -11.275   6.010  67.630  1.00  0.00    -0.234 OA 
BRANCH   8   9
HETATM    9  C   UNL     1     -10.934   6.458  68.937  1.00  0.00    -0.346 C  
BRANCH   9  10
HETATM   10  C   UNL     1      -9.985   7.638  68.819  1.00  0.00    -0.174 C  
BRANCH  10  11
HETATM   11  O   UNL     1      -9.034   7.558  69.874  1.00  0.00    -0.141 OA 
BRANCH  11  12
HETATM   12  C   UNL     1      -9.674   7.397  71.135  1.00  0.00    -0.163 C  
BRANCH  12  13
HETATM   13  C   UNL     1      -8.970   8.281  72.150  1.00  0.00    -0.209 C  
BRANCH  13  14
HETATM   14  O   UNL     1      -8.018   9.099  71.483  1.00  0.00    -0.335 OA 
BRANCH  14  15
HETATM   15  C   UNL     1      -6.696   8.702  71.828  1.00  0.00    -0.082 C  
BRANCH  15  16
HETATM   16  C   UNL     1      -5.693   9.714  71.303  1.00  0.00    -0.075 C  
BRANCH  16  17
HETATM   17  O   UNL     1      -5.552   9.491  69.906  1.00  0.00    -0.032 OA 
BRANCH  17  18
HETATM   18  C   UNL     1      -5.443   8.114  69.586  1.00  0.00    -0.026 C  
BRANCH  18  19
HETATM   19  C   UNL     1      -5.958   7.926  68.172  1.00  0.00    -0.041 C  
BRANCH  19  20
HETATM   20  O   UNL     1      -5.353   8.880  67.309  1.00  0.00    -0.033 OA 
BRANCH  20  21
HETATM   21  C   UNL     1      -6.176   9.175  66.181  1.00  0.00    -0.064 C  
BRANCH  21  22
HETATM   22  C   UNL     1      -6.268  10.687  65.952  1.00  0.00    -0.134 C  
BRANCH  22  23
HETATM   23  O   UNL     1      -6.479  11.491  67.141  1.00  0.00    -0.096 OA 
BRANCH  23  24
HETATM   24  C   UNL     1      -7.862  11.607  67.554  1.00  0.00    -0.137 C  
HETATM   25  C   UNL     1      -7.989  12.588  68.685  1.00  0.00    -0.029 C  
HETATM   26  C   UNL     1      -8.279  14.131  68.222  1.00  0.00    -0.148 C  
HETATM   27  C   UNL     1      -9.464  14.444  67.121  1.00  0.00    -0.222 C  
HETATM   28  C   UNL     1     -10.978  15.137  67.204  1.00  0.00    -0.326 C  
HETATM   29  O   UNL     1      -8.759  14.994  65.999  1.00  0.00    -0.432 OA 
HETATM   30  C   UNL     1     -11.756  15.344  65.901  1.00  0.00     0.208 C  
HETATM   31  H   UNL     1      -9.442  15.174  65.363  1.00  0.00     0.000 HD 
HETATM   32  C   UNL     1     -11.688  14.000  65.219  1.00  0.00    -0.349 A  
HETATM   33  C   UNL     1     -12.238  13.783  63.970  1.00  0.00    -0.429 A  
HETATM   34  C   UNL     1     -11.887  12.672  63.217  1.00  0.00    -0.504 A  
HETATM   35  C   UNL     1     -10.927  11.743  63.709  1.00  0.00    -0.429 A  
HETATM   36  O   UNL     1     -10.413  10.804  62.870  1.00  0.00    -0.747 OA 
HETATM   37  C   UNL     1     -10.462  11.887  65.014  1.00  0.00    -0.289 A  
HETATM   38  H   UNL     1      -9.772  10.184  63.198  1.00  0.00     0.000 HD 
HETATM   39  C   UNL     1     -10.856  12.970  65.812  1.00  0.00    -0.292 A  
HETATM   40  C   UNL     1     -10.006  13.071  67.049  1.00  0.00    -0.242 C  
HETATM   41  C   UNL     1      -8.836  12.140  66.480  1.00  0.00    -0.151 C  
HETATM   42  C   UNL     1     -10.756  13.118  68.691  1.00  0.00    -0.274 C  
HETATM   43  O   UNL     1      -9.449  11.151  65.608  1.00  0.00    -0.208 OA 
HETATM   44  C   UNL     1     -11.004  14.760  69.381  1.00  0.00    -0.265 C  
HETATM   45  N   UNL     1     -11.236  15.856  68.411  1.00  0.00    -0.353 NA 
BRANCH  45  46
HETATM   46  C   UNL     1     -10.428  17.063  68.384  1.00  0.00    -0.370 C  
BRANCH  46  47
HETATM   47  C   UNL     1     -10.606  17.910  67.168  1.00  0.00    -0.315 C  
HETATM   48  C   UNL     1     -10.784  19.234  67.219  1.00  0.00    -0.594 C  
ENDBRANCH  46  47
ENDBRANCH  45  46
ENDBRANCH  23  24
ENDBRANCH  22  23
ENDBRANCH  21  22
ENDBRANCH  20  21
ENDBRANCH  19  20
ENDBRANCH  18  19
ENDBRANCH  17  18
ENDBRANCH  16  17
ENDBRANCH  15  16
ENDBRANCH  14  15
ENDBRANCH  13  14
ENDBRANCH  12  13
ENDBRANCH  11  12
ENDBRANCH  10  11
ENDBRANCH   9  10
ENDBRANCH   8   9
ENDBRANCH   7   8
ENDBRANCH   6   7
ENDBRANCH   5   6
ENDBRANCH   4   5
ENDBRANCH   3   4
ENDBRANCH   2   3
TORSDOF 24
ENDMDL
MODEL       98
REMARK 921   NORMALIZED FREE ENERGY PREDICTED BY IDOCK:   -4.03 KCAL/MOL
REMARK 922        TOTAL FREE ENERGY PREDICTED BY IDOCK:  -11.97 KCAL/MOL
REMARK 923 INTER-LIGAND FREE ENERGY PREDICTED BY IDOCK:  -10.97 KCAL/MOL
REMARK 924 INTRA-LIGAND FREE ENERGY PREDICTED BY IDOCK:   -1.00 KCAL/MOL
REMARK 927      BINDING AFFINITY PREDICTED BY RF-SCORE:    0.00 PKD
ROOT
HETATM    1  C   UNL     1      -5.250   8.803  63.566  1.00  0.00    -0.062 C  
HETATM    2  O   UNL     1      -5.788   9.632  64.587  1.00  0.00    -0.072 OA 
ENDROOT
BRANCH   2   3
HETATM    3  C   UNL     1      -6.586   8.879  65.498  1.00  0.00    -0.068 C  
BRANCH   3   4
HETATM    4  C   UNL     1      -7.972   9.502  65.586  1.00  0.00    -0.108 C  
BRANCH   4   5
HETATM    5  O   UNL     1      -8.548   9.177  66.850  1.00  0.00    -0.121 OA 
BRANCH   5   6
HETATM    6  C   UNL     1      -9.533   8.157  66.715  1.00  0.00    -0.198 C  
BRANCH   6   7
HETATM    7  C   UNL     1      -9.014   6.866  67.326  1.00  0.00    -0.118 C  
BRANCH   7   8
HETATM    8  O   UNL     1      -9.478   6.787  68.672  1.00  0.00    -0.134 OA 
BRANCH   8   9
HETATM    9  C   UNL     1     -10.893   6.657  68.725  1.00  0.00    -0.267 C  
BRANCH   9  10
HETATM   10  C   UNL     1     -11.393   7.262  70.026  1.00  0.00    -0.166 C  
BRANCH  10  11
HETATM   11  O   UNL     1     -10.279   7.791  70.734  1.00  0.00    -0.196 OA 
BRANCH  11  12
HETATM   12  C   UNL     1     -10.699   8.576  71.844  1.00  0.00    -0.324 C  
BRANCH  12  13
HETATM   13  C   UNL     1     -12.159   8.271  72.128  1.00  0.00    -0.367 C  
BRANCH  13  14
HETATM   14  O   UNL     1     -12.816   9.459  72.546  1.00  0.00    -0.349 OA 
BRANCH  14  15
HETATM   15  C   UNL     1     -13.304  10.178  71.420  1.00  0.00    -0.325 C  
BRANCH  15  16
HETATM   16  C   UNL     1     -12.925  11.645  71.532  1.00  0.00    -0.358 C  
BRANCH  16  17
HETATM   17  O   UNL     1     -13.798  12.241  72.482  1.00  0.00    -0.187 OA 
BRANCH  17  18
HETATM   18  C   UNL     1     -13.403  13.559  72.828  1.00  0.00    -0.289 C  
BRANCH  18  19
HETATM   19  C   UNL     1     -14.400  14.518  72.205  1.00  0.00    -0.420 C  
BRANCH  19  20
HETATM   20  O   UNL     1     -14.048  15.856  72.531  1.00  0.00    -0.503 OA 
BRANCH  20  21
HETATM   21  C   UNL     1     -12.635  16.023  72.637  1.00  0.00    -0.463 C  
BRANCH  21  22
HETATM   22  C   UNL     1     -11.969  15.938  71.259  1.00  0.00    -0.442 C  
BRANCH  22  23
HETATM   23  O   UNL     1     -11.171  14.750  71.020  1.00  0.00    -0.209 OA 
BRANCH  23  24
HETATM   24  C   UNL     1     -10.223  14.869  69.931  1.00  0.00     0.008 C  
HETATM   25  C   UNL     1     -10.232  13.622  69.093  1.00  0.00     0.099 C  
HETATM   26  C   UNL     1     -11.275  13.654  67.832  1.00  0.00    -0.300 C  
HETATM   27  C   UNL     1     -11.304  14.961  66.829  1.00  0.00    -0.328 C  
HETATM   28  C   UNL     1     -10.808  15.237  65.260  1.00  0.00    -0.403 C  
HETATM   29  O   UNL     1     -12.618  15.507  67.007  1.00  0.00     0.590 OA 
HETATM   30  C   UNL     1     -11.108  16.601  64.632  1.00  0.00    -0.042 C  
HETATM   31  H   UNL     1     -12.634  16.261  66.429  1.00  0.00     0.000 HD 
HETATM   32  C   UNL     1     -10.613  17.591  65.659  1.00  0.00    -0.144 A  
HETATM   33  C   UNL     1     -10.750  18.955  65.487  1.00  0.00    -0.061 A  
HETATM   34  C   UNL     1     -10.608  19.828  66.555  1.00  0.00    -0.580 A  
HETATM   35  C   UNL     1     -10.344  19.330  67.862  1.00  0.00    -0.417 A  
HETATM   36  O   UNL     1     -10.451  20.164  68.932  1.00  0.00    -0.535 OA 
HETATM   37  C   UNL     1     -10.084  17.971  68.022  1.00  0.00    -0.365 A  
HETATM   38  H   UNL     1     -10.275  19.831  69.804  1.00  0.00     0.000 HD 
HETATM   39  C   UNL     1     -10.160  17.083  66.940  1.00  0.00    -0.298 A  
HETATM   40  C   UNL     1     -10.133  15.653  67.407  1.00  0.00    -0.251 C  
HETATM   41  C   UNL     1     -10.505  16.005  68.923  1.00  0.00    -0.245 C  
HETATM   42  C   UNL     1      -8.925  14.484  66.751  1.00  0.00    -0.270 C  
HETATM   43  O   UNL     1      -9.926  17.303  69.226  1.00  0.00    -0.236 OA 
HETATM   44  C   UNL     1      -9.500  13.461  65.387  1.00  0.00     0.265 C  
HETATM   45  N   UNL     1     -10.535  14.054  64.508  1.00  0.00    -0.376 NA 
BRANCH  45  46
HETATM   46  C   UNL     1     -11.804  13.401  64.241  1.00  0.00    -0.423 C  
BRANCH  46  47
HETATM   47  C   UNL     1     -11.695  12.053  63.609  1.00  0.00    -0.587 C  
HETATM   48  C   UNL     1     -10.538  11.538  63.180  1.00  0.00    -0.323 C  
ENDBRANCH  46  47
ENDBRANCH  45  46
ENDBRANCH  23  24
ENDBRANCH  22  23
ENDBRANCH  21  22
ENDBRANCH  20  21
ENDBRANCH  19  20
ENDBRANCH  18  19
ENDBRANCH  17  18
ENDBRANCH  16  17
ENDBRANCH  15  16
ENDBRANCH  14  15
ENDBRANCH  13  14
ENDBRANCH  12  13
ENDBRANCH  11  12
ENDBRANCH  10  11
ENDBRANCH   9  10
ENDBRANCH   8   9
ENDBRANCH   7   8
ENDBRANCH   6   7
ENDBRANCH   5   6
ENDBRANCH   4   5
ENDBRANCH   3   4
ENDBRANCH   2   3
TORSDOF 24
ENDMDL
MODEL       99
REMARK 921   NORMALIZED FREE ENERGY PREDICTED BY IDOCK:   -4.02 KCAL/MOL
REMARK 922        TOTAL FREE ENERGY PREDICTED BY IDOCK:  -11.96 KCAL/MOL
REMARK 923 INTER-LIGAND FREE ENERGY PREDICTED BY IDOCK:   -9.86 KCAL/MOL
REMARK 924 INTRA-LIGAND FREE ENERGY PREDICTED BY IDOCK:   -2.10 KCAL/MOL
REMARK 927      BINDING AFFINITY PREDICTED BY RF-SCORE:    0.00 PKD
ROOT
HETATM    1  C   UNL     1     -11.276  16.180  64.990  1.00  0.00    -0.220 C  
HETATM    2  O   UNL     1     -11.090  17.574  64.792  1.00  0.00    -0.959 OA 
ENDROOT
BRANCH   2   3
HETATM    3  C   UNL     1     -10.464  18.180  65.921  1.00  0.00    -0.283 C  
BRANCH   3   4
HETATM    4  C   UNL     1     -10.742  19.676  65.908  1.00  0.00    -0.413 C  
BRANCH   4   5
HETATM    5  O   UNL     1      -9.971  20.301  66.933  1.00  0.00    -0.431 OA 
BRANCH   5   6
HETATM    6  C   UNL     1      -8.583  20.280  66.612  1.00  0.00    -0.223 C  
BRANCH   6   7
HETATM    7  C   UNL     1      -7.784  19.876  67.840  1.00  0.00    -0.294 C  
BRANCH   7   8
HETATM    8  O   UNL     1      -6.434  20.296  67.657  1.00  0.00    -0.221 OA 
BRANCH   8   9
HETATM    9  C   UNL     1      -5.583  19.193  67.365  1.00  0.00    -0.165 C  
BRANCH   9  10
HETATM   10  C   UNL     1      -6.175  17.939  67.985  1.00  0.00    -0.169 C  
BRANCH  10  11
HETATM   11  O   UNL     1      -5.853  16.831  67.156  1.00  0.00    -0.145 OA 
BRANCH  11  12
HETATM   12  C   UNL     1      -6.916  15.886  67.119  1.00  0.00    -0.192 C  
BRANCH  12  13
HETATM   13  C   UNL     1      -7.836  16.147  68.299  1.00  0.00    -0.153 C  
BRANCH  13  14
HETATM   14  O   UNL     1      -9.180  15.900  67.912  1.00  0.00    -0.197 OA 
BRANCH  14  15
HETATM   15  C   UNL     1      -9.464  14.507  67.967  1.00  0.00    -0.209 C  
BRANCH  15  16
HETATM   16  C   UNL     1     -10.753  14.266  68.733  1.00  0.00    -0.254 C  
BRANCH  16  17
HETATM   17  O   UNL     1     -11.357  15.533  68.964  1.00  0.00    -0.281 OA 
BRANCH  17  18
HETATM   18  C   UNL     1     -12.359  15.480  69.966  1.00  0.00    -0.317 C  
BRANCH  18  19
HETATM   19  C   UNL     1     -12.334  14.089  70.571  1.00  0.00    -0.367 C  
BRANCH  19  20
HETATM   20  O   UNL     1     -13.330  13.987  71.580  1.00  0.00    -0.342 OA 
BRANCH  20  21
HETATM   21  C   UNL     1     -13.548  12.634  71.976  1.00  0.00    -0.332 C  
BRANCH  21  22
HETATM   22  C   UNL     1     -12.921  11.661  70.972  1.00  0.00    -0.135 C  
BRANCH  22  23
HETATM   23  O   UNL     1     -11.597  11.174  71.311  1.00  0.00     0.201 OA 
BRANCH  23  24
HETATM   24  C   UNL     1     -11.213   9.950  70.639  1.00  0.00    -0.344 C  
HETATM   25  C   UNL     1     -11.696   9.963  69.216  1.00  0.00     0.123 C  
HETATM   26  C   UNL     1     -10.628  10.575  68.137  1.00  0.00    -0.240 C  
HETATM   27  C   UNL     1      -9.063  10.059  68.155  1.00  0.00    -0.121 C  
HETATM   28  C   UNL     1      -8.143   9.092  67.155  1.00  0.00    -0.109 C  
HETATM   29  O   UNL     1      -8.313  11.236  68.487  1.00  0.00    -0.144 OA 
HETATM   30  C   UNL     1      -6.654   8.926  67.472  1.00  0.00    -0.062 C  
HETATM   31  H   UNL     1      -7.410  10.939  68.497  1.00  0.00     0.000 HD 
HETATM   32  C   UNL     1      -6.632   8.562  68.936  1.00  0.00    -0.053 A  
HETATM   33  C   UNL     1      -5.450   8.375  69.626  1.00  0.00    -0.030 A  
HETATM   34  C   UNL     1      -5.423   8.376  71.013  1.00  0.00    -0.032 A  
HETATM   35  C   UNL     1      -6.617   8.600  71.756  1.00  0.00    -0.075 A  
HETATM   36  O   UNL     1      -6.540   8.843  73.092  1.00  0.00    -0.306 OA 
HETATM   37  C   UNL     1      -7.829   8.667  71.073  1.00  0.00    -0.111 A  
HETATM   38  H   UNL     1      -7.336   8.993  73.588  1.00  0.00     0.000 HD 
HETATM   39  C   UNL     1      -7.881   8.603  69.674  1.00  0.00    -0.094 A  
HETATM   40  C   UNL     1      -9.240   8.991  69.161  1.00  0.00    -0.144 C  
HETATM   41  C   UNL     1      -9.692   9.704  70.520  1.00  0.00    -0.217 C  
HETATM   42  C   UNL     1     -10.166   7.899  68.062  1.00  0.00    -0.256 C  
HETATM   43  O   UNL     1      -9.060   8.994  71.619  1.00  0.00    -0.300 OA 
HETATM   44  C   UNL     1     -10.000   8.248  66.304  1.00  0.00    -0.109 C  
HETATM   45  N   UNL     1      -8.718   8.852  65.870  1.00  0.00    -0.159 NA 
BRANCH  45  46
HETATM   46  C   UNL     1      -8.651  10.094  65.120  1.00  0.00    -0.164 C  
BRANCH  46  47
HETATM   47  C   UNL     1      -9.949  10.548  64.541  1.00  0.00    -0.413 C  
HETATM   48  C   UNL     1     -10.065  11.042  63.304  1.00  0.00    -0.400 C  
ENDBRANCH  46  47
ENDBRANCH  45  46
ENDBRANCH  23  24
ENDBRANCH  22  23
ENDBRANCH  21  22
ENDBRANCH  20  21
ENDBRANCH  19  20
ENDBRANCH  18  19
ENDBRANCH  17  18
ENDBRANCH  16  17
ENDBRANCH  15  16
ENDBRANCH  14  15
ENDBRANCH  13  14
ENDBRANCH  12  13
ENDBRANCH  11  12
ENDBRANCH  10  11
ENDBRANCH   9  10
ENDBRANCH   8   9
ENDBRANCH   7   8
ENDBRANCH   6   7
ENDBRANCH   5   6
ENDBRANCH   4   5
ENDBRANCH   3   4
ENDBRANCH   2   3
TORSDOF 24
ENDMDL
MODEL      100
REMARK 921   NORMALIZED FREE ENERGY PREDICTED BY IDOCK:   -4.01 KCAL/MOL
REMARK 922        TOTAL FREE ENERGY PREDICTED BY IDOCK:  -11.93 KCAL/MOL
REMARK 923 INTER-LIGAND FREE ENERGY PREDICTED BY IDOCK:   -9.91 KCAL/MOL
REMARK 924 INTRA-LIGAND FREE ENERGY PREDICTED BY IDOCK:   -2.02 KCAL/MOL
REMARK 927      BINDING AFFINITY PREDICTED BY RF-SCORE:    0.00 PKD
ROOT
HETATM    1  C   UNL     1      -8.014   8.116  74.175  1.00  0.00    -0.249 C  
HETATM    2  O   UNL     1      -9.260   8.152  73.493  1.00  0.00    -0.264 OA 
ENDROOT
BRANCH   2   3
HETATM    3  C   UNL     1      -9.085   8.000  72.085  1.00  0.00    -0.168 C  
BRANCH   3   4
HETATM    4  C   UNL     1      -8.480   6.634  71.798  1.00  0.00    -0.119 C  
BRANCH   4   5
HETATM    5  O   UNL     1      -9.164   6.045  70.693  1.00  0.00    -0.148 OA 
BRANCH   5   6
HETATM    6  C   UNL     1      -9.811   7.041  69.904  1.00  0.00    -0.170 C  
BRANCH   6   7
HETATM    7  C   UNL     1     -11.056   6.450  69.264  1.00  0.00    -0.373 C  
BRANCH   7   8
HETATM    8  O   UNL     1     -10.650   5.483  68.299  1.00  0.00    -0.195 OA 
BRANCH   8   9
HETATM    9  C   UNL     1     -10.781   5.986  66.974  1.00  0.00    -0.337 C  
BRANCH   9  10
HETATM   10  C   UNL     1      -9.884   5.178  66.052  1.00  0.00    -0.163 C  
BRANCH  10  11
HETATM   11  O   UNL     1     -10.707   4.403  65.189  1.00  0.00    -0.255 OA 
BRANCH  11  12
HETATM   12  C   UNL     1      -9.942   3.443  64.470  1.00  0.00    -0.145 C  
BRANCH  12  13
HETATM   13  C   UNL     1      -9.786   3.924  63.038  1.00  0.00    -0.154 C  
BRANCH  13  14
HETATM   14  O   UNL     1      -8.425   4.251  62.796  1.00  0.00    -0.083 OA 
BRANCH  14  15
HETATM   15  C   UNL     1      -8.258   5.662  62.734  1.00  0.00    -0.103 C  
BRANCH  15  16
HETATM   16  C   UNL     1      -6.944   6.062  63.382  1.00  0.00    -0.045 C  
BRANCH  16  17
HETATM   17  O   UNL     1      -6.920   7.482  63.458  1.00  0.00    -0.056 OA 
BRANCH  17  18
HETATM   18  C   UNL     1      -8.005   8.080  62.769  1.00  0.00    -0.151 C  
BRANCH  18  19
HETATM   19  C   UNL     1      -8.463   9.278  63.579  1.00  0.00    -0.197 C  
BRANCH  19  20
HETATM   20  O   UNL     1      -8.024   9.145  64.924  1.00  0.00    -0.112 OA 
BRANCH  20  21
HETATM   21  C   UNL     1      -9.099   8.823  65.805  1.00  0.00    -0.212 C  
BRANCH  21  22
HETATM   22  C   UNL     1      -9.164   9.814  66.972  1.00  0.00    -0.142 C  
BRANCH  22  23
HETATM   23  O   UNL     1     -10.281   9.641  67.882  1.00  0.00    -0.174 OA 
BRANCH  23  24
HETATM   24  C   UNL     1     -10.988  10.862  68.211  1.00  0.00    -0.239 C  
HETATM   25  C   UNL     1     -10.284  11.588  69.322  1.00  0.00     0.049 C  
HETATM   26  C   UNL     1      -9.172  12.683  68.828  1.00  0.00     0.150 C  
HETATM   27  C   UNL     1      -9.563  13.771  67.655  1.00  0.00    -0.219 C  
HETATM   28  C   UNL     1      -9.862  15.412  67.641  1.00  0.00    -0.220 C  
HETATM   29  O   UNL     1      -8.681  13.447  66.571  1.00  0.00    -0.440 OA 
HETATM   30  C   UNL     1     -10.103  16.096  66.292  1.00  0.00    -0.337 C  
HETATM   31  H   UNL     1      -8.907  14.075  65.894  1.00  0.00     0.000 HD 
HETATM   32  C   UNL     1     -11.150  15.235  65.629  1.00  0.00    -0.308 A  
HETATM   33  C   UNL     1     -11.609  15.492  64.352  1.00  0.00    -0.258 A  
HETATM   34  C   UNL     1     -12.301  14.529  63.632  1.00  0.00     0.285 A  
HETATM   35  C   UNL     1     -12.527  13.239  64.189  1.00  0.00    -0.260 A  
HETATM   36  O   UNL     1     -12.982  12.235  63.392  1.00  0.00    -0.753 OA 
HETATM   37  C   UNL     1     -12.177  13.012  65.518  1.00  0.00    -0.469 A  
HETATM   38  H   UNL     1     -13.133  11.374  63.764  1.00  0.00     0.000 HD 
HETATM   39  C   UNL     1     -11.534  13.996  66.281  1.00  0.00    -0.358 A  
HETATM   40  C   UNL     1     -10.998  13.427  67.565  1.00  0.00    -0.284 C  
HETATM   41  C   UNL     1     -11.079  11.905  67.075  1.00  0.00    -0.302 C  
HETATM   42  C   UNL     1     -11.430  14.156  69.158  1.00  0.00    -0.338 C  
HETATM   43  O   UNL     1     -12.217  11.794  66.179  1.00  0.00    -0.336 OA 
HETATM   44  C   UNL     1     -10.242  15.336  69.816  1.00  0.00    -0.229 C  
HETATM   45  N   UNL     1      -9.450  16.100  68.823  1.00  0.00    -0.220 NA 
BRANCH  45  46
HETATM   46  C   UNL     1      -7.998  16.127  68.832  1.00  0.00    -0.223 C  
BRANCH  46  47
HETATM   47  C   UNL     1      -7.395  17.490  68.753  1.00  0.00    -0.260 C  
HETATM   48  C   UNL     1      -8.048  18.551  68.266  1.00  0.00    -0.324 C  
ENDBRANCH  46  47
ENDBRANCH  45  46
ENDBRANCH  23  24
ENDBRANCH  22  23
ENDBRANCH  21  22
ENDBRANCH  20  21
ENDBRANCH  19  20
ENDBRANCH  18  19
ENDBRANCH  17  18
ENDBRANCH  16  17
ENDBRANCH  15  16
ENDBRANCH  14  15
ENDBRANCH  13  14
ENDBRANCH  12  13
ENDBRANCH  11  12
ENDBRANCH  10  11
ENDBRANCH   9  10
ENDBRANCH   8   9
ENDBRANCH   7   8
ENDBRANCH   6   7
ENDBRANCH   5   6
ENDBRANCH   4   5
ENDBRANCH   3   4
ENDBRANCH   2   3
TORSDOF 24
ENDMDL
MODEL      101
REMARK 921   NORMALIZED FREE ENERGY PREDICTED BY IDOCK:   -3.99 KCAL/MOL
REMARK 922        TOTAL FREE ENERGY PREDICTED BY IDOCK:  -11.87 KCAL/MOL
REMARK 923 INTER-LIGAND FREE ENERGY PREDICTED BY IDOCK:  -10.20 KCAL/MOL
REMARK 924 INTRA-LIGAND FREE ENERGY PREDICTED BY IDOCK:   -1.67 KCAL/MOL
REMARK 927      BINDING AFFINITY PREDICTED BY RF-SCORE:    0.00 PKD
ROOT
HETATM    1  C   UNL     1     -10.527   7.333  66.806  1.00  0.00    -0.241 C  
HETATM    2  O   UNL     1     -11.279   6.247  67.330  1.00  0.00    -0.328 OA 
ENDROOT
BRANCH   2   3
HETATM    3  C   UNL     1     -11.017   6.057  68.719  1.00  0.00    -0.312 C  
BRANCH   3   4
HETATM    4  C   UNL     1      -9.721   5.276  68.884  1.00  0.00    -0.148 C  
BRANCH   4   5
HETATM    5  O   UNL     1      -8.808   6.048  69.663  1.00  0.00    -0.130 OA 
BRANCH   5   6
HETATM    6  C   UNL     1      -7.491   5.977  69.124  1.00  0.00    -0.086 C  
BRANCH   6   7
HETATM    7  C   UNL     1      -7.029   4.529  69.104  1.00  0.00    -0.051 C  
BRANCH   7   8
HETATM    8  O   UNL     1      -6.839   4.099  70.450  1.00  0.00    -0.032 OA 
BRANCH   8   9
HETATM    9  C   UNL     1      -5.764   4.796  71.070  1.00  0.00    -0.016 C  
BRANCH   9  10
HETATM   10  C   UNL     1      -6.064   4.944  72.551  1.00  0.00    -0.029 C  
BRANCH  10  11
HETATM   11  O   UNL     1      -7.470   5.080  72.715  1.00  0.00    -0.090 OA 
BRANCH  11  12
HETATM   12  C   UNL     1      -7.927   4.375  73.863  1.00  0.00    -0.093 C  
BRANCH  12  13
HETATM   13  C   UNL     1      -9.354   3.917  73.612  1.00  0.00    -0.103 C  
BRANCH  13  14
HETATM   14  O   UNL     1     -10.252   4.961  73.960  1.00  0.00    -0.181 OA 
BRANCH  14  15
HETATM   15  C   UNL     1     -11.282   5.074  72.985  1.00  0.00    -0.310 C  
BRANCH  15  16
HETATM   16  C   UNL     1     -11.289   6.471  72.391  1.00  0.00    -0.279 C  
BRANCH  16  17
HETATM   17  O   UNL     1     -12.623   6.759  71.991  1.00  0.00    -0.308 OA 
BRANCH  17  18
HETATM   18  C   UNL     1     -12.735   8.016  71.344  1.00  0.00    -0.280 C  
BRANCH  18  19
HETATM   19  C   UNL     1     -13.726   8.854  72.131  1.00  0.00    -0.474 C  
BRANCH  19  20
HETATM   20  O   UNL     1     -13.433  10.233  71.958  1.00  0.00    -0.393 OA 
BRANCH  20  21
HETATM   21  C   UNL     1     -12.247  10.434  71.191  1.00  0.00    -0.394 C  
BRANCH  21  22
HETATM   22  C   UNL     1     -12.361  11.694  70.326  1.00  0.00    -0.258 C  
BRANCH  22  23
HETATM   23  O   UNL     1     -12.120  12.950  71.010  1.00  0.00    -0.231 OA 
BRANCH  23  24
HETATM   24  C   UNL     1     -12.234  14.126  70.172  1.00  0.00    -0.351 C  
HETATM   25  C   UNL     1     -11.423  15.254  70.744  1.00  0.00    -0.361 C  
HETATM   26  C   UNL     1      -9.885  15.340  70.192  1.00  0.00     0.030 C  
HETATM   27  C   UNL     1      -9.592  15.252  68.573  1.00  0.00    -0.211 C  
HETATM   28  C   UNL     1      -9.114  16.351  67.414  1.00  0.00    -0.199 C  
HETATM   29  O   UNL     1      -8.823  14.050  68.424  1.00  0.00    -0.179 OA 
HETATM   30  C   UNL     1      -8.849  15.843  65.994  1.00  0.00    -0.298 C  
HETATM   31  H   UNL     1      -8.655  13.999  67.490  1.00  0.00     0.000 HD 
HETATM   32  C   UNL     1     -10.079  15.036  65.662  1.00  0.00    -0.390 A  
HETATM   33  C   UNL     1     -10.209  14.357  64.465  1.00  0.00     0.144 A  
HETATM   34  C   UNL     1     -11.165  13.364  64.305  1.00  0.00    -0.406 A  
HETATM   35  C   UNL     1     -12.017  13.005  65.388  1.00  0.00    -0.414 A  
HETATM   36  O   UNL     1     -12.773  11.878  65.300  1.00  0.00    -0.104 OA 
HETATM   37  C   UNL     1     -11.977  13.766  66.554  1.00  0.00    -0.434 A  
HETATM   38  H   UNL     1     -13.342  11.638  66.022  1.00  0.00     0.000 HD 
HETATM   39  C   UNL     1     -11.060  14.814  66.708  1.00  0.00    -0.338 A  
HETATM   40  C   UNL     1     -11.004  15.283  68.137  1.00  0.00    -0.292 C  
HETATM   41  C   UNL     1     -11.701  13.971  68.730  1.00  0.00    -0.353 C  
HETATM   42  C   UNL     1     -11.255  17.020  68.556  1.00  0.00    -0.037 C  
HETATM   43  O   UNL     1     -12.645  13.489  67.736  1.00  0.00     0.094 OA 
HETATM   44  C   UNL     1      -9.755  17.995  68.745  1.00  0.00    -0.328 C  
HETATM   45  N   UNL     1      -8.587  17.572  67.937  1.00  0.00    -0.233 NA 
BRANCH  45  46
HETATM   46  C   UNL     1      -7.293  17.275  68.526  1.00  0.00    -0.235 C  
BRANCH  46  47
HETATM   47  C   UNL     1      -6.585  18.452  69.110  1.00  0.00    -0.280 C  
HETATM   48  C   UNL     1      -6.150  19.482  68.377  1.00  0.00    -0.261 C  
ENDBRANCH  46  47
ENDBRANCH  45  46
ENDBRANCH  23  24
ENDBRANCH  22  23
ENDBRANCH  21  22
ENDBRANCH  20  21
ENDBRANCH  19  20
ENDBRANCH  18  19
ENDBRANCH  17  18
ENDBRANCH  16  17
ENDBRANCH  15  16
ENDBRANCH  14  15
ENDBRANCH  13  14
ENDBRANCH  12  13
ENDBRANCH  11  12
ENDBRANCH  10  11
ENDBRANCH   9  10
ENDBRANCH   8   9
ENDBRANCH   7   8
ENDBRANCH   6   7
ENDBRANCH   5   6
ENDBRANCH   4   5
ENDBRANCH   3   4
ENDBRANCH   2   3
TORSDOF 24
ENDMDL
MODEL      102
REMARK 921   NORMALIZED FREE ENERGY PREDICTED BY IDOCK:   -3.96 KCAL/MOL
REMARK 922        TOTAL FREE ENERGY PREDICTED BY IDOCK:  -11.82 KCAL/MOL
REMARK 923 INTER-LIGAND FREE ENERGY PREDICTED BY IDOCK:   -8.44 KCAL/MOL
REMARK 924 INTRA-LIGAND FREE ENERGY PREDICTED BY IDOCK:   -3.38 KCAL/MOL
REMARK 927      BINDING AFFINITY PREDICTED BY RF-SCORE:    0.00 PKD
ROOT
HETATM    1  C   UNL     1      -9.336   2.618  64.231  1.00  0.00    -0.132 C  
HETATM    2  O   UNL     1      -8.108   2.533  64.941  1.00  0.00    -0.081 OA 
ENDROOT
BRANCH   2   3
HETATM    3  C   UNL     1      -8.192   1.594  66.011  1.00  0.00    -0.085 C  
BRANCH   3   4
HETATM    4  C   UNL     1      -7.050   1.840  66.986  1.00  0.00    -0.046 C  
BRANCH   4   5
HETATM    5  O   UNL     1      -6.307   2.979  66.554  1.00  0.00    -0.027 OA 
BRANCH   5   6
HETATM    6  C   UNL     1      -5.574   3.549  67.634  1.00  0.00    -0.021 C  
BRANCH   6   7
HETATM    7  C   UNL     1      -5.228   4.992  67.306  1.00  0.00    -0.008 C  
BRANCH   7   8
HETATM    8  O   UNL     1      -5.633   5.812  68.400  1.00  0.00    -0.007 OA 
BRANCH   8   9
HETATM    9  C   UNL     1      -5.630   7.189  68.046  1.00  0.00    -0.021 C  
BRANCH   9  10
HETATM   10  C   UNL     1      -5.213   7.321  66.591  1.00  0.00    -0.023 C  
BRANCH  10  11
HETATM   11  O   UNL     1      -5.960   8.377  66.002  1.00  0.00    -0.043 OA 
BRANCH  11  12
HETATM   12  C   UNL     1      -5.793   9.592  66.722  1.00  0.00    -0.055 C  
BRANCH  12  13
HETATM   13  C   UNL     1      -5.691  10.735  65.727  1.00  0.00    -0.144 C  
BRANCH  13  14
HETATM   14  O   UNL     1      -5.492  11.954  66.427  1.00  0.00    -0.306 OA 
BRANCH  14  15
HETATM   15  C   UNL     1      -6.653  12.291  67.177  1.00  0.00    -0.109 C  
BRANCH  15  16
HETATM   16  C   UNL     1      -6.506  13.679  67.774  1.00  0.00    -0.171 C  
BRANCH  16  17
HETATM   17  O   UNL     1      -7.658  14.427  67.406  1.00  0.00    -0.180 OA 
BRANCH  17  18
HETATM   18  C   UNL     1      -8.696  13.606  66.895  1.00  0.00    -0.146 C  
BRANCH  18  19
HETATM   19  C   UNL     1      -9.967  14.435  66.864  1.00  0.00    -0.261 C  
BRANCH  19  20
HETATM   20  O   UNL     1     -10.716  14.210  68.050  1.00  0.00    -0.236 OA 
BRANCH  20  21
HETATM   21  C   UNL     1     -10.598  12.863  68.507  1.00  0.00    -0.253 C  
BRANCH  21  22
HETATM   22  C   UNL     1     -11.908  12.096  68.293  1.00  0.00    -0.301 C  
BRANCH  22  23
HETATM   23  O   UNL     1     -12.162  11.014  69.226  1.00  0.00    -0.369 OA 
BRANCH  23  24
HETATM   24  C   UNL     1     -10.972  10.362  69.732  1.00  0.00    -0.293 C  
HETATM   25  C   UNL     1     -11.166   9.965  71.168  1.00  0.00    -0.404 C  
HETATM   26  C   UNL     1     -11.760   8.456  71.387  1.00  0.00    -0.332 C  
HETATM   27  C   UNL     1     -11.087   7.188  70.578  1.00  0.00    -0.271 C  
HETATM   28  C   UNL     1     -10.126   5.900  71.024  1.00  0.00    -0.200 C  
HETATM   29  O   UNL     1     -12.145   6.712  69.734  1.00  0.00    -0.638 OA 
HETATM   30  C   UNL     1      -9.780   4.849  69.965  1.00  0.00    -0.285 C  
HETATM   31  H   UNL     1     -11.756   5.981  69.268  1.00  0.00     0.000 HD 
HETATM   32  C   UNL     1      -9.282   5.662  68.796  1.00  0.00    -0.133 A  
HETATM   33  C   UNL     1      -8.911   5.076  67.601  1.00  0.00    -0.115 A  
HETATM   34  C   UNL     1      -8.783   5.830  66.443  1.00  0.00    -0.128 A  
HETATM   35  C   UNL     1      -9.059   7.227  66.460  1.00  0.00    -0.155 A  
HETATM   36  O   UNL     1      -9.169   7.902  65.284  1.00  0.00    -0.379 OA 
HETATM   37  C   UNL     1      -9.313   7.846  67.681  1.00  0.00    -0.143 A  
HETATM   38  H   UNL     1      -9.353   8.834  65.295  1.00  0.00     0.000 HD 
HETATM   39  C   UNL     1      -9.383   7.108  68.871  1.00  0.00    -0.139 A  
HETATM   40  C   UNL     1      -9.955   7.934  69.991  1.00  0.00    -0.191 C  
HETATM   41  C   UNL     1     -10.583   9.044  69.025  1.00  0.00    -0.190 C  
HETATM   42  C   UNL     1      -9.069   8.123  71.552  1.00  0.00    -0.203 C  
HETATM   43  O   UNL     1      -9.713   9.159  67.866  1.00  0.00    -0.147 OA 
HETATM   44  C   UNL     1      -9.560   6.990  72.861  1.00  0.00    -0.148 C  
HETATM   45  N   UNL     1     -10.066   5.665  72.432  1.00  0.00    -0.177 NA 
BRANCH  45  46
HETATM   46  C   UNL     1     -11.358   5.147  72.847  1.00  0.00    -0.282 C  
BRANCH  46  47
HETATM   47  C   UNL     1     -11.298   3.972  73.765  1.00  0.00    -0.189 C  
HETATM   48  C   UNL     1     -11.251   2.708  73.333  1.00  0.00    -0.267 C  
ENDBRANCH  46  47
ENDBRANCH  45  46
ENDBRANCH  23  24
ENDBRANCH  22  23
ENDBRANCH  21  22
ENDBRANCH  20  21
ENDBRANCH  19  20
ENDBRANCH  18  19
ENDBRANCH  17  18
ENDBRANCH  16  17
ENDBRANCH  15  16
ENDBRANCH  14  15
ENDBRANCH  13  14
ENDBRANCH  12  13
ENDBRANCH  11  12
ENDBRANCH  10  11
ENDBRANCH   9  10
ENDBRANCH   8   9
ENDBRANCH   7   8
ENDBRANCH   6   7
ENDBRANCH   5   6
ENDBRANCH   4   5
ENDBRANCH   3   4
ENDBRANCH   2   3
TORSDOF 24
ENDMDL
MODEL      103
REMARK 921   NORMALIZED FREE ENERGY PREDICTED BY IDOCK:   -3.96 KCAL/MOL
REMARK 922        TOTAL FREE ENERGY PREDICTED BY IDOCK:  -11.81 KCAL/MOL
REMARK 923 INTER-LIGAND FREE ENERGY PREDICTED BY IDOCK:   -9.49 KCAL/MOL
REMARK 924 INTRA-LIGAND FREE ENERGY PREDICTED BY IDOCK:   -2.32 KCAL/MOL
REMARK 927      BINDING AFFINITY PREDICTED BY RF-SCORE:    0.00 PKD
ROOT
HETATM    1  C   UNL     1      -9.824   2.086  74.245  1.00  0.00    -0.091 C  
HETATM    2  O   UNL     1     -10.357   2.975  73.273  1.00  0.00    -0.132 OA 
ENDROOT
BRANCH   2   3
HETATM    3  C   UNL     1      -9.818   2.712  71.978  1.00  0.00    -0.163 C  
BRANCH   3   4
HETATM    4  C   UNL     1      -8.490   3.438  71.830  1.00  0.00    -0.069 C  
BRANCH   4   5
HETATM    5  O   UNL     1      -8.631   4.471  70.855  1.00  0.00    -0.090 OA 
BRANCH   5   6
HETATM    6  C   UNL     1      -9.737   4.213  69.995  1.00  0.00    -0.212 C  
BRANCH   6   7
HETATM    7  C   UNL     1     -10.467   5.514  69.706  1.00  0.00    -0.319 C  
BRANCH   7   8
HETATM    8  O   UNL     1      -9.794   6.569  70.388  1.00  0.00    -0.174 OA 
BRANCH   8   9
HETATM    9  C   UNL     1     -10.711   7.404  71.085  1.00  0.00    -0.231 C  
BRANCH   9  10
HETATM   10  C   UNL     1     -12.125   6.945  70.777  1.00  0.00    -0.349 C  
BRANCH  10  11
HETATM   11  O   UNL     1     -12.989   7.428  71.797  1.00  0.00    -0.338 OA 
BRANCH  11  12
HETATM   12  C   UNL     1     -12.482   8.623  72.380  1.00  0.00    -0.362 C  
BRANCH  12  13
HETATM   13  C   UNL     1     -13.507   9.727  72.187  1.00  0.00    -0.399 C  
BRANCH  13  14
HETATM   14  O   UNL     1     -13.034  10.643  71.209  1.00  0.00    -0.373 OA 
BRANCH  14  15
HETATM   15  C   UNL     1     -13.010  11.964  71.737  1.00  0.00    -0.350 C  
BRANCH  15  16
HETATM   16  C   UNL     1     -12.297  12.898  70.776  1.00  0.00    -0.299 C  
BRANCH  16  17
HETATM   17  O   UNL     1     -12.629  14.230  71.148  1.00  0.00    -0.317 OA 
BRANCH  17  18
HETATM   18  C   UNL     1     -12.461  15.148  70.080  1.00  0.00    -0.318 C  
BRANCH  18  19
HETATM   19  C   UNL     1     -11.276  14.685  69.255  1.00  0.00    -0.282 C  
BRANCH  19  20
HETATM   20  O   UNL     1     -11.441  15.097  67.904  1.00  0.00    -0.325 OA 
BRANCH  20  21
HETATM   21  C   UNL     1     -12.169  14.137  67.140  1.00  0.00    -0.313 C  
BRANCH  21  22
HETATM   22  C   UNL     1     -11.647  12.720  67.400  1.00  0.00    -0.356 C  
BRANCH  22  23
HETATM   23  O   UNL     1     -11.430  11.904  66.220  1.00  0.00    -0.350 OA 
BRANCH  23  24
HETATM   24  C   UNL     1     -10.040  11.609  65.937  1.00  0.00    -0.230 C  
HETATM   25  C   UNL     1      -9.150  12.652  66.552  1.00  0.00    -0.163 C  
HETATM   26  C   UNL     1      -8.635  12.306  68.066  1.00  0.00    -0.176 C  
HETATM   27  C   UNL     1      -8.006  10.820  68.395  1.00  0.00    -0.124 C  
HETATM   28  C   UNL     1      -6.472  10.248  68.715  1.00  0.00    -0.051 C  
HETATM   29  O   UNL     1      -8.922  10.257  69.345  1.00  0.00    -0.185 OA 
HETATM   30  C   UNL     1      -6.308   8.770  69.079  1.00  0.00    -0.044 C  
HETATM   31  H   UNL     1      -8.559   9.399  69.535  1.00  0.00     0.000 HD 
HETATM   32  C   UNL     1      -7.065   8.042  67.995  1.00  0.00    -0.086 A  
HETATM   33  C   UNL     1      -7.200   6.667  67.993  1.00  0.00    -0.091 A  
HETATM   34  C   UNL     1      -8.157   6.043  67.207  1.00  0.00    -0.106 A  
HETATM   35  C   UNL     1      -9.044   6.815  66.404  1.00  0.00    -0.152 A  
HETATM   36  O   UNL     1     -10.126   6.218  65.836  1.00  0.00    -0.381 OA 
HETATM   37  C   UNL     1      -8.835   8.189  66.306  1.00  0.00    -0.164 A  
HETATM   38  H   UNL     1     -10.717   6.733  65.300  1.00  0.00     0.000 HD 
HETATM   39  C   UNL     1      -7.830   8.828  67.045  1.00  0.00    -0.095 A  
HETATM   40  C   UNL     1      -7.990  10.323  67.004  1.00  0.00    -0.111 C  
HETATM   41  C   UNL     1      -9.512  10.276  66.511  1.00  0.00    -0.171 C  
HETATM   42  C   UNL     1      -6.633  11.389  66.476  1.00  0.00    -0.071 C  
HETATM   43  O   UNL     1      -9.664   9.100  65.670  1.00  0.00    -0.270 OA 
HETATM   44  C   UNL     1      -5.629  12.076  67.802  1.00  0.00    -0.070 C  
HETATM   45  N   UNL     1      -5.517  11.261  69.035  1.00  0.00    -0.040 NA 
BRANCH  45  46
HETATM   46  C   UNL     1      -5.852  11.780  70.349  1.00  0.00    -0.156 C  
BRANCH  46  47
HETATM   47  C   UNL     1      -5.176  13.061  70.709  1.00  0.00    -0.148 C  
HETATM   48  C   UNL     1      -5.800  14.067  71.330  1.00  0.00    -0.195 C  
ENDBRANCH  46  47
ENDBRANCH  45  46
ENDBRANCH  23  24
ENDBRANCH  22  23
ENDBRANCH  21  22
ENDBRANCH  20  21
ENDBRANCH  19  20
ENDBRANCH  18  19
ENDBRANCH  17  18
ENDBRANCH  16  17
ENDBRANCH  15  16
ENDBRANCH  14  15
ENDBRANCH  13  14
ENDBRANCH  12  13
ENDBRANCH  11  12
ENDBRANCH  10  11
ENDBRANCH   9  10
ENDBRANCH   8   9
ENDBRANCH   7   8
ENDBRANCH   6   7
ENDBRANCH   5   6
ENDBRANCH   4   5
ENDBRANCH   3   4
ENDBRANCH   2   3
TORSDOF 24
ENDMDL
MODEL      104
REMARK 921   NORMALIZED FREE ENERGY PREDICTED BY IDOCK:   -3.93 KCAL/MOL
REMARK 922        TOTAL FREE ENERGY PREDICTED BY IDOCK:  -11.75 KCAL/MOL
REMARK 923 INTER-LIGAND FREE ENERGY PREDICTED BY IDOCK:  -10.18 KCAL/MOL
REMARK 924 INTRA-LIGAND FREE ENERGY PREDICTED BY IDOCK:   -1.56 KCAL/MOL
REMARK 927      BINDING AFFINITY PREDICTED BY RF-SCORE:    0.00 PKD
ROOT
HETATM    1  C   UNL     1      -7.470  19.538  69.000  1.00  0.00    -0.345 C  
HETATM    2  O   UNL     1      -7.739  19.112  67.671  1.00  0.00    -0.239 OA 
ENDROOT
BRANCH   2   3
HETATM    3  C   UNL     1      -9.086  18.663  67.534  1.00  0.00    -0.280 C  
BRANCH   3   4
HETATM    4  C   UNL     1      -9.259  18.003  66.174  1.00  0.00    -0.113 C  
BRANCH   4   5
HETATM    5  O   UNL     1     -10.520  17.334  66.139  1.00  0.00    -0.338 OA 
BRANCH   5   6
HETATM    6  C   UNL     1     -10.745  16.737  64.866  1.00  0.00    -0.018 C  
BRANCH   6   7
HETATM    7  C   UNL     1     -11.523  15.443  65.043  1.00  0.00    -0.263 C  
BRANCH   7   8
HETATM    8  O   UNL     1     -10.613  14.352  64.929  1.00  0.00    -0.405 OA 
BRANCH   8   9
HETATM    9  C   UNL     1     -11.268  13.176  64.470  1.00  0.00    -0.354 C  
BRANCH   9  10
HETATM   10  C   UNL     1     -12.340  12.788  65.474  1.00  0.00    -0.434 C  
BRANCH  10  11
HETATM   11  O   UNL     1     -11.781  11.861  66.395  1.00  0.00    -0.522 OA 
BRANCH  11  12
HETATM   12  C   UNL     1     -11.260  12.523  67.542  1.00  0.00    -0.291 C  
BRANCH  12  13
HETATM   13  C   UNL     1     -12.260  13.574  67.990  1.00  0.00    -0.123 C  
BRANCH  13  14
HETATM   14  O   UNL     1     -12.471  13.458  69.390  1.00  0.00    -0.153 OA 
BRANCH  14  15
HETATM   15  C   UNL     1     -11.671  14.403  70.091  1.00  0.00    -0.297 C  
BRANCH  15  16
HETATM   16  C   UNL     1     -11.693  15.741  69.373  1.00  0.00    -0.370 C  
BRANCH  16  17
HETATM   17  O   UNL     1     -10.495  15.838  68.613  1.00  0.00    -0.219 OA 
BRANCH  17  18
HETATM   18  C   UNL     1      -9.392  15.226  69.261  1.00  0.00    -0.239 C  
BRANCH  18  19
HETATM   19  C   UNL     1      -8.143  15.571  68.471  1.00  0.00    -0.146 C  
BRANCH  19  20
HETATM   20  O   UNL     1      -8.055  14.739  67.323  1.00  0.00    -0.185 OA 
BRANCH  20  21
HETATM   21  C   UNL     1      -7.162  13.645  67.525  1.00  0.00    -0.156 C  
BRANCH  21  22
HETATM   22  C   UNL     1      -7.931  12.323  67.632  1.00  0.00    -0.161 C  
BRANCH  22  23
HETATM   23  O   UNL     1      -7.212  11.141  67.196  1.00  0.00    -0.105 OA 
BRANCH  23  24
HETATM   24  C   UNL     1      -7.301  10.013  68.100  1.00  0.00    -0.083 C  
HETATM   25  C   UNL     1      -7.961  10.426  69.386  1.00  0.00    -0.161 C  
HETATM   26  C   UNL     1      -9.585  10.231  69.414  1.00  0.00    -0.237 C  
HETATM   27  C   UNL     1     -10.246   8.805  68.919  1.00  0.00    -0.207 C  
HETATM   28  C   UNL     1     -10.984   7.530  69.700  1.00  0.00    -0.153 C  
HETATM   29  O   UNL     1     -11.024   9.162  67.768  1.00  0.00    -0.489 OA 
HETATM   30  C   UNL     1     -11.570   6.397  68.852  1.00  0.00     0.059 C  
HETATM   31  H   UNL     1     -11.404   8.339  67.483  1.00  0.00     0.000 HD 
HETATM   32  C   UNL     1     -10.447   6.028  67.914  1.00  0.00    -0.294 A  
HETATM   33  C   UNL     1     -10.596   5.062  66.937  1.00  0.00    -0.183 A  
HETATM   34  C   UNL     1      -9.699   4.966  65.883  1.00  0.00    -0.197 A  
HETATM   35  C   UNL     1      -8.617   5.885  65.772  1.00  0.00    -0.154 A  
HETATM   36  O   UNL     1      -7.898   5.938  64.619  1.00  0.00    -0.100 OA 
HETATM   37  C   UNL     1      -8.389   6.781  66.814  1.00  0.00    -0.115 A  
HETATM   38  H   UNL     1      -7.176   6.552  64.545  1.00  0.00     0.000 HD 
HETATM   39  C   UNL     1      -9.249   6.848  67.919  1.00  0.00    -0.124 A  
HETATM   40  C   UNL     1      -8.974   8.071  68.750  1.00  0.00    -0.141 C  
HETATM   41  C   UNL     1      -8.153   8.825  67.602  1.00  0.00    -0.106 C  
HETATM   42  C   UNL     1      -8.639   7.937  70.519  1.00  0.00    -0.131 C  
HETATM   43  O   UNL     1      -7.464   7.812  66.820  1.00  0.00    -0.087 OA 
HETATM   44  C   UNL     1     -10.058   8.187  71.596  1.00  0.00    -0.199 C  
HETATM   45  N   UNL     1     -11.380   7.808  71.044  1.00  0.00    -0.268 NA 
BRANCH  45  46
HETATM   46  C   UNL     1     -12.501   8.730  70.991  1.00  0.00    -0.118 C  
BRANCH  46  47
HETATM   47  C   UNL     1     -12.461   9.825  72.004  1.00  0.00    -0.390 C  
HETATM   48  C   UNL     1     -13.044  11.014  71.818  1.00  0.00    -0.554 C  
ENDBRANCH  46  47
ENDBRANCH  45  46
ENDBRANCH  23  24
ENDBRANCH  22  23
ENDBRANCH  21  22
ENDBRANCH  20  21
ENDBRANCH  19  20
ENDBRANCH  18  19
ENDBRANCH  17  18
ENDBRANCH  16  17
ENDBRANCH  15  16
ENDBRANCH  14  15
ENDBRANCH  13  14
ENDBRANCH  12  13
ENDBRANCH  11  12
ENDBRANCH  10  11
ENDBRANCH   9  10
ENDBRANCH   8   9
ENDBRANCH   7   8
ENDBRANCH   6   7
ENDBRANCH   5   6
ENDBRANCH   4   5
ENDBRANCH   3   4
ENDBRANCH   2   3
TORSDOF 24
ENDMDL
MODEL      105
REMARK 921   NORMALIZED FREE ENERGY PREDICTED BY IDOCK:   -3.92 KCAL/MOL
REMARK 922        TOTAL FREE ENERGY PREDICTED BY IDOCK:  -11.72 KCAL/MOL
REMARK 923 INTER-LIGAND FREE ENERGY PREDICTED BY IDOCK:   -8.85 KCAL/MOL
REMARK 924 INTRA-LIGAND FREE ENERGY PREDICTED BY IDOCK:   -2.87 KCAL/MOL
REMARK 927      BINDING AFFINITY PREDICTED BY RF-SCORE:    0.00 PKD
ROOT
HETATM    1  C   UNL     1     -10.003   3.100  74.558  1.00  0.00    -0.138 C  
HETATM    2  O   UNL     1     -10.790   3.178  73.377  1.00  0.00    -0.183 OA 
ENDROOT
BRANCH   2   3
HETATM    3  C   UNL     1     -10.257   2.351  72.344  1.00  0.00    -0.149 C  
BRANCH   3   4
HETATM    4  C   UNL     1      -8.784   2.676  72.149  1.00  0.00    -0.070 C  
BRANCH   4   5
HETATM    5  O   UNL     1      -8.667   3.816  71.299  1.00  0.00    -0.078 OA 
BRANCH   5   6
HETATM    6  C   UNL     1      -9.483   3.672  70.139  1.00  0.00    -0.187 C  
BRANCH   6   7
HETATM    7  C   UNL     1     -10.140   5.003  69.814  1.00  0.00    -0.267 C  
BRANCH   7   8
HETATM    8  O   UNL     1      -9.651   5.982  70.729  1.00  0.00    -0.166 OA 
BRANCH   8   9
HETATM    9  C   UNL     1     -10.707   6.551  71.493  1.00  0.00    -0.235 C  
BRANCH   9  10
HETATM   10  C   UNL     1     -11.952   6.633  70.626  1.00  0.00    -0.343 C  
BRANCH  10  11
HETATM   11  O   UNL     1     -13.009   7.177  71.406  1.00  0.00    -0.381 OA 
BRANCH  11  12
HETATM   12  C   UNL     1     -12.573   8.310  72.149  1.00  0.00    -0.337 C  
BRANCH  12  13
HETATM   13  C   UNL     1     -13.691   9.337  72.164  1.00  0.00    -0.453 C  
BRANCH  13  14
HETATM   14  O   UNL     1     -13.543  10.212  71.054  1.00  0.00    -0.285 OA 
BRANCH  14  15
HETATM   15  C   UNL     1     -12.918  11.424  71.458  1.00  0.00    -0.399 C  
BRANCH  15  16
HETATM   16  C   UNL     1     -12.121  12.011  70.306  1.00  0.00    -0.312 C  
BRANCH  16  17
HETATM   17  O   UNL     1     -12.171  13.426  70.428  1.00  0.00    -0.343 OA 
BRANCH  17  18
HETATM   18  C   UNL     1     -12.147  14.080  69.170  1.00  0.00    -0.337 C  
BRANCH  18  19
HETATM   19  C   UNL     1     -10.814  13.769  68.514  1.00  0.00    -0.263 C  
BRANCH  19  20
HETATM   20  O   UNL     1     -10.939  13.867  67.102  1.00  0.00    -0.284 OA 
BRANCH  20  21
HETATM   21  C   UNL     1     -11.731  12.809  66.564  1.00  0.00    -0.400 C  
BRANCH  21  22
HETATM   22  C   UNL     1     -11.008  11.464  66.695  1.00  0.00    -0.285 C  
BRANCH  22  23
HETATM   23  O   UNL     1     -10.291  11.018  65.515  1.00  0.00    -0.255 OA 
BRANCH  23  24
HETATM   24  C   UNL     1      -8.920  10.617  65.757  1.00  0.00    -0.182 C  
HETATM   25  C   UNL     1      -8.386  11.301  66.984  1.00  0.00    -0.153 C  
HETATM   26  C   UNL     1      -8.592  10.467  68.376  1.00  0.00    -0.132 C  
HETATM   27  C   UNL     1      -8.180   8.873  68.443  1.00  0.00    -0.117 C  
HETATM   28  C   UNL     1      -6.946   8.019  69.169  1.00  0.00    -0.057 C  
HETATM   29  O   UNL     1      -9.423   8.203  68.691  1.00  0.00    -0.146 OA 
HETATM   30  C   UNL     1      -6.966   6.490  69.075  1.00  0.00    -0.075 C  
HETATM   31  H   UNL     1      -9.185   7.283  68.729  1.00  0.00     0.000 HD 
HETATM   32  C   UNL     1      -7.173   6.219  67.605  1.00  0.00    -0.083 A  
HETATM   33  C   UNL     1      -7.300   4.937  67.107  1.00  0.00    -0.082 A  
HETATM   34  C   UNL     1      -7.817   4.708  65.840  1.00  0.00    -0.095 A  
HETATM   35  C   UNL     1      -8.256   5.798  65.035  1.00  0.00    -0.137 A  
HETATM   36  O   UNL     1      -8.980   5.551  63.911  1.00  0.00    -0.348 OA 
HETATM   37  C   UNL     1      -8.018   7.097  65.478  1.00  0.00    -0.122 A  
HETATM   38  H   UNL     1      -9.273   6.278  63.374  1.00  0.00     0.000 HD 
HETATM   39  C   UNL     1      -7.437   7.345  66.729  1.00  0.00    -0.096 A  
HETATM   40  C   UNL     1      -7.555   8.797  67.105  1.00  0.00    -0.088 C  
HETATM   41  C   UNL     1      -8.705   9.114  66.039  1.00  0.00    -0.153 C  
HETATM   42  C   UNL     1      -6.099   9.761  67.561  1.00  0.00    -0.058 C  
HETATM   43  O   UNL     1      -8.478   8.261  64.884  1.00  0.00    -0.157 OA 
HETATM   44  C   UNL     1      -5.777   9.888  69.326  1.00  0.00    -0.034 C  
HETATM   45  N   UNL     1      -6.224   8.748  70.162  1.00  0.00    -0.033 NA 
BRANCH  45  46
HETATM   46  C   UNL     1      -7.100   8.914  71.309  1.00  0.00    -0.094 C  
BRANCH  46  47
HETATM   47  C   UNL     1      -6.822   7.992  72.449  1.00  0.00    -0.085 C  
HETATM   48  C   UNL     1      -7.097   8.299  73.721  1.00  0.00    -0.170 C  
ENDBRANCH  46  47
ENDBRANCH  45  46
ENDBRANCH  23  24
ENDBRANCH  22  23
ENDBRANCH  21  22
ENDBRANCH  20  21
ENDBRANCH  19  20
ENDBRANCH  18  19
ENDBRANCH  17  18
ENDBRANCH  16  17
ENDBRANCH  15  16
ENDBRANCH  14  15
ENDBRANCH  13  14
ENDBRANCH  12  13
ENDBRANCH  11  12
ENDBRANCH  10  11
ENDBRANCH   9  10
ENDBRANCH   8   9
ENDBRANCH   7   8
ENDBRANCH   6   7
ENDBRANCH   5   6
ENDBRANCH   4   5
ENDBRANCH   3   4
ENDBRANCH   2   3
TORSDOF 24
ENDMDL
MODEL      106
REMARK 921   NORMALIZED FREE ENERGY PREDICTED BY IDOCK:   -3.91 KCAL/MOL
REMARK 922        TOTAL FREE ENERGY PREDICTED BY IDOCK:  -11.68 KCAL/MOL
REMARK 923 INTER-LIGAND FREE ENERGY PREDICTED BY IDOCK:   -9.44 KCAL/MOL
REMARK 924 INTRA-LIGAND FREE ENERGY PREDICTED BY IDOCK:   -2.23 KCAL/MOL
REMARK 927      BINDING AFFINITY PREDICTED BY RF-SCORE:    0.00 PKD
ROOT
HETATM    1  C   UNL     1     -10.654   3.704  63.611  1.00  0.00    -0.272 C  
HETATM    2  O   UNL     1     -10.343   3.530  64.987  1.00  0.00    -0.022 OA 
ENDROOT
BRANCH   2   3
HETATM    3  C   UNL     1      -8.949   3.709  65.229  1.00  0.00    -0.135 C  
BRANCH   3   4
HETATM    4  C   UNL     1      -8.761   4.525  66.499  1.00  0.00    -0.112 C  
BRANCH   4   5
HETATM    5  O   UNL     1      -9.570   3.969  67.534  1.00  0.00    -0.183 OA 
BRANCH   5   6
HETATM    6  C   UNL     1     -10.339   4.980  68.180  1.00  0.00    -0.021 C  
BRANCH   6   7
HETATM    7  C   UNL     1     -10.360   4.721  69.677  1.00  0.00    -0.008 C  
BRANCH   7   8
HETATM    8  O   UNL     1     -10.873   5.882  70.327  1.00  0.00    -0.284 OA 
BRANCH   8   9
HETATM    9  C   UNL     1     -10.892   5.719  71.740  1.00  0.00    -0.252 C  
BRANCH   9  10
HETATM   10  C   UNL     1      -9.976   6.757  72.366  1.00  0.00    -0.169 C  
BRANCH  10  11
HETATM   11  O   UNL     1      -9.692   7.753  71.393  1.00  0.00    -0.165 OA 
BRANCH  11  12
HETATM   12  C   UNL     1     -10.172   9.028  71.802  1.00  0.00    -0.319 C  
BRANCH  12  13
HETATM   13  C   UNL     1     -10.948   9.645  70.652  1.00  0.00    -0.320 C  
BRANCH  13  14
HETATM   14  O   UNL     1     -10.749   8.869  69.479  1.00  0.00    -0.230 OA 
BRANCH  14  15
HETATM   15  C   UNL     1     -10.019   9.612  68.510  1.00  0.00    -0.165 C  
BRANCH  15  16
HETATM   16  C   UNL     1     -10.974  10.283  67.538  1.00  0.00    -0.280 C  
BRANCH  16  17
HETATM   17  O   UNL     1     -10.189  10.917  66.536  1.00  0.00    -0.217 OA 
BRANCH  17  18
HETATM   18  C   UNL     1     -10.309  10.283  65.274  1.00  0.00    -0.148 C  
BRANCH  18  19
HETATM   19  C   UNL     1     -10.967  11.266  64.324  1.00  0.00    -0.288 C  
BRANCH  19  20
HETATM   20  O   UNL     1     -11.470  12.376  65.054  1.00  0.00    -0.313 OA 
BRANCH  20  21
HETATM   21  C   UNL     1     -11.208  13.612  64.391  1.00  0.00    -0.367 C  
BRANCH  21  22
HETATM   22  C   UNL     1     -11.569  14.801  65.289  1.00  0.00    -0.338 C  
BRANCH  22  23
HETATM   23  O   UNL     1     -12.077  14.463  66.605  1.00  0.00    -0.419 OA 
BRANCH  23  24
HETATM   24  C   UNL     1     -11.291  14.979  67.707  1.00  0.00    -0.330 C  
HETATM   25  C   UNL     1     -10.371  13.914  68.234  1.00  0.00    -0.249 C  
HETATM   26  C   UNL     1      -8.889  13.886  67.542  1.00  0.00    -0.196 C  
HETATM   27  C   UNL     1      -8.034  15.286  67.384  1.00  0.00    -0.186 C  
HETATM   28  C   UNL     1      -6.682  15.915  68.130  1.00  0.00    -0.123 C  
HETATM   29  O   UNL     1      -7.909  15.459  65.966  1.00  0.00     0.134 OA 
HETATM   30  C   UNL     1      -6.122  17.245  67.618  1.00  0.00    -0.161 C  
HETATM   31  H   UNL     1      -7.416  16.266  65.875  1.00  0.00     0.000 HD 
HETATM   32  C   UNL     1      -7.326  18.153  67.570  1.00  0.00    -0.213 A  
HETATM   33  C   UNL     1      -7.247  19.452  67.105  1.00  0.00    -0.231 A  
HETATM   34  C   UNL     1      -8.388  20.156  66.751  1.00  0.00    -0.356 A  
HETATM   35  C   UNL     1      -9.669  19.540  66.835  1.00  0.00    -0.356 A  
HETATM   36  O   UNL     1     -10.743  20.145  66.260  1.00  0.00    -0.351 OA 
HETATM   37  C   UNL     1      -9.769  18.279  67.417  1.00  0.00    -0.296 A  
HETATM   38  H   UNL     1     -11.598  19.734  66.316  1.00  0.00     0.000 HD 
HETATM   39  C   UNL     1      -8.631  17.579  67.840  1.00  0.00    -0.239 A  
HETATM   40  C   UNL     1      -8.959  16.145  68.153  1.00  0.00    -0.185 C  
HETATM   41  C   UNL     1     -10.349  16.154  67.361  1.00  0.00    -0.294 C  
HETATM   42  C   UNL     1      -8.541  15.424  69.754  1.00  0.00    -0.006 C  
HETATM   43  O   UNL     1     -10.908  17.491  67.473  1.00  0.00    -0.321 OA 
HETATM   44  C   UNL     1      -6.989  14.516  69.813  1.00  0.00    -0.095 C  
HETATM   45  N   UNL     1      -5.925  14.968  68.884  1.00  0.00    -0.088 NA 
BRANCH  45  46
HETATM   46  C   UNL     1      -5.277  14.073  67.942  1.00  0.00    -0.059 C  
BRANCH  46  47
HETATM   47  C   UNL     1      -5.582  12.626  68.138  1.00  0.00    -0.076 C  
HETATM   48  C   UNL     1      -5.977  11.821  67.146  1.00  0.00    -0.140 C  
ENDBRANCH  46  47
ENDBRANCH  45  46
ENDBRANCH  23  24
ENDBRANCH  22  23
ENDBRANCH  21  22
ENDBRANCH  20  21
ENDBRANCH  19  20
ENDBRANCH  18  19
ENDBRANCH  17  18
ENDBRANCH  16  17
ENDBRANCH  15  16
ENDBRANCH  14  15
ENDBRANCH  13  14
ENDBRANCH  12  13
ENDBRANCH  11  12
ENDBRANCH  10  11
ENDBRANCH   9  10
ENDBRANCH   8   9
ENDBRANCH   7   8
ENDBRANCH   6   7
ENDBRANCH   5   6
ENDBRANCH   4   5
ENDBRANCH   3   4
ENDBRANCH   2   3
TORSDOF 24
ENDMDL
MODEL      107
REMARK 921   NORMALIZED FREE ENERGY PREDICTED BY IDOCK:   -3.90 KCAL/MOL
REMARK 922        TOTAL FREE ENERGY PREDICTED BY IDOCK:  -11.65 KCAL/MOL
REMARK 923 INTER-LIGAND FREE ENERGY PREDICTED BY IDOCK:   -9.80 KCAL/MOL
REMARK 924 INTRA-LIGAND FREE ENERGY PREDICTED BY IDOCK:   -1.85 KCAL/MOL
REMARK 927      BINDING AFFINITY PREDICTED BY RF-SCORE:    0.00 PKD
ROOT
HETATM    1  C   UNL     1     -10.759  16.593  68.510  1.00  0.00    -0.351 C  
HETATM    2  O   UNL     1     -10.339  17.948  68.594  1.00  0.00    -0.367 OA 
ENDROOT
BRANCH   2   3
HETATM    3  C   UNL     1      -9.484  18.294  67.506  1.00  0.00    -0.266 C  
BRANCH   3   4
HETATM    4  C   UNL     1      -8.358  19.182  68.014  1.00  0.00    -0.305 C  
BRANCH   4   5
HETATM    5  O   UNL     1      -7.161  18.411  68.103  1.00  0.00    -0.246 OA 
BRANCH   5   6
HETATM    6  C   UNL     1      -7.253  17.233  67.306  1.00  0.00    -0.165 C  
BRANCH   6   7
HETATM    7  C   UNL     1      -6.711  16.048  68.088  1.00  0.00    -0.124 C  
BRANCH   7   8
HETATM    8  O   UNL     1      -7.055  14.854  67.390  1.00  0.00    -0.194 OA 
BRANCH   8   9
HETATM    9  C   UNL     1      -8.368  14.419  67.722  1.00  0.00    -0.169 C  
BRANCH   9  10
HETATM   10  C   UNL     1      -9.169  14.254  66.442  1.00  0.00    -0.199 C  
BRANCH  10  11
HETATM   11  O   UNL     1     -10.403  13.624  66.760  1.00  0.00    -0.263 OA 
BRANCH  11  12
HETATM   12  C   UNL     1     -10.397  13.116  68.089  1.00  0.00    -0.244 C  
BRANCH  12  13
HETATM   13  C   UNL     1     -11.834  12.954  68.551  1.00  0.00    -0.313 C  
BRANCH  13  14
HETATM   14  O   UNL     1     -12.181  11.576  68.535  1.00  0.00    -0.524 OA 
BRANCH  14  15
HETATM   15  C   UNL     1     -11.696  10.929  69.705  1.00  0.00    -0.338 C  
BRANCH  15  16
HETATM   16  C   UNL     1     -12.514  11.351  70.913  1.00  0.00    -0.379 C  
BRANCH  16  17
HETATM   17  O   UNL     1     -12.690  10.203  71.733  1.00  0.00    -0.396 OA 
BRANCH  17  18
HETATM   18  C   UNL     1     -12.042   9.057  71.205  1.00  0.00    -0.314 C  
BRANCH  18  19
HETATM   19  C   UNL     1     -12.754   7.832  71.750  1.00  0.00    -0.329 C  
BRANCH  19  20
HETATM   20  O   UNL     1     -12.010   6.664  71.434  1.00  0.00    -0.327 OA 
BRANCH  20  21
HETATM   21  C   UNL     1     -11.406   6.088  72.591  1.00  0.00    -0.277 C  
BRANCH  21  22
HETATM   22  C   UNL     1     -10.430   4.973  72.202  1.00  0.00    -0.210 C  
BRANCH  22  23
HETATM   23  O   UNL     1      -9.035   5.221  72.515  1.00  0.00    -0.130 OA 
BRANCH  23  24
HETATM   24  C   UNL     1      -8.151   5.229  71.368  1.00  0.00    -0.115 C  
HETATM   25  C   UNL     1      -8.455   4.066  70.466  1.00  0.00    -0.097 C  
HETATM   26  C   UNL     1      -9.547   4.381  69.289  1.00  0.00    -0.261 C  
HETATM   27  C   UNL     1      -9.382   5.733  68.362  1.00  0.00    -0.121 C  
HETATM   28  C   UNL     1      -8.940   6.014  66.779  1.00  0.00    -0.122 C  
HETATM   29  O   UNL     1     -10.551   6.507  68.666  1.00  0.00    -0.199 OA 
HETATM   30  C   UNL     1      -9.006   7.449  66.249  1.00  0.00    -0.192 C  
HETATM   31  H   UNL     1     -10.456   7.287  68.131  1.00  0.00     0.000 HD 
HETATM   32  C   UNL     1      -8.265   8.255  67.288  1.00  0.00    -0.120 A  
HETATM   33  C   UNL     1      -8.144   9.629  67.201  1.00  0.00    -0.110 A  
HETATM   34  C   UNL     1      -7.769  10.386  68.301  1.00  0.00    -0.096 A  
HETATM   35  C   UNL     1      -7.528   9.759  69.557  1.00  0.00    -0.101 A  
HETATM   36  O   UNL     1      -7.404  10.525  70.674  1.00  0.00    -0.424 OA 
HETATM   37  C   UNL     1      -7.528   8.368  69.623  1.00  0.00    -0.073 A  
HETATM   38  H   UNL     1      -7.243  10.107  71.512  1.00  0.00     0.000 HD 
HETATM   39  C   UNL     1      -7.842   7.585  68.504  1.00  0.00    -0.122 A  
HETATM   40  C   UNL     1      -8.066   6.149  68.890  1.00  0.00    -0.108 C  
HETATM   41  C   UNL     1      -8.268   6.463  70.446  1.00  0.00    -0.121 C  
HETATM   42  C   UNL     1      -7.151   4.817  68.085  1.00  0.00    -0.061 C  
HETATM   43  O   UNL     1      -7.429   7.604  70.774  1.00  0.00    -0.069 OA 
HETATM   44  C   UNL     1      -7.997   4.016  66.714  1.00  0.00    -0.097 C  
HETATM   45  N   UNL     1      -8.949   4.854  65.946  1.00  0.00    -0.129 NA 
BRANCH  45  46
HETATM   46  C   UNL     1     -10.335   4.474  65.738  1.00  0.00    -0.258 C  
BRANCH  46  47
HETATM   47  C   UNL     1     -10.642   3.941  64.378  1.00  0.00    -0.224 C  
HETATM   48  C   UNL     1     -10.077   2.835  63.882  1.00  0.00    -0.152 C  
ENDBRANCH  46  47
ENDBRANCH  45  46
ENDBRANCH  23  24
ENDBRANCH  22  23
ENDBRANCH  21  22
ENDBRANCH  20  21
ENDBRANCH  19  20
ENDBRANCH  18  19
ENDBRANCH  17  18
ENDBRANCH  16  17
ENDBRANCH  15  16
ENDBRANCH  14  15
ENDBRANCH  13  14
ENDBRANCH  12  13
ENDBRANCH  11  12
ENDBRANCH  10  11
ENDBRANCH   9  10
ENDBRANCH   8   9
ENDBRANCH   7   8
ENDBRANCH   6   7
ENDBRANCH   5   6
ENDBRANCH   4   5
ENDBRANCH   3   4
ENDBRANCH   2   3
TORSDOF 24
ENDMDL
MODEL      108
REMARK 921   NORMALIZED FREE ENERGY PREDICTED BY IDOCK:   -3.89 KCAL/MOL
REMARK 922        TOTAL FREE ENERGY PREDICTED BY IDOCK:  -11.64 KCAL/MOL
REMARK 923 INTER-LIGAND FREE ENERGY PREDICTED BY IDOCK:   -9.49 KCAL/MOL
REMARK 924 INTRA-LIGAND FREE ENERGY PREDICTED BY IDOCK:   -2.15 KCAL/MOL
REMARK 927      BINDING AFFINITY PREDICTED BY RF-SCORE:    0.00 PKD
ROOT
HETATM    1  C   UNL     1     -10.532   4.418  65.189  1.00  0.00    -0.158 C  
HETATM    2  O   UNL     1     -10.838   5.105  66.394  1.00  0.00    -0.283 OA 
ENDROOT
BRANCH   2   3
HETATM    3  C   UNL     1      -9.671   5.294  67.194  1.00  0.00    -0.151 C  
BRANCH   3   4
HETATM    4  C   UNL     1      -8.935   3.969  67.329  1.00  0.00    -0.133 C  
BRANCH   4   5
HETATM    5  O   UNL     1      -9.124   3.466  68.651  1.00  0.00    -0.121 OA 
BRANCH   5   6
HETATM    6  C   UNL     1      -7.952   3.652  69.440  1.00  0.00    -0.054 C  
BRANCH   6   7
HETATM    7  C   UNL     1      -8.251   4.625  70.568  1.00  0.00    -0.085 C  
BRANCH   7   8
HETATM    8  O   UNL     1      -8.473   3.876  71.761  1.00  0.00    -0.087 OA 
BRANCH   8   9
HETATM    9  C   UNL     1      -9.863   3.710  72.017  1.00  0.00    -0.174 C  
BRANCH   9  10
HETATM   10  C   UNL     1     -10.259   4.609  73.175  1.00  0.00    -0.170 C  
BRANCH  10  11
HETATM   11  O   UNL     1     -11.494   5.237  72.857  1.00  0.00    -0.307 OA 
BRANCH  11  12
HETATM   12  C   UNL     1     -11.308   6.310  71.942  1.00  0.00    -0.299 C  
BRANCH  12  13
HETATM   13  C   UNL     1     -11.440   7.620  72.700  1.00  0.00    -0.349 C  
BRANCH  13  14
HETATM   14  O   UNL     1     -11.953   8.618  71.829  1.00  0.00    -0.294 OA 
BRANCH  14  15
HETATM   15  C   UNL     1     -11.264   8.592  70.585  1.00  0.00    -0.252 C  
BRANCH  15  16
HETATM   16  C   UNL     1     -10.439   9.857  70.418  1.00  0.00    -0.285 C  
BRANCH  16  17
HETATM   17  O   UNL     1      -9.108   9.462  70.111  1.00  0.00    -0.194 OA 
BRANCH  17  18
HETATM   18  C   UNL     1      -9.056   8.492  69.078  1.00  0.00    -0.146 C  
BRANCH  18  19
HETATM   19  C   UNL     1      -7.732   8.658  68.356  1.00  0.00    -0.100 C  
BRANCH  19  20
HETATM   20  O   UNL     1      -6.970   9.683  68.978  1.00  0.00    -0.056 OA 
BRANCH  20  21
HETATM   21  C   UNL     1      -5.709   9.872  68.338  1.00  0.00    -0.042 C  
BRANCH  21  22
HETATM   22  C   UNL     1      -5.788  10.990  67.292  1.00  0.00    -0.053 C  
BRANCH  22  23
HETATM   23  O   UNL     1      -6.091  12.312  67.807  1.00  0.00    -0.075 OA 
BRANCH  23  24
HETATM   24  C   UNL     1      -7.163  12.998  67.116  1.00  0.00     0.061 C  
HETATM   25  C   UNL     1      -8.477  12.322  67.389  1.00  0.00    -0.176 C  
HETATM   26  C   UNL     1      -9.294  12.912  68.679  1.00  0.00     0.014 C  
HETATM   27  C   UNL     1      -9.496  14.538  68.844  1.00  0.00    -0.144 C  
HETATM   28  C   UNL     1     -10.795  15.572  68.689  1.00  0.00    -0.267 C  
HETATM   29  O   UNL     1      -8.786  14.857  70.049  1.00  0.00    -0.397 OA 
HETATM   30  C   UNL     1     -10.593  17.051  69.031  1.00  0.00    -0.314 C  
HETATM   31  H   UNL     1      -8.903  15.795  70.144  1.00  0.00     0.000 HD 
HETATM   32  C   UNL     1      -9.354  17.437  68.261  1.00  0.00    -0.278 A  
HETATM   33  C   UNL     1      -8.803  18.701  68.344  1.00  0.00    -0.367 A  
HETATM   34  C   UNL     1      -7.507  18.947  67.915  1.00  0.00    -0.269 A  
HETATM   35  C   UNL     1      -6.706  17.887  67.403  1.00  0.00    -0.176 A  
HETATM   36  O   UNL     1      -5.373  18.084  67.219  1.00  0.00    -0.128 OA 
HETATM   37  C   UNL     1      -7.292  16.640  67.202  1.00  0.00    -0.185 A  
HETATM   38  H   UNL     1      -4.838  17.377  66.877  1.00  0.00     0.000 HD 
HETATM   39  C   UNL     1      -8.621  16.392  67.570  1.00  0.00    -0.185 A  
HETATM   40  C   UNL     1      -8.931  14.920  67.533  1.00  0.00    -0.190 C  
HETATM   41  C   UNL     1      -7.397  14.465  67.539  1.00  0.00    -0.186 C  
HETATM   42  C   UNL     1     -10.324  14.287  66.576  1.00  0.00    -0.278 C  
HETATM   43  O   UNL     1      -6.637  15.478  66.826  1.00  0.00    -0.142 OA 
HETATM   44  C   UNL     1     -11.846  14.033  67.501  1.00  0.00    -0.407 C  
HETATM   45  N   UNL     1     -12.068  14.925  68.664  1.00  0.00    -0.225 NA 
BRANCH  45  46
HETATM   46  C   UNL     1     -12.330  14.420  70.000  1.00  0.00    -0.336 C  
BRANCH  46  47
HETATM   47  C   UNL     1     -13.133  15.330  70.869  1.00  0.00    -0.523 C  
HETATM   48  C   UNL     1     -12.790  15.629  72.127  1.00  0.00    -0.517 C  
ENDBRANCH  46  47
ENDBRANCH  45  46
ENDBRANCH  23  24
ENDBRANCH  22  23
ENDBRANCH  21  22
ENDBRANCH  20  21
ENDBRANCH  19  20
ENDBRANCH  18  19
ENDBRANCH  17  18
ENDBRANCH  16  17
ENDBRANCH  15  16
ENDBRANCH  14  15
ENDBRANCH  13  14
ENDBRANCH  12  13
ENDBRANCH  11  12
ENDBRANCH  10  11
ENDBRANCH   9  10
ENDBRANCH   8   9
ENDBRANCH   7   8
ENDBRANCH   6   7
ENDBRANCH   5   6
ENDBRANCH   4   5
ENDBRANCH   3   4
ENDBRANCH   2   3
TORSDOF 24
ENDMDL
MODEL      109
REMARK 921   NORMALIZED FREE ENERGY PREDICTED BY IDOCK:   -3.88 KCAL/MOL
REMARK 922        TOTAL FREE ENERGY PREDICTED BY IDOCK:  -11.61 KCAL/MOL
REMARK 923 INTER-LIGAND FREE ENERGY PREDICTED BY IDOCK:  -10.15 KCAL/MOL
REMARK 924 INTRA-LIGAND FREE ENERGY PREDICTED BY IDOCK:   -1.46 KCAL/MOL
REMARK 927      BINDING AFFINITY PREDICTED BY RF-SCORE:    0.00 PKD
ROOT
HETATM    1  C   UNL     1     -11.125   6.377  67.685  1.00  0.00    -0.289 C  
HETATM    2  O   UNL     1      -9.950   6.454  66.890  1.00  0.00    -0.148 OA 
ENDROOT
BRANCH   2   3
HETATM    3  C   UNL     1      -9.450   5.155  66.577  1.00  0.00    -0.148 C  
BRANCH   3   4
HETATM    4  C   UNL     1      -9.050   4.447  67.863  1.00  0.00    -0.127 C  
BRANCH   4   5
HETATM    5  O   UNL     1      -9.778   3.224  67.966  1.00  0.00    -0.144 OA 
BRANCH   5   6
HETATM    6  C   UNL     1      -8.935   2.165  68.413  1.00  0.00    -0.134 C  
BRANCH   6   7
HETATM    7  C   UNL     1      -8.630   2.349  69.890  1.00  0.00    -0.052 C  
BRANCH   7   8
HETATM    8  O   UNL     1      -9.771   2.929  70.516  1.00  0.00    -0.141 OA 
BRANCH   8   9
HETATM    9  C   UNL     1     -10.056   2.301  71.760  1.00  0.00    -0.074 C  
BRANCH   9  10
HETATM   10  C   UNL     1     -10.302   3.373  72.807  1.00  0.00    -0.159 C  
BRANCH  10  11
HETATM   11  O   UNL     1      -9.421   4.460  72.555  1.00  0.00    -0.131 OA 
BRANCH  11  12
HETATM   12  C   UNL     1      -9.976   5.690  73.007  1.00  0.00    -0.173 C  
BRANCH  12  13
HETATM   13  C   UNL     1     -11.470   5.676  72.735  1.00  0.00    -0.274 C  
BRANCH  13  14
HETATM   14  O   UNL     1     -11.742   6.419  71.555  1.00  0.00    -0.308 OA 
BRANCH  14  15
HETATM   15  C   UNL     1     -12.410   7.633  71.877  1.00  0.00    -0.306 C  
BRANCH  15  16
HETATM   16  C   UNL     1     -11.446   8.803  71.777  1.00  0.00    -0.342 C  
BRANCH  16  17
HETATM   17  O   UNL     1     -12.203   9.995  71.941  1.00  0.00    -0.351 OA 
BRANCH  17  18
HETATM   18  C   UNL     1     -12.434  10.664  70.712  1.00  0.00    -0.385 C  
BRANCH  18  19
HETATM   19  C   UNL     1     -11.184  10.517  69.865  1.00  0.00    -0.307 C  
BRANCH  19  20
HETATM   20  O   UNL     1     -10.922  11.734  69.179  1.00  0.00    -0.232 OA 
BRANCH  20  21
HETATM   21  C   UNL     1     -11.933  12.031  68.217  1.00  0.00    -0.179 C  
BRANCH  21  22
HETATM   22  C   UNL     1     -11.866  13.502  67.791  1.00  0.00    -0.362 C  
BRANCH  22  23
HETATM   23  O   UNL     1     -11.620  13.737  66.380  1.00  0.00    -0.331 OA 
BRANCH  23  24
HETATM   24  C   UNL     1     -10.315  14.286  66.079  1.00  0.00    -0.309 C  
HETATM   25  C   UNL     1     -10.429  15.745  65.737  1.00  0.00    -0.384 C  
HETATM   26  C   UNL     1     -10.264  16.760  67.009  1.00  0.00    -0.292 C  
HETATM   27  C   UNL     1      -9.006  16.563  68.054  1.00  0.00    -0.204 C  
HETATM   28  C   UNL     1      -7.598  17.406  68.355  1.00  0.00    -0.255 C  
HETATM   29  O   UNL     1      -9.637  16.246  69.302  1.00  0.00    -0.248 OA 
HETATM   30  C   UNL     1      -6.706  16.944  69.510  1.00  0.00    -0.169 C  
HETATM   31  H   UNL     1      -8.910  16.132  69.905  1.00  0.00     0.000 HD 
HETATM   32  C   UNL     1      -6.544  15.462  69.275  1.00  0.00    -0.143 A  
HETATM   33  C   UNL     1      -5.836  14.655  70.144  1.00  0.00    -0.139 A  
HETATM   34  C   UNL     1      -5.971  13.275  70.110  1.00  0.00    -0.139 A  
HETATM   35  C   UNL     1      -6.870  12.662  69.191  1.00  0.00    -0.057 A  
HETATM   36  O   UNL     1      -7.176  11.344  69.331  1.00  0.00    -0.240 OA 
HETATM   37  C   UNL     1      -7.493  13.457  68.232  1.00  0.00    -0.129 A  
HETATM   38  H   UNL     1      -7.776  10.935  68.718  1.00  0.00     0.000 HD 
HETATM   39  C   UNL     1      -7.317  14.847  68.211  1.00  0.00    -0.109 A  
HETATM   40  C   UNL     1      -8.307  15.508  67.292  1.00  0.00    -0.218 C  
HETATM   41  C   UNL     1      -9.292  14.248  67.236  1.00  0.00    -0.213 C  
HETATM   42  C   UNL     1      -7.758  16.610  65.972  1.00  0.00     0.055 C  
HETATM   43  O   UNL     1      -8.476  13.049  67.345  1.00  0.00    -0.180 OA 
HETATM   44  C   UNL     1      -7.777  18.364  66.371  1.00  0.00    -0.262 C  
HETATM   45  N   UNL     1      -7.562  18.719  67.794  1.00  0.00    -0.228 NA 
BRANCH  45  46
HETATM   46  C   UNL     1      -8.493  19.543  68.545  1.00  0.00    -0.338 C  
BRANCH  46  47
HETATM   47  C   UNL     1      -9.537  20.221  67.721  1.00  0.00    -0.486 C  
HETATM   48  C   UNL     1     -10.796  19.781  67.630  1.00  0.00    -0.361 C  
ENDBRANCH  46  47
ENDBRANCH  45  46
ENDBRANCH  23  24
ENDBRANCH  22  23
ENDBRANCH  21  22
ENDBRANCH  20  21
ENDBRANCH  19  20
ENDBRANCH  18  19
ENDBRANCH  17  18
ENDBRANCH  16  17
ENDBRANCH  15  16
ENDBRANCH  14  15
ENDBRANCH  13  14
ENDBRANCH  12  13
ENDBRANCH  11  12
ENDBRANCH  10  11
ENDBRANCH   9  10
ENDBRANCH   8   9
ENDBRANCH   7   8
ENDBRANCH   6   7
ENDBRANCH   5   6
ENDBRANCH   4   5
ENDBRANCH   3   4
ENDBRANCH   2   3
TORSDOF 24
ENDMDL
MODEL      110
REMARK 921   NORMALIZED FREE ENERGY PREDICTED BY IDOCK:   -3.84 KCAL/MOL
REMARK 922        TOTAL FREE ENERGY PREDICTED BY IDOCK:  -11.53 KCAL/MOL
REMARK 923 INTER-LIGAND FREE ENERGY PREDICTED BY IDOCK:   -9.16 KCAL/MOL
REMARK 924 INTRA-LIGAND FREE ENERGY PREDICTED BY IDOCK:   -2.37 KCAL/MOL
REMARK 927      BINDING AFFINITY PREDICTED BY RF-SCORE:    0.00 PKD
ROOT
HETATM    1  C   UNL     1     -10.685  17.642  67.862  1.00  0.00    -0.337 C  
HETATM    2  O   UNL     1      -9.382  17.891  68.372  1.00  0.00    -0.273 OA 
ENDROOT
BRANCH   2   3
HETATM    3  C   UNL     1      -8.672  16.675  68.596  1.00  0.00    -0.250 C  
BRANCH   3   4
HETATM    4  C   UNL     1      -7.263  16.996  69.073  1.00  0.00    -0.229 C  
BRANCH   4   5
HETATM    5  O   UNL     1      -6.433  15.852  68.875  1.00  0.00    -0.113 OA 
BRANCH   5   6
HETATM    6  C   UNL     1      -6.019  15.300  70.122  1.00  0.00    -0.144 C  
BRANCH   6   7
HETATM    7  C   UNL     1      -5.584  13.859  69.918  1.00  0.00    -0.108 C  
BRANCH   7   8
HETATM    8  O   UNL     1      -6.051  13.088  71.023  1.00  0.00    -0.204 OA 
BRANCH   8   9
HETATM    9  C   UNL     1      -5.133  12.054  71.359  1.00  0.00    -0.087 C  
BRANCH   9  10
HETATM   10  C   UNL     1      -5.715  10.720  70.921  1.00  0.00    -0.066 C  
BRANCH  10  11
HETATM   11  O   UNL     1      -6.172  10.027  72.075  1.00  0.00    -0.204 OA 
BRANCH  11  12
HETATM   12  C   UNL     1      -6.256   8.627  71.837  1.00  0.00    -0.071 C  
BRANCH  12  13
HETATM   13  C   UNL     1      -7.098   8.000  72.935  1.00  0.00    -0.095 C  
BRANCH  13  14
HETATM   14  O   UNL     1      -6.665   6.665  73.157  1.00  0.00    -0.067 OA 
BRANCH  14  15
HETATM   15  C   UNL     1      -7.742   5.867  73.631  1.00  0.00    -0.097 C  
BRANCH  15  16
HETATM   16  C   UNL     1      -8.649   5.474  72.478  1.00  0.00    -0.121 C  
BRANCH  16  17
HETATM   17  O   UNL     1      -8.396   4.107  72.181  1.00  0.00    -0.098 OA 
BRANCH  17  18
HETATM   18  C   UNL     1      -9.574   3.403  71.825  1.00  0.00    -0.155 C  
BRANCH  18  19
HETATM   19  C   UNL     1      -9.202   2.386  70.763  1.00  0.00    -0.129 C  
BRANCH  19  20
HETATM   20  O   UNL     1      -7.992   2.775  70.128  1.00  0.00    -0.043 OA 
BRANCH  20  21
HETATM   21  C   UNL     1      -8.173   3.006  68.732  1.00  0.00    -0.060 C  
BRANCH  21  22
HETATM   22  C   UNL     1      -8.041   4.496  68.402  1.00  0.00    -0.082 C  
BRANCH  22  23
HETATM   23  O   UNL     1      -8.983   5.374  69.071  1.00  0.00    -0.106 OA 
BRANCH  23  24
HETATM   24  C   UNL     1      -8.529   6.741  69.226  1.00  0.00    -0.129 C  
HETATM   25  C   UNL     1      -7.884   7.224  67.958  1.00  0.00    -0.118 C  
HETATM   26  C   UNL     1      -8.901   7.965  66.912  1.00  0.00    -0.146 C  
HETATM   27  C   UNL     1      -9.924   9.135  67.459  1.00  0.00    -0.205 C  
HETATM   28  C   UNL     1      -9.992  10.793  67.295  1.00  0.00    -0.187 C  
HETATM   29  O   UNL     1     -11.231   8.588  67.232  1.00  0.00    -0.285 OA 
HETATM   30  C   UNL     1     -11.192  11.535  67.891  1.00  0.00    -0.344 C  
HETATM   31  H   UNL     1     -11.821   9.264  67.548  1.00  0.00     0.000 HD 
HETATM   32  C   UNL     1     -11.276  11.014  69.304  1.00  0.00    -0.321 A  
HETATM   33  C   UNL     1     -12.277  11.408  70.172  1.00  0.00    -0.401 A  
HETATM   34  C   UNL     1     -12.546  10.689  71.327  1.00  0.00    -0.533 A  
HETATM   35  C   UNL     1     -11.809   9.508  71.628  1.00  0.00    -0.397 A  
HETATM   36  O   UNL     1     -12.240   8.685  72.622  1.00  0.00    -0.373 OA 
HETATM   37  C   UNL     1     -10.721   9.174  70.826  1.00  0.00    -0.263 A  
HETATM   38  H   UNL     1     -11.749   7.897  72.823  1.00  0.00     0.000 HD 
HETATM   39  C   UNL     1     -10.396   9.927  69.690  1.00  0.00    -0.265 A  
HETATM   40  C   UNL     1      -9.386   9.212  68.833  1.00  0.00    -0.146 C  
HETATM   41  C   UNL     1      -9.634   7.782  69.508  1.00  0.00    -0.160 C  
HETATM   42  C   UNL     1      -7.843  10.013  68.349  1.00  0.00    -0.089 C  
HETATM   43  O   UNL     1      -9.974   8.010  70.903  1.00  0.00    -0.185 OA 
HETATM   44  C   UNL     1      -7.855  10.800  66.731  1.00  0.00    -0.135 C  
HETATM   45  N   UNL     1      -9.160  11.321  66.260  1.00  0.00    -0.193 NA 
BRANCH  45  46
HETATM   46  C   UNL     1      -9.744  10.936  64.988  1.00  0.00    -0.267 C  
BRANCH  46  47
HETATM   47  C   UNL     1     -10.133  12.075  64.105  1.00  0.00    -0.340 C  
HETATM   48  C   UNL     1     -11.401  12.350  63.782  1.00  0.00    -0.536 C  
ENDBRANCH  46  47
ENDBRANCH  45  46
ENDBRANCH  23  24
ENDBRANCH  22  23
ENDBRANCH  21  22
ENDBRANCH  20  21
ENDBRANCH  19  20
ENDBRANCH  18  19
ENDBRANCH  17  18
ENDBRANCH  16  17
ENDBRANCH  15  16
ENDBRANCH  14  15
ENDBRANCH  13  14
ENDBRANCH  12  13
ENDBRANCH  11  12
ENDBRANCH  10  11
ENDBRANCH   9  10
ENDBRANCH   8   9
ENDBRANCH   7   8
ENDBRANCH   6   7
ENDBRANCH   5   6
ENDBRANCH   4   5
ENDBRANCH   3   4
ENDBRANCH   2   3
TORSDOF 24
ENDMDL
MODEL      111
REMARK 921   NORMALIZED FREE ENERGY PREDICTED BY IDOCK:   -3.83 KCAL/MOL
REMARK 922        TOTAL FREE ENERGY PREDICTED BY IDOCK:  -11.50 KCAL/MOL
REMARK 923 INTER-LIGAND FREE ENERGY PREDICTED BY IDOCK:   -8.61 KCAL/MOL
REMARK 924 INTRA-LIGAND FREE ENERGY PREDICTED BY IDOCK:   -2.88 KCAL/MOL
REMARK 927      BINDING AFFINITY PREDICTED BY RF-SCORE:    0.00 PKD
ROOT
HETATM    1  C   UNL     1     -11.812  15.650  64.434  1.00  0.00    -0.182 C  
HETATM    2  O   UNL     1     -12.431  14.696  63.582  1.00  0.00    -0.754 OA 
ENDROOT
BRANCH   2   3
HETATM    3  C   UNL     1     -12.057  13.366  63.936  1.00  0.00    -0.455 C  
BRANCH   3   4
HETATM    4  C   UNL     1     -12.911  12.897  65.104  1.00  0.00    -0.222 C  
BRANCH   4   5
HETATM    5  O   UNL     1     -12.106  12.110  65.982  1.00  0.00    -0.612 OA 
BRANCH   5   6
HETATM    6  C   UNL     1     -10.737  12.148  65.589  1.00  0.00    -0.275 C  
BRANCH   6   7
HETATM    7  C   UNL     1     -10.106  10.785  65.819  1.00  0.00    -0.261 C  
BRANCH   7   8
HETATM    8  O   UNL     1      -8.705  10.891  65.578  1.00  0.00    -0.187 OA 
BRANCH   8   9
HETATM    9  C   UNL     1      -8.357  10.371  64.300  1.00  0.00    -0.138 C  
BRANCH   9  10
HETATM   10  C   UNL     1      -8.306   8.856  64.384  1.00  0.00    -0.168 C  
BRANCH  10  11
HETATM   11  O   UNL     1      -6.944   8.455  64.465  1.00  0.00    -0.071 OA 
BRANCH  11  12
HETATM   12  C   UNL     1      -6.830   7.048  64.642  1.00  0.00    -0.050 C  
BRANCH  12  13
HETATM   13  C   UNL     1      -5.385   6.646  64.401  1.00  0.00    -0.026 C  
BRANCH  13  14
HETATM   14  O   UNL     1      -5.282   5.983  63.149  1.00  0.00    -0.016 OA 
BRANCH  14  15
HETATM   15  C   UNL     1      -6.575   5.648  62.658  1.00  0.00    -0.029 C  
BRANCH  15  16
HETATM   16  C   UNL     1      -6.718   4.140  62.547  1.00  0.00    -0.030 C  
BRANCH  16  17
HETATM   17  O   UNL     1      -8.075   3.818  62.823  1.00  0.00    -0.073 OA 
BRANCH  17  18
HETATM   18  C   UNL     1      -8.245   3.252  64.113  1.00  0.00    -0.089 C  
BRANCH  18  19
HETATM   19  C   UNL     1      -9.735   3.119  64.365  1.00  0.00    -0.154 C  
BRANCH  19  20
HETATM   20  O   UNL     1     -10.174   4.167  65.219  1.00  0.00    -0.220 OA 
BRANCH  20  21
HETATM   21  C   UNL     1      -9.125   4.641  66.062  1.00  0.00    -0.131 C  
BRANCH  21  22
HETATM   22  C   UNL     1      -9.674   5.079  67.424  1.00  0.00    -0.158 C  
BRANCH  22  23
HETATM   23  O   UNL     1     -10.900   5.854  67.388  1.00  0.00    -0.276 OA 
BRANCH  23  24
HETATM   24  C   UNL     1     -10.975   6.912  68.374  1.00  0.00    -0.132 C  
HETATM   25  C   UNL     1     -11.647   6.413  69.623  1.00  0.00    -0.351 C  
HETATM   26  C   UNL     1     -10.631   5.802  70.750  1.00  0.00    -0.337 C  
HETATM   27  C   UNL     1      -9.284   6.648  71.181  1.00  0.00    -0.159 C  
HETATM   28  C   UNL     1      -8.831   7.502  72.540  1.00  0.00    -0.132 C  
HETATM   29  O   UNL     1      -8.198   5.805  70.774  1.00  0.00    -0.118 OA 
HETATM   30  C   UNL     1      -7.415   8.082  72.595  1.00  0.00    -0.141 C  
HETATM   31  H   UNL     1      -7.422   6.294  71.023  1.00  0.00     0.000 HD 
HETATM   32  C   UNL     1      -7.270   8.814  71.284  1.00  0.00    -0.105 A  
HETATM   33  C   UNL     1      -6.094   9.443  70.922  1.00  0.00    -0.069 A  
HETATM   34  C   UNL     1      -5.856   9.813  69.606  1.00  0.00    -0.037 A  
HETATM   35  C   UNL     1      -6.814   9.525  68.593  1.00  0.00    -0.057 A  
HETATM   36  O   UNL     1      -6.469   9.667  67.285  1.00  0.00    -0.068 OA 
HETATM   37  C   UNL     1      -8.050   9.004  68.968  1.00  0.00    -0.107 A  
HETATM   38  H   UNL     1      -7.109   9.475  66.609  1.00  0.00     0.000 HD 
HETATM   39  C   UNL     1      -8.331   8.684  70.303  1.00  0.00    -0.129 A  
HETATM   40  C   UNL     1      -9.593   7.874  70.414  1.00  0.00    -0.171 C  
HETATM   41  C   UNL     1      -9.618   7.459  68.869  1.00  0.00    -0.148 C  
HETATM   42  C   UNL     1     -10.941   8.395  71.496  1.00  0.00    -0.326 C  
HETATM   43  O   UNL     1      -9.045   8.560  68.112  1.00  0.00    -0.138 OA 
HETATM   44  C   UNL     1     -10.956   7.643  73.130  1.00  0.00    -0.353 C  
HETATM   45  N   UNL     1      -9.639   7.257  73.691  1.00  0.00    -0.244 NA 
BRANCH  45  46
HETATM   46  C   UNL     1      -9.348   5.911  74.153  1.00  0.00    -0.139 C  
BRANCH  46  47
HETATM   47  C   UNL     1     -10.540   5.021  74.284  1.00  0.00    -0.310 C  
HETATM   48  C   UNL     1     -10.474   3.690  74.171  1.00  0.00    -0.264 C  
ENDBRANCH  46  47
ENDBRANCH  45  46
ENDBRANCH  23  24
ENDBRANCH  22  23
ENDBRANCH  21  22
ENDBRANCH  20  21
ENDBRANCH  19  20
ENDBRANCH  18  19
ENDBRANCH  17  18
ENDBRANCH  16  17
ENDBRANCH  15  16
ENDBRANCH  14  15
ENDBRANCH  13  14
ENDBRANCH  12  13
ENDBRANCH  11  12
ENDBRANCH  10  11
ENDBRANCH   9  10
ENDBRANCH   8   9
ENDBRANCH   7   8
ENDBRANCH   6   7
ENDBRANCH   5   6
ENDBRANCH   4   5
ENDBRANCH   3   4
ENDBRANCH   2   3
TORSDOF 24
ENDMDL
MODEL      112
REMARK 921   NORMALIZED FREE ENERGY PREDICTED BY IDOCK:   -3.79 KCAL/MOL
REMARK 922        TOTAL FREE ENERGY PREDICTED BY IDOCK:  -11.39 KCAL/MOL
REMARK 923 INTER-LIGAND FREE ENERGY PREDICTED BY IDOCK:   -9.28 KCAL/MOL
REMARK 924 INTRA-LIGAND FREE ENERGY PREDICTED BY IDOCK:   -2.11 KCAL/MOL
REMARK 927      BINDING AFFINITY PREDICTED BY RF-SCORE:    0.00 PKD
ROOT
HETATM    1  C   UNL     1     -13.132  14.968  71.694  1.00  0.00    -0.364 C  
HETATM    2  O   UNL     1     -12.772  15.861  70.648  1.00  0.00    -0.392 OA 
ENDROOT
BRANCH   2   3
HETATM    3  C   UNL     1     -11.948  15.218  69.678  1.00  0.00    -0.338 C  
BRANCH   3   4
HETATM    4  C   UNL     1     -11.454  16.249  68.675  1.00  0.00    -0.288 C  
BRANCH   4   5
HETATM    5  O   UNL     1     -10.033  16.158  68.576  1.00  0.00    -0.218 OA 
BRANCH   5   6
HETATM    6  C   UNL     1      -9.644  14.959  67.913  1.00  0.00    -0.205 C  
BRANCH   6   7
HETATM    7  C   UNL     1      -8.284  14.514  68.426  1.00  0.00    -0.150 C  
BRANCH   7   8
HETATM    8  O   UNL     1      -7.305  14.833  67.440  1.00  0.00    -0.192 OA 
BRANCH   8   9
HETATM    9  C   UNL     1      -6.005  14.920  68.010  1.00  0.00    -0.148 C  
BRANCH   9  10
HETATM   10  C   UNL     1      -5.473  13.516  68.238  1.00  0.00    -0.101 C  
BRANCH  10  11
HETATM   11  O   UNL     1      -5.468  12.829  66.993  1.00  0.00    -0.344 OA 
BRANCH  11  12
HETATM   12  C   UNL     1      -6.363  11.722  67.010  1.00  0.00    -0.150 C  
BRANCH  12  13
HETATM   13  C   UNL     1      -5.842  10.665  66.052  1.00  0.00    -0.127 C  
BRANCH  13  14
HETATM   14  O   UNL     1      -6.829  10.397  65.065  1.00  0.00    -0.126 OA 
BRANCH  14  15
HETATM   15  C   UNL     1      -7.623   9.281  65.448  1.00  0.00    -0.098 C  
BRANCH  15  16
HETATM   16  C   UNL     1      -9.093   9.663  65.457  1.00  0.00    -0.204 C  
BRANCH  16  17
HETATM   17  O   UNL     1      -9.175  11.051  65.159  1.00  0.00    -0.208 OA 
BRANCH  17  18
HETATM   18  C   UNL     1     -10.508  11.478  64.933  1.00  0.00    -0.291 C  
BRANCH  18  19
HETATM   19  C   UNL     1     -10.974  12.215  66.174  1.00  0.00    -0.298 C  
BRANCH  19  20
HETATM   20  O   UNL     1     -11.835  11.379  66.935  1.00  0.00    -0.489 OA 
BRANCH  20  21
HETATM   21  C   UNL     1     -11.645  11.555  68.338  1.00  0.00    -0.308 C  
BRANCH  21  22
HETATM   22  C   UNL     1     -10.377  10.837  68.812  1.00  0.00    -0.192 C  
BRANCH  22  23
HETATM   23  O   UNL     1     -10.578   9.790  69.797  1.00  0.00    -0.222 OA 
BRANCH  23  24
HETATM   24  C   UNL     1      -9.455   8.891  69.960  1.00  0.00    -0.178 C  
HETATM   25  C   UNL     1      -9.200   8.635  71.419  1.00  0.00    -0.303 C  
HETATM   26  C   UNL     1      -9.984   7.336  72.033  1.00  0.00    -0.184 C  
HETATM   27  C   UNL     1      -9.933   5.897  71.232  1.00  0.00    -0.187 C  
HETATM   28  C   UNL     1      -9.175   4.437  71.505  1.00  0.00    -0.136 C  
HETATM   29  O   UNL     1     -11.299   5.655  70.867  1.00  0.00    -0.142 OA 
HETATM   30  C   UNL     1      -9.465   3.277  70.549  1.00  0.00    -0.242 C  
HETATM   31  H   UNL     1     -11.269   4.825  70.404  1.00  0.00     0.000 HD 
HETATM   32  C   UNL     1      -9.259   3.874  69.179  1.00  0.00    -0.222 A  
HETATM   33  C   UNL     1      -9.477   3.149  68.023  1.00  0.00    -0.218 A  
HETATM   34  C   UNL     1      -9.614   3.781  66.796  1.00  0.00    -0.205 A  
HETATM   35  C   UNL     1      -9.561   5.201  66.709  1.00  0.00    -0.151 A  
HETATM   36  O   UNL     1      -9.939   5.816  65.556  1.00  0.00    -0.344 OA 
HETATM   37  C   UNL     1      -9.221   5.931  67.846  1.00  0.00    -0.108 A  
HETATM   38  H   UNL     1      -9.904   6.764  65.498  1.00  0.00     0.000 HD 
HETATM   39  C   UNL     1      -9.015   5.301  69.081  1.00  0.00    -0.124 A  
HETATM   40  C   UNL     1      -8.956   6.304  70.200  1.00  0.00    -0.149 C  
HETATM   41  C   UNL     1      -9.637   7.481  69.356  1.00  0.00    -0.155 C  
HETATM   42  C   UNL     1      -7.550   6.353  71.331  1.00  0.00    -0.094 C  
HETATM   43  O   UNL     1      -9.238   7.311  67.968  1.00  0.00    -0.133 OA 
HETATM   44  C   UNL     1      -7.768   5.453  72.874  1.00  0.00    -0.098 C  
HETATM   45  N   UNL     1      -8.665   4.273  72.829  1.00  0.00    -0.104 NA 
BRANCH  45  46
HETATM   46  C   UNL     1      -9.800   4.118  73.721  1.00  0.00    -0.119 C  
BRANCH  46  47
HETATM   47  C   UNL     1      -9.931   2.767  74.342  1.00  0.00    -0.161 C  
HETATM   48  C   UNL     1      -8.912   1.906  74.439  1.00  0.00    -0.069 C  
ENDBRANCH  46  47
ENDBRANCH  45  46
ENDBRANCH  23  24
ENDBRANCH  22  23
ENDBRANCH  21  22
ENDBRANCH  20  21
ENDBRANCH  19  20
ENDBRANCH  18  19
ENDBRANCH  17  18
ENDBRANCH  16  17
ENDBRANCH  15  16
ENDBRANCH  14  15
ENDBRANCH  13  14
ENDBRANCH  12  13
ENDBRANCH  11  12
ENDBRANCH  10  11
ENDBRANCH   9  10
ENDBRANCH   8   9
ENDBRANCH   7   8
ENDBRANCH   6   7
ENDBRANCH   5   6
ENDBRANCH   4   5
ENDBRANCH   3   4
ENDBRANCH   2   3
TORSDOF 24
ENDMDL
MODEL      113
REMARK 921   NORMALIZED FREE ENERGY PREDICTED BY IDOCK:   -3.76 KCAL/MOL
REMARK 922        TOTAL FREE ENERGY PREDICTED BY IDOCK:  -11.34 KCAL/MOL
REMARK 923 INTER-LIGAND FREE ENERGY PREDICTED BY IDOCK:   -9.59 KCAL/MOL
REMARK 924 INTRA-LIGAND FREE ENERGY PREDICTED BY IDOCK:   -1.74 KCAL/MOL
REMARK 927      BINDING AFFINITY PREDICTED BY RF-SCORE:    0.00 PKD
ROOT
HETATM    1  C   UNL     1     -10.572  19.829  65.714  1.00  0.00    -0.419 C  
HETATM    2  O   UNL     1      -9.764  18.670  65.870  1.00  0.00    -0.498 OA 
ENDROOT
BRANCH   2   3
HETATM    3  C   UNL     1     -10.360  17.741  66.773  1.00  0.00    -0.343 C  
BRANCH   3   4
HETATM    4  C   UNL     1      -9.870  18.027  68.185  1.00  0.00    -0.340 C  
BRANCH   4   5
HETATM    5  O   UNL     1      -8.518  18.480  68.125  1.00  0.00    -0.280 OA 
BRANCH   5   6
HETATM    6  C   UNL     1      -7.665  17.644  68.901  1.00  0.00    -0.205 C  
BRANCH   6   7
HETATM    7  C   UNL     1      -7.065  16.566  68.013  1.00  0.00    -0.143 C  
BRANCH   7   8
HETATM    8  O   UNL     1      -7.542  15.299  68.459  1.00  0.00    -0.112 OA 
BRANCH   8   9
HETATM    9  C   UNL     1      -7.300  14.284  67.491  1.00  0.00    -0.179 C  
BRANCH   9  10
HETATM   10  C   UNL     1      -8.544  13.421  67.364  1.00  0.00    -0.204 C  
BRANCH  10  11
HETATM   11  O   UNL     1      -9.459  14.075  66.494  1.00  0.00    -0.277 OA 
BRANCH  11  12
HETATM   12  C   UNL     1     -10.789  13.999  66.992  1.00  0.00    -0.290 C  
BRANCH  12  13
HETATM   13  C   UNL     1     -11.494  12.838  66.311  1.00  0.00    -0.354 C  
BRANCH  13  14
HETATM   14  O   UNL     1     -11.991  11.945  67.298  1.00  0.00    -0.605 OA 
BRANCH  14  15
HETATM   15  C   UNL     1     -11.902  12.534  68.590  1.00  0.00    -0.297 C  
BRANCH  15  16
HETATM   16  C   UNL     1     -12.157  11.487  69.660  1.00  0.00    -0.296 C  
BRANCH  16  17
HETATM   17  O   UNL     1     -12.496  12.174  70.858  1.00  0.00    -0.368 OA 
BRANCH  17  18
HETATM   18  C   UNL     1     -13.270  11.376  71.739  1.00  0.00    -0.367 C  
BRANCH  18  19
HETATM   19  C   UNL     1     -13.004   9.922  71.399  1.00  0.00    -0.407 C  
BRANCH  19  20
HETATM   20  O   UNL     1     -13.381   9.096  72.492  1.00  0.00    -0.458 OA 
BRANCH  20  21
HETATM   21  C   UNL     1     -12.462   8.023  72.691  1.00  0.00    -0.060 C  
BRANCH  21  22
HETATM   22  C   UNL     1     -11.590   7.812  71.448  1.00  0.00    -0.276 C  
BRANCH  22  23
HETATM   23  O   UNL     1     -12.093   6.853  70.483  1.00  0.00    -0.353 OA 
BRANCH  23  24
HETATM   24  C   UNL     1     -11.082   5.997  69.899  1.00  0.00    -0.399 C  
HETATM   25  C   UNL     1     -10.601   6.570  68.596  1.00  0.00    -0.289 C  
HETATM   26  C   UNL     1      -9.305   7.562  68.722  1.00  0.00    -0.147 C  
HETATM   27  C   UNL     1      -7.995   7.086  69.600  1.00  0.00    -0.124 C  
HETATM   28  C   UNL     1      -6.448   6.596  69.214  1.00  0.00    -0.039 C  
HETATM   29  O   UNL     1      -7.931   8.038  70.671  1.00  0.00    -0.091 OA 
HETATM   30  C   UNL     1      -5.465   6.324  70.356  1.00  0.00    -0.014 C  
HETATM   31  H   UNL     1      -7.175   7.764  71.178  1.00  0.00     0.000 HD 
HETATM   32  C   UNL     1      -6.228   5.411  71.283  1.00  0.00    -0.034 A  
HETATM   33  C   UNL     1      -5.695   4.969  72.479  1.00  0.00    -0.017 A  
HETATM   34  C   UNL     1      -6.504   4.422  73.464  1.00  0.00    -0.051 A  
HETATM   35  C   UNL     1      -7.912   4.330  73.271  1.00  0.00    -0.090 A  
HETATM   36  O   UNL     1      -8.715   4.025  74.325  1.00  0.00    -0.095 OA 
HETATM   37  C   UNL     1      -8.440   4.658  72.024  1.00  0.00    -0.118 A  
HETATM   38  H   UNL     1      -9.654   3.963  74.197  1.00  0.00     0.000 HD 
HETATM   39  C   UNL     1      -7.627   5.152  70.996  1.00  0.00    -0.087 A  
HETATM   40  C   UNL     1      -8.453   5.707  69.867  1.00  0.00    -0.121 C  
HETATM   41  C   UNL     1      -9.793   5.823  70.734  1.00  0.00    -0.183 C  
HETATM   42  C   UNL     1      -8.214   5.135  68.172  1.00  0.00    -0.097 C  
HETATM   43  O   UNL     1      -9.785   4.738  71.701  1.00  0.00    -0.154 OA 
HETATM   44  C   UNL     1      -7.129   6.152  67.159  1.00  0.00    -0.070 C  
HETATM   45  N   UNL     1      -6.054   6.882  67.871  1.00  0.00    -0.031 NA 
BRANCH  45  46
HETATM   46  C   UNL     1      -5.878   8.320  67.762  1.00  0.00    -0.043 C  
BRANCH  46  47
HETATM   47  C   UNL     1      -6.946   9.026  66.995  1.00  0.00    -0.078 C  
HETATM   48  C   UNL     1      -7.120  10.352  67.035  1.00  0.00    -0.092 C  
ENDBRANCH  46  47
ENDBRANCH  45  46
ENDBRANCH  23  24
ENDBRANCH  22  23
ENDBRANCH  21  22
ENDBRANCH  20  21
ENDBRANCH  19  20
ENDBRANCH  18  19
ENDBRANCH  17  18
ENDBRANCH  16  17
ENDBRANCH  15  16
ENDBRANCH  14  15
ENDBRANCH  13  14
ENDBRANCH  12  13
ENDBRANCH  11  12
ENDBRANCH  10  11
ENDBRANCH   9  10
ENDBRANCH   8   9
ENDBRANCH   7   8
ENDBRANCH   6   7
ENDBRANCH   5   6
ENDBRANCH   4   5
ENDBRANCH   3   4
ENDBRANCH   2   3
TORSDOF 24
ENDMDL
MODEL      114
REMARK 921   NORMALIZED FREE ENERGY PREDICTED BY IDOCK:   -3.75 KCAL/MOL
REMARK 922        TOTAL FREE ENERGY PREDICTED BY IDOCK:  -11.30 KCAL/MOL
REMARK 923 INTER-LIGAND FREE ENERGY PREDICTED BY IDOCK:   -9.83 KCAL/MOL
REMARK 924 INTRA-LIGAND FREE ENERGY PREDICTED BY IDOCK:   -1.47 KCAL/MOL
REMARK 927      BINDING AFFINITY PREDICTED BY RF-SCORE:    0.00 PKD
ROOT
HETATM    1  C   UNL     1      -6.437  19.662  65.029  1.00  0.00    -0.269 C  
HETATM    2  O   UNL     1      -7.270  18.604  65.483  1.00  0.00    -0.506 OA 
ENDROOT
BRANCH   2   3
HETATM    3  C   UNL     1      -8.322  19.092  66.314  1.00  0.00    -0.299 C  
BRANCH   3   4
HETATM    4  C   UNL     1      -7.810  20.267  67.134  1.00  0.00    -0.333 C  
BRANCH   4   5
HETATM    5  O   UNL     1      -7.745  19.883  68.507  1.00  0.00    -0.308 OA 
BRANCH   5   6
HETATM    6  C   UNL     1      -6.408  19.956  68.994  1.00  0.00    -0.310 C  
BRANCH   6   7
HETATM    7  C   UNL     1      -5.755  18.588  68.889  1.00  0.00    -0.207 C  
BRANCH   7   8
HETATM    8  O   UNL     1      -6.124  17.824  70.035  1.00  0.00    -0.227 OA 
BRANCH   8   9
HETATM    9  C   UNL     1      -6.259  16.444  69.716  1.00  0.00    -0.204 C  
BRANCH   9  10
HETATM   10  C   UNL     1      -7.374  16.282  68.698  1.00  0.00    -0.180 C  
BRANCH  10  11
HETATM   11  O   UNL     1      -8.524  15.778  69.365  1.00  0.00    -0.246 OA 
BRANCH  11  12
HETATM   12  C   UNL     1      -9.689  16.516  69.016  1.00  0.00    -0.258 C  
BRANCH  12  13
HETATM   13  C   UNL     1     -10.570  15.643  68.138  1.00  0.00    -0.274 C  
BRANCH  13  14
HETATM   14  O   UNL     1     -11.777  15.348  68.826  1.00  0.00    -0.341 OA 
BRANCH  14  15
HETATM   15  C   UNL     1     -12.175  14.005  68.575  1.00  0.00    -0.174 C  
BRANCH  15  16
HETATM   16  C   UNL     1     -11.391  13.053  69.462  1.00  0.00    -0.155 C  
BRANCH  16  17
HETATM   17  O   UNL     1     -12.273  12.008  69.850  1.00  0.00    -0.254 OA 
BRANCH  17  18
HETATM   18  C   UNL     1     -12.910  12.269  71.090  1.00  0.00    -0.207 C  
BRANCH  18  19
HETATM   19  C   UNL     1     -13.233  10.934  71.734  1.00  0.00    -0.408 C  
BRANCH  19  20
HETATM   20  O   UNL     1     -12.450   9.910  71.136  1.00  0.00    -0.320 OA 
BRANCH  20  21
HETATM   21  C   UNL     1     -12.393   8.740  71.950  1.00  0.00    -0.363 C  
BRANCH  21  22
HETATM   22  C   UNL     1     -10.943   8.289  72.160  1.00  0.00    -0.326 C  
BRANCH  22  23
HETATM   23  O   UNL     1      -9.941   9.334  72.067  1.00  0.00    -0.164 OA 
BRANCH  23  24
HETATM   24  C   UNL     1      -8.842   9.039  71.172  1.00  0.00    -0.215 C  
HETATM   25  C   UNL     1      -8.416   7.605  71.325  1.00  0.00    -0.118 C  
HETATM   26  C   UNL     1      -9.166   6.558  70.316  1.00  0.00    -0.156 C  
HETATM   27  C   UNL     1      -9.272   6.905  68.709  1.00  0.00    -0.131 C  
HETATM   28  C   UNL     1      -8.543   6.301  67.336  1.00  0.00    -0.107 C  
HETATM   29  O   UNL     1     -10.681   7.031  68.473  1.00  0.00    -0.247 OA 
HETATM   30  C   UNL     1      -8.996   6.839  65.976  1.00  0.00    -0.129 C  
HETATM   31  H   UNL     1     -10.743   7.232  67.546  1.00  0.00     0.000 HD 
HETATM   32  C   UNL     1      -8.941   8.338  66.141  1.00  0.00    -0.222 A  
HETATM   33  C   UNL     1      -9.330   9.200  65.134  1.00  0.00    -0.180 A  
HETATM   34  C   UNL     1      -9.596  10.536  65.398  1.00  0.00    -0.291 A  
HETATM   35  C   UNL     1      -9.499  11.039  66.727  1.00  0.00    -0.182 A  
HETATM   36  O   UNL     1      -9.994  12.273  67.013  1.00  0.00    -0.208 OA 
HETATM   37  C   UNL     1      -8.991  10.209  67.723  1.00  0.00    -0.128 A  
HETATM   38  H   UNL     1      -9.930  12.609  67.900  1.00  0.00     0.000 HD 
HETATM   39  C   UNL     1      -8.656   8.874  67.458  1.00  0.00    -0.120 A  
HETATM   40  C   UNL     1      -8.417   8.110  68.732  1.00  0.00    -0.126 C  
HETATM   41  C   UNL     1      -9.153   9.182  69.665  1.00  0.00    -0.160 C  
HETATM   42  C   UNL     1      -6.880   7.202  68.998  1.00  0.00    -0.061 C  
HETATM   43  O   UNL     1      -8.938  10.494  69.078  1.00  0.00    -0.166 OA 
HETATM   44  C   UNL     1      -6.937   5.450  68.594  1.00  0.00    -0.060 C  
HETATM   45  N   UNL     1      -7.877   5.051  67.520  1.00  0.00    -0.095 NA 
BRANCH  45  46
HETATM   46  C   UNL     1      -8.897   4.034  67.709  1.00  0.00    -0.115 C  
BRANCH  46  47
HETATM   47  C   UNL     1      -8.378   2.640  67.832  1.00  0.00    -0.091 C  
HETATM   48  C   UNL     1      -9.052   1.660  68.443  1.00  0.00    -0.193 C  
ENDBRANCH  46  47
ENDBRANCH  45  46
ENDBRANCH  23  24
ENDBRANCH  22  23
ENDBRANCH  21  22
ENDBRANCH  20  21
ENDBRANCH  19  20
ENDBRANCH  18  19
ENDBRANCH  17  18
ENDBRANCH  16  17
ENDBRANCH  15  16
ENDBRANCH  14  15
ENDBRANCH  13  14
ENDBRANCH  12  13
ENDBRANCH  11  12
ENDBRANCH  10  11
ENDBRANCH   9  10
ENDBRANCH   8   9
ENDBRANCH   7   8
ENDBRANCH   6   7
ENDBRANCH   5   6
ENDBRANCH   4   5
ENDBRANCH   3   4
ENDBRANCH   2   3
TORSDOF 24
ENDMDL
MODEL      115
REMARK 921   NORMALIZED FREE ENERGY PREDICTED BY IDOCK:   -3.72 KCAL/MOL
REMARK 922        TOTAL FREE ENERGY PREDICTED BY IDOCK:  -11.24 KCAL/MOL
REMARK 923 INTER-LIGAND FREE ENERGY PREDICTED BY IDOCK:   -9.31 KCAL/MOL
REMARK 924 INTRA-LIGAND FREE ENERGY PREDICTED BY IDOCK:   -1.93 KCAL/MOL
REMARK 927      BINDING AFFINITY PREDICTED BY RF-SCORE:    0.00 PKD
ROOT
HETATM    1  C   UNL     1      -7.886   7.343  65.014  1.00  0.00    -0.124 C  
HETATM    2  O   UNL     1      -7.387   7.606  66.319  1.00  0.00    -0.076 OA 
ENDROOT
BRANCH   2   3
HETATM    3  C   UNL     1      -6.896   6.417  66.935  1.00  0.00    -0.066 C  
BRANCH   3   4
HETATM    4  C   UNL     1      -7.861   5.273  66.659  1.00  0.00    -0.100 C  
BRANCH   4   5
HETATM    5  O   UNL     1      -8.700   5.087  67.799  1.00  0.00    -0.104 OA 
BRANCH   5   6
HETATM    6  C   UNL     1      -7.934   4.706  68.939  1.00  0.00    -0.075 C  
BRANCH   6   7
HETATM    7  C   UNL     1      -8.505   5.375  70.178  1.00  0.00    -0.119 C  
BRANCH   7   8
HETATM    8  O   UNL     1      -8.609   4.397  71.210  1.00  0.00    -0.102 OA 
BRANCH   8   9
HETATM    9  C   UNL     1      -9.938   4.311  71.711  1.00  0.00    -0.184 C  
BRANCH   9  10
HETATM   10  C   UNL     1      -9.895   4.359  73.228  1.00  0.00    -0.134 C  
BRANCH  10  11
HETATM   11  O   UNL     1     -10.886   5.273  73.678  1.00  0.00    -0.276 OA 
BRANCH  11  12
HETATM   12  C   UNL     1     -11.199   6.232  72.675  1.00  0.00    -0.267 C  
BRANCH  12  13
HETATM   13  C   UNL     1     -10.548   7.552  73.048  1.00  0.00    -0.368 C  
BRANCH  13  14
HETATM   14  O   UNL     1     -11.189   8.608  72.345  1.00  0.00    -0.357 OA 
BRANCH  14  15
HETATM   15  C   UNL     1     -10.827   8.580  70.970  1.00  0.00    -0.241 C  
BRANCH  15  16
HETATM   16  C   UNL     1      -9.423   9.129  70.787  1.00  0.00    -0.272 C  
BRANCH  16  17
HETATM   17  O   UNL     1      -9.063   8.940  69.425  1.00  0.00    -0.142 OA 
BRANCH  17  18
HETATM   18  C   UNL     1     -10.127   8.408  68.653  1.00  0.00    -0.193 C  
BRANCH  18  19
HETATM   19  C   UNL     1     -10.669   9.525  67.781  1.00  0.00    -0.242 C  
BRANCH  19  20
HETATM   20  O   UNL     1      -9.603  10.141  67.072  1.00  0.00    -0.163 OA 
BRANCH  20  21
HETATM   21  C   UNL     1      -9.857  10.194  65.669  1.00  0.00    -0.280 C  
BRANCH  21  22
HETATM   22  C   UNL     1      -9.839  11.641  65.164  1.00  0.00    -0.249 C  
BRANCH  22  23
HETATM   23  O   UNL     1      -9.435  12.640  66.135  1.00  0.00    -0.239 OA 
BRANCH  23  24
HETATM   24  C   UNL     1     -10.466  13.597  66.482  1.00  0.00    -0.281 C  
HETATM   25  C   UNL     1     -11.338  13.050  67.578  1.00  0.00    -0.346 C  
HETATM   26  C   UNL     1     -10.852  13.431  69.093  1.00  0.00    -0.156 C  
HETATM   27  C   UNL     1     -10.465  14.990  69.459  1.00  0.00    -0.235 C  
HETATM   28  C   UNL     1     -11.192  16.189  70.361  1.00  0.00    -0.381 C  
HETATM   29  O   UNL     1      -9.071  14.933  69.793  1.00  0.00    -0.441 OA 
HETATM   30  C   UNL     1     -10.446  17.514  70.547  1.00  0.00     1.397 C  
HETATM   31  H   UNL     1      -8.848  15.833  70.004  1.00  0.00     0.000 HD 
HETATM   32  C   UNL     1     -10.042  17.903  69.146  1.00  0.00    -0.220 A  
HETATM   33  C   UNL     1      -9.292  19.034  68.887  1.00  0.00    -0.362 A  
HETATM   34  C   UNL     1      -8.648  19.203  67.670  1.00  0.00    -0.327 A  
HETATM   35  C   UNL     1      -8.726  18.194  66.668  1.00  0.00    -0.264 A  
HETATM   36  O   UNL     1      -7.901  18.255  65.589  1.00  0.00    -0.515 OA 
HETATM   37  C   UNL     1      -9.577  17.110  66.873  1.00  0.00    -0.262 A  
HETATM   38  H   UNL     1      -7.952  17.582  64.921  1.00  0.00     0.000 HD 
HETATM   39  C   UNL     1     -10.286  16.957  68.072  1.00  0.00    -0.310 A  
HETATM   40  C   UNL     1     -10.892  15.584  68.175  1.00  0.00    -0.296 C  
HETATM   41  C   UNL     1      -9.963  14.947  67.039  1.00  0.00    -0.240 C  
HETATM   42  C   UNL     1     -12.657  15.368  68.486  1.00  0.00     0.701 C  
HETATM   43  O   UNL     1      -9.686  15.990  66.065  1.00  0.00    -0.297 OA 
HETATM   44  C   UNL     1     -13.113  15.107  70.207  1.00  0.00    -0.103 C  
HETATM   45  N   UNL     1     -12.235  15.733  71.224  1.00  0.00    -0.410 NA 
BRANCH  45  46
HETATM   46  C   UNL     1     -11.617  14.975  72.298  1.00  0.00    -0.293 C  
BRANCH  46  47
HETATM   47  C   UNL     1     -12.352  15.013  73.596  1.00  0.00    -0.639 C  
HETATM   48  C   UNL     1     -12.476  16.121  74.334  1.00  0.00    -0.655 C  
ENDBRANCH  46  47
ENDBRANCH  45  46
ENDBRANCH  23  24
ENDBRANCH  22  23
ENDBRANCH  21  22
ENDBRANCH  20  21
ENDBRANCH  19  20
ENDBRANCH  18  19
ENDBRANCH  17  18
ENDBRANCH  16  17
ENDBRANCH  15  16
ENDBRANCH  14  15
ENDBRANCH  13  14
ENDBRANCH  12  13
ENDBRANCH  11  12
ENDBRANCH  10  11
ENDBRANCH   9  10
ENDBRANCH   8   9
ENDBRANCH   7   8
ENDBRANCH   6   7
ENDBRANCH   5   6
ENDBRANCH   4   5
ENDBRANCH   3   4
ENDBRANCH   2   3
TORSDOF 24
ENDMDL
MODEL      116
REMARK 921   NORMALIZED FREE ENERGY PREDICTED BY IDOCK:   -3.71 KCAL/MOL
REMARK 922        TOTAL FREE ENERGY PREDICTED BY IDOCK:  -11.20 KCAL/MOL
REMARK 923 INTER-LIGAND FREE ENERGY PREDICTED BY IDOCK:   -8.90 KCAL/MOL
REMARK 924 INTRA-LIGAND FREE ENERGY PREDICTED BY IDOCK:   -2.30 KCAL/MOL
REMARK 927      BINDING AFFINITY PREDICTED BY RF-SCORE:    0.00 PKD
ROOT
HETATM    1  C   UNL     1      -6.645   7.842  69.598  1.00  0.00    -0.038 C  
HETATM    2  O   UNL     1      -6.646   8.340  70.929  1.00  0.00    -0.036 OA 
ENDROOT
BRANCH   2   3
HETATM    3  C   UNL     1      -7.946   8.783  71.316  1.00  0.00    -0.139 C  
BRANCH   3   4
HETATM    4  C   UNL     1      -8.925   8.520  70.181  1.00  0.00    -0.147 C  
BRANCH   4   5
HETATM    5  O   UNL     1      -9.712   9.691  69.966  1.00  0.00    -0.213 OA 
BRANCH   5   6
HETATM    6  C   UNL     1     -10.968   9.591  70.630  1.00  0.00    -0.306 C  
BRANCH   6   7
HETATM    7  C   UNL     1     -11.732  10.895  70.470  1.00  0.00    -0.342 C  
BRANCH   7   8
HETATM    8  O   UNL     1     -12.887  10.845  71.304  1.00  0.00    -0.382 OA 
BRANCH   8   9
HETATM    9  C   UNL     1     -12.992  12.010  72.114  1.00  0.00    -0.151 C  
BRANCH   9  10
HETATM   10  C   UNL     1     -14.272  12.744  71.755  1.00  0.00     0.920 C  
BRANCH  10  11
HETATM   11  O   UNL     1     -13.976  14.128  71.623  1.00  0.00    -0.382 OA 
BRANCH  11  12
HETATM   12  C   UNL     1     -12.573  14.350  71.533  1.00  0.00    -0.350 C  
BRANCH  12  13
HETATM   13  C   UNL     1     -12.256  14.883  70.146  1.00  0.00    -0.336 C  
BRANCH  13  14
HETATM   14  O   UNL     1     -10.881  15.235  70.080  1.00  0.00    -0.266 OA 
BRANCH  14  15
HETATM   15  C   UNL     1     -10.733  16.562  69.589  1.00  0.00    -0.323 C  
BRANCH  15  16
HETATM   16  C   UNL     1     -11.325  16.672  68.195  1.00  0.00    -0.095 C  
BRANCH  16  17
HETATM   17  O   UNL     1     -10.563  17.637  67.481  1.00  0.00    -0.366 OA 
BRANCH  17  18
HETATM   18  C   UNL     1     -10.028  18.640  68.330  1.00  0.00    -0.387 C  
BRANCH  18  19
HETATM   19  C   UNL     1      -8.573  18.838  67.950  1.00  0.00    -0.296 C  
BRANCH  19  20
HETATM   20  O   UNL     1      -7.734  18.218  68.915  1.00  0.00    -0.280 OA 
BRANCH  20  21
HETATM   21  C   UNL     1      -6.999  17.129  68.360  1.00  0.00    -0.195 C  
BRANCH  21  22
HETATM   22  C   UNL     1      -6.999  15.927  69.311  1.00  0.00    -0.198 C  
BRANCH  22  23
HETATM   23  O   UNL     1      -8.035  14.939  69.075  1.00  0.00    -0.154 OA 
BRANCH  23  24
HETATM   24  C   UNL     1      -7.905  14.215  67.827  1.00  0.00    -0.170 C  
HETATM   25  C   UNL     1      -7.671  12.755  68.093  1.00  0.00    -0.137 C  
HETATM   26  C   UNL     1      -9.031  11.847  68.168  1.00  0.00    -0.185 C  
HETATM   27  C   UNL     1     -10.173  11.989  66.989  1.00  0.00    -0.203 C  
HETATM   28  C   UNL     1     -10.675  11.017  65.730  1.00  0.00    -0.148 C  
HETATM   29  O   UNL     1     -11.325  12.490  67.681  1.00  0.00    -0.267 OA 
HETATM   30  C   UNL     1     -11.871  11.475  64.890  1.00  0.00     0.117 C  
HETATM   31  H   UNL     1     -11.985  12.573  67.001  1.00  0.00     0.000 HD 
HETATM   32  C   UNL     1     -11.535  12.900  64.524  1.00  0.00    -0.389 A  
HETATM   33  C   UNL     1     -12.401  13.694  63.798  1.00  0.00    -0.357 A  
HETATM   34  C   UNL     1     -12.245  15.072  63.756  1.00  0.00     0.259 A  
HETATM   35  C   UNL     1     -11.197  15.699  64.488  1.00  0.00    -0.325 A  
HETATM   36  O   UNL     1     -11.202  17.051  64.638  1.00  0.00    -0.968 OA 
HETATM   37  C   UNL     1     -10.249  14.900  65.121  1.00  0.00    -0.375 A  
HETATM   38  H   UNL     1     -10.502  17.470  65.126  1.00  0.00     0.000 HD 
HETATM   39  C   UNL     1     -10.356  13.502  65.119  1.00  0.00    -0.368 A  
HETATM   40  C   UNL     1      -9.401  12.881  66.101  1.00  0.00    -0.102 C  
HETATM   41  C   UNL     1      -9.149  14.238  66.912  1.00  0.00    -0.252 C  
HETATM   42  C   UNL     1      -8.232  11.607  65.582  1.00  0.00     0.449 C  
HETATM   43  O   UNL     1      -9.241  15.337  65.965  1.00  0.00    -0.313 OA 
HETATM   44  C   UNL     1      -8.766   9.911  65.856  1.00  0.00    -0.139 C  
HETATM   45  N   UNL     1     -10.227   9.664  65.810  1.00  0.00    -0.207 NA 
BRANCH  45  46
HETATM   46  C   UNL     1     -10.948   9.026  66.898  1.00  0.00     0.269 C  
BRANCH  46  47
HETATM   47  C   UNL     1     -10.748   7.551  67.004  1.00  0.00    -0.367 C  
HETATM   48  C   UNL     1     -10.609   6.914  68.172  1.00  0.00    -0.262 C  
ENDBRANCH  46  47
ENDBRANCH  45  46
ENDBRANCH  23  24
ENDBRANCH  22  23
ENDBRANCH  21  22
ENDBRANCH  20  21
ENDBRANCH  19  20
ENDBRANCH  18  19
ENDBRANCH  17  18
ENDBRANCH  16  17
ENDBRANCH  15  16
ENDBRANCH  14  15
ENDBRANCH  13  14
ENDBRANCH  12  13
ENDBRANCH  11  12
ENDBRANCH  10  11
ENDBRANCH   9  10
ENDBRANCH   8   9
ENDBRANCH   7   8
ENDBRANCH   6   7
ENDBRANCH   5   6
ENDBRANCH   4   5
ENDBRANCH   3   4
ENDBRANCH   2   3
TORSDOF 24
ENDMDL
MODEL      117
REMARK 921   NORMALIZED FREE ENERGY PREDICTED BY IDOCK:   -3.67 KCAL/MOL
REMARK 922        TOTAL FREE ENERGY PREDICTED BY IDOCK:  -11.11 KCAL/MOL
REMARK 923 INTER-LIGAND FREE ENERGY PREDICTED BY IDOCK:   -8.77 KCAL/MOL
REMARK 924 INTRA-LIGAND FREE ENERGY PREDICTED BY IDOCK:   -2.34 KCAL/MOL
REMARK 927      BINDING AFFINITY PREDICTED BY RF-SCORE:    0.00 PKD
ROOT
HETATM    1  C   UNL     1     -12.218  15.172  64.158  1.00  0.00    -0.161 C  
HETATM    2  O   UNL     1     -11.254  14.208  64.560  1.00  0.00    -0.373 OA 
ENDROOT
BRANCH   2   3
HETATM    3  C   UNL     1     -10.204  14.809  65.316  1.00  0.00    -0.384 C  
BRANCH   3   4
HETATM    4  C   UNL     1     -10.795  15.841  66.265  1.00  0.00    -0.232 C  
BRANCH   4   5
HETATM    5  O   UNL     1     -10.786  15.312  67.590  1.00  0.00    -0.279 OA 
BRANCH   5   6
HETATM    6  C   UNL     1     -11.332  16.247  68.516  1.00  0.00    -0.330 C  
BRANCH   6   7
HETATM    7  C   UNL     1     -11.604  15.550  69.839  1.00  0.00    -0.335 C  
BRANCH   7   8
HETATM    8  O   UNL     1     -12.986  15.706  70.153  1.00  0.00    -0.246 OA 
BRANCH   8   9
HETATM    9  C   UNL     1     -13.345  14.952  71.304  1.00  0.00    -0.421 C  
BRANCH   9  10
HETATM   10  C   UNL     1     -12.452  13.726  71.386  1.00  0.00    -0.318 C  
BRANCH  10  11
HETATM   11  O   UNL     1     -13.210  12.589  70.991  1.00  0.00    -0.042 OA 
BRANCH  11  12
HETATM   12  C   UNL     1     -12.900  11.457  71.795  1.00  0.00    -0.344 C  
BRANCH  12  13
HETATM   13  C   UNL     1     -12.103  10.473  70.956  1.00  0.00    -0.387 C  
BRANCH  13  14
HETATM   14  O   UNL     1     -12.565  10.515  69.613  1.00  0.00    -0.177 OA 
BRANCH  14  15
HETATM   15  C   UNL     1     -11.480  10.743  68.722  1.00  0.00    -0.295 C  
BRANCH  15  16
HETATM   16  C   UNL     1     -11.693  12.040  67.961  1.00  0.00    -0.331 C  
BRANCH  16  17
HETATM   17  O   UNL     1     -11.581  11.745  66.575  1.00  0.00    -0.481 OA 
BRANCH  17  18
HETATM   18  C   UNL     1     -10.619  10.737  66.311  1.00  0.00    -0.192 C  
BRANCH  18  19
HETATM   19  C   UNL     1     -10.092  10.957  64.906  1.00  0.00    -0.312 C  
BRANCH  19  20
HETATM   20  O   UNL     1      -9.176   9.924  64.569  1.00  0.00    -0.230 OA 
BRANCH  20  21
HETATM   21  C   UNL     1      -7.825  10.382  64.592  1.00  0.00    -0.077 C  
BRANCH  21  22
HETATM   22  C   UNL     1      -7.220  10.229  65.991  1.00  0.00    -0.128 C  
BRANCH  22  23
HETATM   23  O   UNL     1      -5.855   9.738  66.036  1.00  0.00    -0.058 OA 
BRANCH  23  24
HETATM   24  C   UNL     1      -5.714   8.394  66.556  1.00  0.00    -0.043 C  
HETATM   25  C   UNL     1      -5.718   8.413  68.059  1.00  0.00    -0.035 C  
HETATM   26  C   UNL     1      -7.195   8.233  68.741  1.00  0.00    -0.079 C  
HETATM   27  C   UNL     1      -8.189   7.023  68.229  1.00  0.00    -0.124 C  
HETATM   28  C   UNL     1      -8.704   5.581  68.889  1.00  0.00    -0.102 C  
HETATM   29  O   UNL     1      -9.317   7.713  67.672  1.00  0.00    -0.140 OA 
HETATM   30  C   UNL     1      -9.737   4.755  68.117  1.00  0.00    -0.201 C  
HETATM   31  H   UNL     1      -9.891   7.014  67.377  1.00  0.00     0.000 HD 
HETATM   32  C   UNL     1      -9.167   4.671  66.722  1.00  0.00    -0.130 A  
HETATM   33  C   UNL     1      -9.838   4.039  65.693  1.00  0.00    -0.181 A  
HETATM   34  C   UNL     1      -9.482   4.251  64.369  1.00  0.00    -0.149 A  
HETATM   35  C   UNL     1      -8.429   5.153  64.043  1.00  0.00    -0.123 A  
HETATM   36  O   UNL     1      -8.254   5.538  62.751  1.00  0.00    -0.103 OA 
HETATM   37  C   UNL     1      -7.669   5.697  65.076  1.00  0.00    -0.094 A  
HETATM   38  H   UNL     1      -7.551   6.140  62.533  1.00  0.00     0.000 HD 
HETATM   39  C   UNL     1      -7.975   5.441  66.419  1.00  0.00    -0.104 A  
HETATM   40  C   UNL     1      -7.216   6.361  67.335  1.00  0.00    -0.082 C  
HETATM   41  C   UNL     1      -6.850   7.414  66.187  1.00  0.00    -0.057 C  
HETATM   42  C   UNL     1      -6.199   5.707  68.675  1.00  0.00    -0.033 C  
HETATM   43  O   UNL     1      -6.693   6.672  64.947  1.00  0.00    -0.047 OA 
HETATM   44  C   UNL     1      -6.994   5.639  70.288  1.00  0.00    -0.058 C  
HETATM   45  N   UNL     1      -8.464   5.451  70.291  1.00  0.00    -0.117 NA 
BRANCH  45  46
HETATM   46  C   UNL     1      -9.368   6.358  70.976  1.00  0.00    -0.164 C  
BRANCH  46  47
HETATM   47  C   UNL     1      -8.717   7.260  71.972  1.00  0.00    -0.129 C  
HETATM   48  C   UNL     1      -9.392   8.163  72.690  1.00  0.00    -0.342 C  
ENDBRANCH  46  47
ENDBRANCH  45  46
ENDBRANCH  23  24
ENDBRANCH  22  23
ENDBRANCH  21  22
ENDBRANCH  20  21
ENDBRANCH  19  20
ENDBRANCH  18  19
ENDBRANCH  17  18
ENDBRANCH  16  17
ENDBRANCH  15  16
ENDBRANCH  14  15
ENDBRANCH  13  14
ENDBRANCH  12  13
ENDBRANCH  11  12
ENDBRANCH  10  11
ENDBRANCH   9  10
ENDBRANCH   8   9
ENDBRANCH   7   8
ENDBRANCH   6   7
ENDBRANCH   5   6
ENDBRANCH   4   5
ENDBRANCH   3   4
ENDBRANCH   2   3
TORSDOF 24
ENDMDL
MODEL      118
REMARK 921   NORMALIZED FREE ENERGY PREDICTED BY IDOCK:   -3.63 KCAL/MOL
REMARK 922        TOTAL FREE ENERGY PREDICTED BY IDOCK:  -11.01 KCAL/MOL
REMARK 923 INTER-LIGAND FREE ENERGY PREDICTED BY IDOCK:   -8.94 KCAL/MOL
REMARK 924 INTRA-LIGAND FREE ENERGY PREDICTED BY IDOCK:   -2.07 KCAL/MOL
REMARK 927      BINDING AFFINITY PREDICTED BY RF-SCORE:    0.00 PKD
ROOT
HETATM    1  C   UNL     1     -12.770  11.112  71.290  1.00  0.00    -0.426 C  
HETATM    2  O   UNL     1     -13.026  12.319  70.585  1.00  0.00    -0.007 OA 
ENDROOT
BRANCH   2   3
HETATM    3  C   UNL     1     -11.814  13.008  70.280  1.00  0.00    -0.217 C  
BRANCH   3   4
HETATM    4  C   UNL     1     -11.929  13.639  68.900  1.00  0.00    -0.356 C  
BRANCH   4   5
HETATM    5  O   UNL     1     -10.782  14.455  68.666  1.00  0.00    -0.238 OA 
BRANCH   5   6
HETATM    6  C   UNL     1     -10.537  15.320  69.772  1.00  0.00    -0.282 C  
BRANCH   6   7
HETATM    7  C   UNL     1     -10.074  16.675  69.263  1.00  0.00    -0.257 C  
BRANCH   7   8
HETATM    8  O   UNL     1     -10.984  17.111  68.255  1.00  0.00    -0.352 OA 
BRANCH   8   9
HETATM    9  C   UNL     1     -10.307  17.789  67.204  1.00  0.00    -0.353 C  
BRANCH   9  10
HETATM   10  C   UNL     1      -9.932  19.182  67.679  1.00  0.00    -0.357 C  
BRANCH  10  11
HETATM   11  O   UNL     1      -8.651  19.508  67.155  1.00  0.00    -0.281 OA 
BRANCH  11  12
HETATM   12  C   UNL     1      -7.744  19.867  68.191  1.00  0.00    -0.279 C  
BRANCH  12  13
HETATM   13  C   UNL     1      -6.794  18.705  68.426  1.00  0.00    -0.249 C  
BRANCH  13  14
HETATM   14  O   UNL     1      -6.546  18.042  67.194  1.00  0.00    -0.174 OA 
BRANCH  14  15
HETATM   15  C   UNL     1      -6.670  16.634  67.355  1.00  0.00    -0.169 C  
BRANCH  15  16
HETATM   16  C   UNL     1      -5.785  16.159  68.494  1.00  0.00    -0.109 C  
BRANCH  16  17
HETATM   17  O   UNL     1      -5.874  14.741  68.542  1.00  0.00    -0.087 OA 
BRANCH  17  18
HETATM   18  C   UNL     1      -7.216  14.282  68.537  1.00  0.00    -0.118 C  
BRANCH  18  19
HETATM   19  C   UNL     1      -7.262  12.999  67.728  1.00  0.00    -0.139 C  
BRANCH  19  20
HETATM   20  O   UNL     1      -6.810  11.912  68.525  1.00  0.00    -0.065 OA 
BRANCH  20  21
HETATM   21  C   UNL     1      -7.861  11.357  69.313  1.00  0.00     0.105 C  
BRANCH  21  22
HETATM   22  C   UNL     1      -8.397  10.068  68.680  1.00  0.00    -0.116 C  
BRANCH  22  23
HETATM   23  O   UNL     1      -9.524  10.230  67.781  1.00  0.00    -0.147 OA 
BRANCH  23  24
HETATM   24  C   UNL     1     -10.330   9.041  67.602  1.00  0.00    -0.257 C  
HETATM   25  C   UNL     1     -10.026   8.399  66.278  1.00  0.00    -0.216 C  
HETATM   26  C   UNL     1      -8.845   7.266  66.322  1.00  0.00    -0.179 C  
HETATM   27  C   UNL     1      -8.883   6.092  67.477  1.00  0.00    -0.106 C  
HETATM   28  C   UNL     1      -9.207   4.456  67.466  1.00  0.00    -0.143 C  
HETATM   29  O   UNL     1      -7.699   6.330  68.252  1.00  0.00    -0.100 OA 
HETATM   30  C   UNL     1      -9.036   3.672  68.770  1.00  0.00    -0.181 C  
HETATM   31  H   UNL     1      -7.721   5.652  68.919  1.00  0.00     0.000 HD 
HETATM   32  C   UNL     1      -9.801   4.484  69.786  1.00  0.00    -0.295 A  
HETATM   33  C   UNL     1      -9.848   4.131  71.121  1.00  0.00    -0.244 A  
HETATM   34  C   UNL     1     -10.256   5.038  72.088  1.00  0.00    -0.259 A  
HETATM   35  C   UNL     1     -10.610   6.368  71.722  1.00  0.00    -0.220 A  
HETATM   36  O   UNL     1     -10.768   7.310  72.691  1.00  0.00    -0.236 OA 
HETATM   37  C   UNL     1     -10.683   6.695  70.370  1.00  0.00    -0.250 A  
HETATM   38  H   UNL     1     -11.004   8.197  72.447  1.00  0.00     0.000 HD 
HETATM   39  C   UNL     1     -10.336   5.769  69.377  1.00  0.00    -0.332 A  
HETATM   40  C   UNL     1     -10.209   6.434  68.034  1.00  0.00    -0.195 C  
HETATM   41  C   UNL     1     -10.093   7.913  68.632  1.00  0.00    -0.197 C  
HETATM   42  C   UNL     1     -11.133   5.830  66.606  1.00  0.00    -0.069 C  
HETATM   43  O   UNL     1     -10.894   7.959  69.844  1.00  0.00    -0.247 OA 
HETATM   44  C   UNL     1     -10.240   4.700  65.528  1.00  0.00    -0.195 C  
HETATM   45  N   UNL     1      -9.200   3.860  66.169  1.00  0.00    -0.150 NA 
BRANCH  45  46
HETATM   46  C   UNL     1      -7.824   3.829  65.706  1.00  0.00    -0.090 C  
BRANCH  46  47
HETATM   47  C   UNL     1      -7.633   3.254  64.342  1.00  0.00    -0.076 C  
HETATM   48  C   UNL     1      -6.449   3.222  63.722  1.00  0.00    -0.030 C  
ENDBRANCH  46  47
ENDBRANCH  45  46
ENDBRANCH  23  24
ENDBRANCH  22  23
ENDBRANCH  21  22
ENDBRANCH  20  21
ENDBRANCH  19  20
ENDBRANCH  18  19
ENDBRANCH  17  18
ENDBRANCH  16  17
ENDBRANCH  15  16
ENDBRANCH  14  15
ENDBRANCH  13  14
ENDBRANCH  12  13
ENDBRANCH  11  12
ENDBRANCH  10  11
ENDBRANCH   9  10
ENDBRANCH   8   9
ENDBRANCH   7   8
ENDBRANCH   6   7
ENDBRANCH   5   6
ENDBRANCH   4   5
ENDBRANCH   3   4
ENDBRANCH   2   3
TORSDOF 24
ENDMDL
MODEL      119
REMARK 921   NORMALIZED FREE ENERGY PREDICTED BY IDOCK:   -3.62 KCAL/MOL
REMARK 922        TOTAL FREE ENERGY PREDICTED BY IDOCK:  -11.00 KCAL/MOL
REMARK 923 INTER-LIGAND FREE ENERGY PREDICTED BY IDOCK:   -9.74 KCAL/MOL
REMARK 924 INTRA-LIGAND FREE ENERGY PREDICTED BY IDOCK:   -1.26 KCAL/MOL
REMARK 927      BINDING AFFINITY PREDICTED BY RF-SCORE:    0.00 PKD
ROOT
HETATM    1  C   UNL     1      -8.913  16.480  66.184  1.00  0.00    -0.309 C  
HETATM    2  O   UNL     1     -10.208  16.069  66.604  1.00  0.00    -0.274 OA 
ENDROOT
BRANCH   2   3
HETATM    3  C   UNL     1     -10.365  16.212  68.015  1.00  0.00    -0.271 C  
BRANCH   3   4
HETATM    4  C   UNL     1      -9.911  17.603  68.432  1.00  0.00    -0.334 C  
BRANCH   4   5
HETATM    5  O   UNL     1     -10.795  18.570  67.868  1.00  0.00    -0.350 OA 
BRANCH   5   6
HETATM    6  C   UNL     1     -10.200  19.865  67.862  1.00  0.00    -0.434 C  
BRANCH   6   7
HETATM    7  C   UNL     1      -9.972  20.312  66.428  1.00  0.00    -0.380 C  
BRANCH   7   8
HETATM    8  O   UNL     1      -8.634  19.982  66.061  1.00  0.00    -0.341 OA 
BRANCH   8   9
HETATM    9  C   UNL     1      -7.696  20.518  66.987  1.00  0.00    -0.297 C  
BRANCH   9  10
HETATM   10  C   UNL     1      -6.651  19.459  67.294  1.00  0.00    -0.189 C  
BRANCH  10  11
HETATM   11  O   UNL     1      -6.167  19.673  68.614  1.00  0.00    -0.232 OA 
BRANCH  11  12
HETATM   12  C   UNL     1      -5.199  18.695  68.974  1.00  0.00    -0.189 C  
BRANCH  12  13
HETATM   13  C   UNL     1      -5.345  18.392  70.455  1.00  0.00    -0.252 C  
BRANCH  13  14
HETATM   14  O   UNL     1      -5.661  17.017  70.626  1.00  0.00    -0.188 OA 
BRANCH  14  15
HETATM   15  C   UNL     1      -6.329  16.515  69.475  1.00  0.00    -0.214 C  
BRANCH  15  16
HETATM   16  C   UNL     1      -6.167  15.007  69.393  1.00  0.00    -0.115 C  
BRANCH  16  17
HETATM   17  O   UNL     1      -7.469  14.438  69.361  1.00  0.00    -0.112 OA 
BRANCH  17  18
HETATM   18  C   UNL     1      -7.657  13.577  68.250  1.00  0.00    -0.135 C  
BRANCH  18  19
HETATM   19  C   UNL     1      -6.431  12.691  68.141  1.00  0.00    -0.080 C  
BRANCH  19  20
HETATM   20  O   UNL     1      -6.701  11.603  67.267  1.00  0.00    -0.099 OA 
BRANCH  20  21
HETATM   21  C   UNL     1      -7.040  10.417  67.983  1.00  0.00    -0.082 C  
BRANCH  21  22
HETATM   22  C   UNL     1      -6.491   9.174  67.274  1.00  0.00    -0.060 C  
BRANCH  22  23
HETATM   23  O   UNL     1      -7.407   8.517  66.360  1.00  0.00    -0.078 OA 
BRANCH  23  24
HETATM   24  C   UNL     1      -8.511   7.831  66.999  1.00  0.00    -0.124 C  
HETATM   25  C   UNL     1      -8.014   6.627  67.748  1.00  0.00    -0.112 C  
HETATM   26  C   UNL     1      -7.631   6.905  69.314  1.00  0.00    -0.096 C  
HETATM   27  C   UNL     1      -8.685   7.724  70.280  1.00  0.00    -0.143 C  
HETATM   28  C   UNL     1      -9.687   7.291  71.540  1.00  0.00    -0.159 C  
HETATM   29  O   UNL     1      -7.974   8.918  70.636  1.00  0.00    -0.098 OA 
HETATM   30  C   UNL     1     -10.461   8.396  72.266  1.00  0.00    -0.407 C  
HETATM   31  H   UNL     1      -8.582   9.391  71.193  1.00  0.00     0.000 HD 
HETATM   32  C   UNL     1     -11.112   9.177  71.151  1.00  0.00    -0.393 A  
HETATM   33  C   UNL     1     -11.870  10.306  71.394  1.00  0.00    -0.371 A  
HETATM   34  C   UNL     1     -12.176  11.196  70.374  1.00  0.00    -0.457 A  
HETATM   35  C   UNL     1     -11.686  10.975  69.055  1.00  0.00    -0.333 A  
HETATM   36  O   UNL     1     -11.782  11.967  68.130  1.00  0.00    -0.330 OA 
HETATM   37  C   UNL     1     -11.027   9.780  68.777  1.00  0.00    -0.148 A  
HETATM   38  H   UNL     1     -11.455  11.819  67.250  1.00  0.00     0.000 HD 
HETATM   39  C   UNL     1     -10.766   8.840  69.783  1.00  0.00    -0.220 A  
HETATM   40  C   UNL     1      -9.798   7.791  69.310  1.00  0.00    -0.173 C  
HETATM   41  C   UNL     1      -9.275   8.649  68.064  1.00  0.00    -0.140 C  
HETATM   42  C   UNL     1     -10.202   6.035  69.420  1.00  0.00    -0.269 C  
HETATM   43  O   UNL     1     -10.389   9.454  67.590  1.00  0.00    -0.215 OA 
HETATM   44  C   UNL     1      -9.572   5.187  70.877  1.00  0.00    -0.175 C  
HETATM   45  N   UNL     1      -9.414   6.007  72.101  1.00  0.00    -0.149 NA 
BRANCH  45  46
HETATM   46  C   UNL     1      -8.158   6.101  72.824  1.00  0.00    -0.106 C  
BRANCH  46  47
HETATM   47  C   UNL     1      -7.168   5.030  72.505  1.00  0.00    -0.087 C  
HETATM   48  C   UNL     1      -5.868   5.272  72.308  1.00  0.00    -0.021 C  
ENDBRANCH  46  47
ENDBRANCH  45  46
ENDBRANCH  23  24
ENDBRANCH  22  23
ENDBRANCH  21  22
ENDBRANCH  20  21
ENDBRANCH  19  20
ENDBRANCH  18  19
ENDBRANCH  17  18
ENDBRANCH  16  17
ENDBRANCH  15  16
ENDBRANCH  14  15
ENDBRANCH  13  14
ENDBRANCH  12  13
ENDBRANCH  11  12
ENDBRANCH  10  11
ENDBRANCH   9  10
ENDBRANCH   8   9
ENDBRANCH   7   8
ENDBRANCH   6   7
ENDBRANCH   5   6
ENDBRANCH   4   5
ENDBRANCH   3   4
ENDBRANCH   2   3
TORSDOF 24
ENDMDL
MODEL      120
REMARK 921   NORMALIZED FREE ENERGY PREDICTED BY IDOCK:   -3.57 KCAL/MOL
REMARK 922        TOTAL FREE ENERGY PREDICTED BY IDOCK:  -10.87 KCAL/MOL
REMARK 923 INTER-LIGAND FREE ENERGY PREDICTED BY IDOCK:   -8.74 KCAL/MOL
REMARK 924 INTRA-LIGAND FREE ENERGY PREDICTED BY IDOCK:   -2.13 KCAL/MOL
REMARK 927      BINDING AFFINITY PREDICTED BY RF-SCORE:    0.00 PKD
ROOT
HETATM    1  C   UNL     1     -11.411  15.449  64.741  1.00  0.00    -0.336 C  
HETATM    2  O   UNL     1     -10.184  14.774  64.982  1.00  0.00    -0.389 OA 
ENDROOT
BRANCH   2   3
HETATM    3  C   UNL     1      -9.487  15.345  66.088  1.00  0.00    -0.336 C  
BRANCH   3   4
HETATM    4  C   UNL     1     -10.450  16.194  66.905  1.00  0.00    -0.300 C  
BRANCH   4   5
HETATM    5  O   UNL     1     -10.758  15.509  68.119  1.00  0.00    -0.265 OA 
BRANCH   5   6
HETATM    6  C   UNL     1     -11.068  16.432  69.160  1.00  0.00    -0.303 C  
BRANCH   6   7
HETATM    7  C   UNL     1     -11.438  15.668  70.420  1.00  0.00    -0.354 C  
BRANCH   7   8
HETATM    8  O   UNL     1     -12.841  15.810  70.637  1.00  0.00    -0.438 OA 
BRANCH   8   9
HETATM    9  C   UNL     1     -13.390  14.650  71.251  1.00  0.00    -0.383 C  
BRANCH   9  10
HETATM   10  C   UNL     1     -12.476  13.469  70.977  1.00  0.00    -0.369 C  
BRANCH  10  11
HETATM   11  O   UNL     1     -13.258  12.282  70.989  1.00  0.00    -0.042 OA 
BRANCH  11  12
HETATM   12  C   UNL     1     -12.514  11.178  71.492  1.00  0.00    -0.250 C  
BRANCH  12  13
HETATM   13  C   UNL     1     -12.043  10.338  70.318  1.00  0.00    -0.249 C  
BRANCH  13  14
HETATM   14  O   UNL     1     -12.470  10.941  69.105  1.00  0.00    -0.409 OA 
BRANCH  14  15
HETATM   15  C   UNL     1     -11.429  10.898  68.136  1.00  0.00    -0.295 C  
BRANCH  15  16
HETATM   16  C   UNL     1     -11.476  12.139  67.262  1.00  0.00    -0.345 C  
BRANCH  16  17
HETATM   17  O   UNL     1     -10.605  11.920  66.160  1.00  0.00    -0.241 OA 
BRANCH  17  18
HETATM   18  C   UNL     1      -9.608  10.952  66.443  1.00  0.00    -0.197 C  
BRANCH  18  19
HETATM   19  C   UNL     1      -8.268  11.663  66.469  1.00  0.00    -0.101 C  
BRANCH  19  20
HETATM   20  O   UNL     1      -7.253  10.761  66.889  1.00  0.00    -0.102 OA 
BRANCH  20  21
HETATM   21  C   UNL     1      -6.616  11.197  68.089  1.00  0.00    -0.058 C  
BRANCH  21  22
HETATM   22  C   UNL     1      -7.449  10.819  69.319  1.00  0.00    -0.135 C  
BRANCH  22  23
HETATM   23  O   UNL     1      -6.704  10.279  70.441  1.00  0.00    -0.142 OA 
BRANCH  23  24
HETATM   24  C   UNL     1      -6.308   8.894  70.292  1.00  0.00    -0.039 C  
HETATM   25  C   UNL     1      -6.068   8.273  71.640  1.00  0.00    -0.042 C  
HETATM   26  C   UNL     1      -7.377   7.547  72.301  1.00  0.00    -0.072 C  
HETATM   27  C   UNL     1      -8.278   6.506  71.396  1.00  0.00    -0.120 C  
HETATM   28  C   UNL     1      -8.488   4.851  71.387  1.00  0.00    -0.117 C  
HETATM   29  O   UNL     1      -9.561   7.141  71.309  1.00  0.00    -0.164 OA 
HETATM   30  C   UNL     1      -9.519   4.254  70.426  1.00  0.00    -0.245 C  
HETATM   31  H   UNL     1     -10.081   6.540  70.787  1.00  0.00     0.000 HD 
HETATM   32  C   UNL     1      -9.178   4.877  69.094  1.00  0.00    -0.166 A  
HETATM   33  C   UNL     1      -9.922   4.628  67.957  1.00  0.00    -0.129 A  
HETATM   34  C   UNL     1      -9.819   5.444  66.840  1.00  0.00    -0.186 A  
HETATM   35  C   UNL     1      -8.958   6.578  66.856  1.00  0.00    -0.126 A  
HETATM   36  O   UNL     1      -9.048   7.501  65.861  1.00  0.00    -0.316 OA 
HETATM   37  C   UNL     1      -8.116   6.766  67.949  1.00  0.00    -0.114 A  
HETATM   38  H   UNL     1      -8.474   8.258  65.871  1.00  0.00     0.000 HD 
HETATM   39  C   UNL     1      -8.162   5.912  69.060  1.00  0.00    -0.103 A  
HETATM   40  C   UNL     1      -7.387   6.481  70.217  1.00  0.00    -0.089 C  
HETATM   41  C   UNL     1      -7.353   7.969  69.630  1.00  0.00    -0.085 C  
HETATM   42  C   UNL     1      -6.089   5.524  71.026  1.00  0.00    -0.029 C  
HETATM   43  O   UNL     1      -7.308   7.868  68.181  1.00  0.00    -0.094 OA 
HETATM   44  C   UNL     1      -6.594   4.631  72.504  1.00  0.00    -0.046 C  
HETATM   45  N   UNL     1      -8.007   4.187  72.557  1.00  0.00    -0.085 NA 
BRANCH  45  46
HETATM   46  C   UNL     1      -8.895   4.530  73.653  1.00  0.00    -0.105 C  
BRANCH  46  47
HETATM   47  C   UNL     1      -9.729   3.401  74.162  1.00  0.00    -0.142 C  
HETATM   48  C   UNL     1      -9.368   2.118  74.051  1.00  0.00    -0.089 C  
ENDBRANCH  46  47
ENDBRANCH  45  46
ENDBRANCH  23  24
ENDBRANCH  22  23
ENDBRANCH  21  22
ENDBRANCH  20  21
ENDBRANCH  19  20
ENDBRANCH  18  19
ENDBRANCH  17  18
ENDBRANCH  16  17
ENDBRANCH  15  16
ENDBRANCH  14  15
ENDBRANCH  13  14
ENDBRANCH  12  13
ENDBRANCH  11  12
ENDBRANCH  10  11
ENDBRANCH   9  10
ENDBRANCH   8   9
ENDBRANCH   7   8
ENDBRANCH   6   7
ENDBRANCH   5   6
ENDBRANCH   4   5
ENDBRANCH   3   4
ENDBRANCH   2   3
TORSDOF 24
ENDMDL
MODEL      121
REMARK 921   NORMALIZED FREE ENERGY PREDICTED BY IDOCK:   -3.57 KCAL/MOL
REMARK 922        TOTAL FREE ENERGY PREDICTED BY IDOCK:  -10.87 KCAL/MOL
REMARK 923 INTER-LIGAND FREE ENERGY PREDICTED BY IDOCK:   -8.98 KCAL/MOL
REMARK 924 INTRA-LIGAND FREE ENERGY PREDICTED BY IDOCK:   -1.88 KCAL/MOL
REMARK 927      BINDING AFFINITY PREDICTED BY RF-SCORE:    0.00 PKD
ROOT
HETATM    1  C   UNL     1     -10.991   1.891  63.364  1.00  0.00    -0.163 C  
HETATM    2  O   UNL     1     -10.460   3.089  62.814  1.00  0.00    -0.135 OA 
ENDROOT
BRANCH   2   3
HETATM    3  C   UNL     1      -9.818   3.878  63.813  1.00  0.00    -0.168 C  
BRANCH   3   4
HETATM    4  C   UNL     1      -9.256   2.964  64.892  1.00  0.00    -0.148 C  
BRANCH   4   5
HETATM    5  O   UNL     1      -8.999   3.733  66.066  1.00  0.00    -0.124 OA 
BRANCH   5   6
HETATM    6  C   UNL     1     -10.110   4.567  66.382  1.00  0.00    -0.244 C  
BRANCH   6   7
HETATM    7  C   UNL     1      -9.912   5.173  67.762  1.00  0.00    -0.156 C  
BRANCH   7   8
HETATM    8  O   UNL     1     -11.053   5.971  68.070  1.00  0.00    -0.304 OA 
BRANCH   8   9
HETATM    9  C   UNL     1     -11.145   6.225  69.467  1.00  0.00    -0.408 C  
BRANCH   9  10
HETATM   10  C   UNL     1     -10.716   7.657  69.735  1.00  0.00    -0.240 C  
BRANCH  10  11
HETATM   11  O   UNL     1      -9.831   7.661  70.847  1.00  0.00    -0.177 OA 
BRANCH  11  12
HETATM   12  C   UNL     1     -10.518   7.968  72.054  1.00  0.00    -0.246 C  
BRANCH  12  13
HETATM   13  C   UNL     1      -9.560   7.780  73.218  1.00  0.00    -0.283 C  
BRANCH  13  14
HETATM   14  O   UNL     1      -8.411   8.592  73.018  1.00  0.00    -0.360 OA 
BRANCH  14  15
HETATM   15  C   UNL     1      -7.227   7.835  73.234  1.00  0.00    -0.100 C  
BRANCH  15  16
HETATM   16  C   UNL     1      -6.015   8.751  73.238  1.00  0.00    -0.080 C  
BRANCH  16  17
HETATM   17  O   UNL     1      -6.109   9.589  72.093  1.00  0.00    -0.284 OA 
BRANCH  17  18
HETATM   18  C   UNL     1      -5.480   9.024  70.955  1.00  0.00    -0.031 C  
BRANCH  18  19
HETATM   19  C   UNL     1      -6.254   9.471  69.729  1.00  0.00    -0.040 C  
BRANCH  19  20
HETATM   20  O   UNL     1      -5.587  10.564  69.112  1.00  0.00    -0.041 OA 
BRANCH  20  21
HETATM   21  C   UNL     1      -5.358  10.331  67.723  1.00  0.00    -0.041 C  
BRANCH  21  22
HETATM   22  C   UNL     1      -5.210  11.655  66.964  1.00  0.00    -0.112 C  
BRANCH  22  23
HETATM   23  O   UNL     1      -5.872  12.799  67.562  1.00  0.00    -0.137 OA 
BRANCH  23  24
HETATM   24  C   UNL     1      -7.097  13.201  66.903  1.00  0.00     0.595 C  
HETATM   25  C   UNL     1      -8.197  12.221  67.203  1.00  0.00    -0.179 C  
HETATM   26  C   UNL     1      -9.100  12.588  68.517  1.00  0.00    -0.062 C  
HETATM   27  C   UNL     1      -9.694  14.114  68.699  1.00  0.00    -0.196 C  
HETATM   28  C   UNL     1     -11.211  14.796  68.584  1.00  0.00    -0.273 C  
HETATM   29  O   UNL     1      -9.054  14.596  69.889  1.00  0.00    -0.269 OA 
HETATM   30  C   UNL     1     -11.372  16.278  68.933  1.00  0.00    -0.317 C  
HETATM   31  H   UNL     1      -9.396  15.477  69.994  1.00  0.00     0.000 HD 
HETATM   32  C   UNL     1     -10.286  16.959  68.136  1.00  0.00    -0.336 A  
HETATM   33  C   UNL     1     -10.062  18.320  68.216  1.00  0.00    -0.406 A  
HETATM   34  C   UNL     1      -8.878  18.879  67.758  1.00  0.00    -0.318 A  
HETATM   35  C   UNL     1      -7.854  18.051  67.218  1.00  0.00    -0.214 A  
HETATM   36  O   UNL     1      -6.615  18.571  67.003  1.00  0.00    -0.185 OA 
HETATM   37  C   UNL     1      -8.119  16.698  67.021  1.00  0.00    -0.195 A  
HETATM   38  H   UNL     1      -5.931  18.019  66.643  1.00  0.00     0.000 HD 
HETATM   39  C   UNL     1      -9.336  16.129  67.419  1.00  0.00    -0.220 A  
HETATM   40  C   UNL     1      -9.274  14.626  67.378  1.00  0.00    -0.201 C  
HETATM   41  C   UNL     1      -7.675  14.564  67.344  1.00  0.00    -0.192 C  
HETATM   42  C   UNL     1     -10.492  13.671  66.450  1.00  0.00    -0.288 C  
HETATM   43  O   UNL     1      -7.207  15.735  66.620  1.00  0.00    -0.168 OA 
HETATM   44  C   UNL     1     -11.880  13.047  67.410  1.00  0.00    -0.357 C  
HETATM   45  N   UNL     1     -12.285  13.854  68.585  1.00  0.00    -0.288 NA 
BRANCH  45  46
HETATM   46  C   UNL     1     -12.380  13.297  69.923  1.00  0.00    -0.163 C  
BRANCH  46  47
HETATM   47  C   UNL     1     -12.367  11.806  69.984  1.00  0.00    -0.233 C  
HETATM   48  C   UNL     1     -12.530  11.120  71.120  1.00  0.00    -0.498 C  
ENDBRANCH  46  47
ENDBRANCH  45  46
ENDBRANCH  23  24
ENDBRANCH  22  23
ENDBRANCH  21  22
ENDBRANCH  20  21
ENDBRANCH  19  20
ENDBRANCH  18  19
ENDBRANCH  17  18
ENDBRANCH  16  17
ENDBRANCH  15  16
ENDBRANCH  14  15
ENDBRANCH  13  14
ENDBRANCH  12  13
ENDBRANCH  11  12
ENDBRANCH  10  11
ENDBRANCH   9  10
ENDBRANCH   8   9
ENDBRANCH   7   8
ENDBRANCH   6   7
ENDBRANCH   5   6
ENDBRANCH   4   5
ENDBRANCH   3   4
ENDBRANCH   2   3
TORSDOF 24
ENDMDL
MODEL      122
REMARK 921   NORMALIZED FREE ENERGY PREDICTED BY IDOCK:   -3.56 KCAL/MOL
REMARK 922        TOTAL FREE ENERGY PREDICTED BY IDOCK:  -10.85 KCAL/MOL
REMARK 923 INTER-LIGAND FREE ENERGY PREDICTED BY IDOCK:   -8.74 KCAL/MOL
REMARK 924 INTRA-LIGAND FREE ENERGY PREDICTED BY IDOCK:   -2.11 KCAL/MOL
REMARK 927      BINDING AFFINITY PREDICTED BY RF-SCORE:    0.00 PKD
ROOT
HETATM    1  C   UNL     1      -6.450  20.416  64.788  1.00  0.00    -0.296 C  
HETATM    2  O   UNL     1      -7.040  19.211  65.256  1.00  0.00    -0.467 OA 
ENDROOT
BRANCH   2   3
HETATM    3  C   UNL     1      -8.038  19.472  66.241  1.00  0.00    -0.334 C  
BRANCH   3   4
HETATM    4  C   UNL     1      -7.540  20.552  67.189  1.00  0.00    -0.326 C  
BRANCH   4   5
HETATM    5  O   UNL     1      -7.543  20.039  68.521  1.00  0.00    -0.278 OA 
BRANCH   5   6
HETATM    6  C   UNL     1      -6.243  20.113  69.099  1.00  0.00    -0.324 C  
BRANCH   6   7
HETATM    7  C   UNL     1      -5.620  18.727  69.126  1.00  0.00    -0.208 C  
BRANCH   7   8
HETATM    8  O   UNL     1      -6.116  18.033  70.268  1.00  0.00    -0.145 OA 
BRANCH   8   9
HETATM    9  C   UNL     1      -6.217  16.635  70.022  1.00  0.00    -0.080 C  
BRANCH   9  10
HETATM   10  C   UNL     1      -7.134  16.411  68.832  1.00  0.00    -0.195 C  
BRANCH  10  11
HETATM   11  O   UNL     1      -8.375  15.907  69.309  1.00  0.00    -0.237 OA 
BRANCH  11  12
HETATM   12  C   UNL     1      -9.471  16.637  68.770  1.00  0.00    -0.258 C  
BRANCH  12  13
HETATM   13  C   UNL     1     -10.176  15.766  67.745  1.00  0.00    -0.251 C  
BRANCH  13  14
HETATM   14  O   UNL     1     -11.482  15.455  68.210  1.00  0.00    -0.332 OA 
BRANCH  14  15
HETATM   15  C   UNL     1     -11.871  14.161  67.763  1.00  0.00    -0.379 C  
BRANCH  15  16
HETATM   16  C   UNL     1     -11.052  13.096  68.471  1.00  0.00    -0.266 C  
BRANCH  16  17
HETATM   17  O   UNL     1     -11.963  12.180  69.064  1.00  0.00    -0.297 OA 
BRANCH  17  18
HETATM   18  C   UNL     1     -12.279  12.521  70.404  1.00  0.00    -0.286 C  
BRANCH  18  19
HETATM   19  C   UNL     1     -12.255  11.245  71.224  1.00  0.00    -0.170 C  
BRANCH  19  20
HETATM   20  O   UNL     1     -11.395  10.295  70.610  1.00  0.00    -0.313 OA 
BRANCH  20  21
HETATM   21  C   UNL     1     -11.909   8.968  70.710  1.00  0.00    -0.206 C  
BRANCH  21  22
HETATM   22  C   UNL     1     -10.783   7.964  70.981  1.00  0.00    -0.220 C  
BRANCH  22  23
HETATM   23  O   UNL     1      -9.644   8.481  71.717  1.00  0.00    -0.213 OA 
BRANCH  23  24
HETATM   24  C   UNL     1      -8.359   8.226  71.099  1.00  0.00    -0.129 C  
HETATM   25  C   UNL     1      -8.392   6.927  70.344  1.00  0.00    -0.130 C  
HETATM   26  C   UNL     1      -8.821   7.061  68.771  1.00  0.00    -0.129 C  
HETATM   27  C   UNL     1      -8.102   8.200  67.822  1.00  0.00    -0.127 C  
HETATM   28  C   UNL     1      -6.990   8.150  66.581  1.00  0.00    -0.072 C  
HETATM   29  O   UNL     1      -9.179   9.073  67.451  1.00  0.00    -0.136 OA 
HETATM   30  C   UNL     1      -6.637   9.458  65.866  1.00  0.00    -0.076 C  
HETATM   31  H   UNL     1      -8.764   9.730  66.904  1.00  0.00     0.000 HD 
HETATM   32  C   UNL     1      -6.320  10.413  66.991  1.00  0.00    -0.072 A  
HETATM   33  C   UNL     1      -5.998  11.736  66.760  1.00  0.00    -0.107 A  
HETATM   34  C   UNL     1      -6.040  12.672  67.783  1.00  0.00    -0.127 A  
HETATM   35  C   UNL     1      -6.444  12.288  69.093  1.00  0.00    -0.100 A  
HETATM   36  O   UNL     1      -6.717  13.248  70.018  1.00  0.00    -0.358 OA 
HETATM   37  C   UNL     1      -6.651  10.938  69.363  1.00  0.00    -0.095 A  
HETATM   38  H   UNL     1      -6.987  12.992  70.893  1.00  0.00     0.000 HD 
HETATM   39  C   UNL     1      -6.550   9.970  68.354  1.00  0.00    -0.054 A  
HETATM   40  C   UNL     1      -7.099   8.647  68.812  1.00  0.00    -0.064 C  
HETATM   41  C   UNL     1      -7.909   9.263  70.046  1.00  0.00    -0.116 C  
HETATM   42  C   UNL     1      -6.106   7.143  68.712  1.00  0.00    -0.030 C  
HETATM   43  O   UNL     1      -7.156  10.405  70.538  1.00  0.00    -0.301 OA 
HETATM   44  C   UNL     1      -6.375   6.134  67.247  1.00  0.00    -0.041 C  
HETATM   45  N   UNL     1      -6.788   6.853  66.018  1.00  0.00    -0.059 NA 
BRANCH  45  46
HETATM   46  C   UNL     1      -7.986   6.507  65.273  1.00  0.00    -0.119 C  
BRANCH  46  47
HETATM   47  C   UNL     1      -7.886   6.706  63.797  1.00  0.00    -0.107 C  
HETATM   48  C   UNL     1      -8.121   5.733  62.910  1.00  0.00    -0.110 C  
ENDBRANCH  46  47
ENDBRANCH  45  46
ENDBRANCH  23  24
ENDBRANCH  22  23
ENDBRANCH  21  22
ENDBRANCH  20  21
ENDBRANCH  19  20
ENDBRANCH  18  19
ENDBRANCH  17  18
ENDBRANCH  16  17
ENDBRANCH  15  16
ENDBRANCH  14  15
ENDBRANCH  13  14
ENDBRANCH  12  13
ENDBRANCH  11  12
ENDBRANCH  10  11
ENDBRANCH   9  10
ENDBRANCH   8   9
ENDBRANCH   7   8
ENDBRANCH   6   7
ENDBRANCH   5   6
ENDBRANCH   4   5
ENDBRANCH   3   4
ENDBRANCH   2   3
TORSDOF 24
ENDMDL
MODEL      123
REMARK 921   NORMALIZED FREE ENERGY PREDICTED BY IDOCK:   -3.55 KCAL/MOL
REMARK 922        TOTAL FREE ENERGY PREDICTED BY IDOCK:  -10.83 KCAL/MOL
REMARK 923 INTER-LIGAND FREE ENERGY PREDICTED BY IDOCK:   -9.14 KCAL/MOL
REMARK 924 INTRA-LIGAND FREE ENERGY PREDICTED BY IDOCK:   -1.69 KCAL/MOL
REMARK 927      BINDING AFFINITY PREDICTED BY RF-SCORE:    0.00 PKD
ROOT
HETATM    1  C   UNL     1     -12.684  11.912  63.350  1.00  0.00    -0.366 C  
HETATM    2  O   UNL     1     -11.602  12.506  64.054  1.00  0.00    -0.348 OA 
ENDROOT
BRANCH   2   3
HETATM    3  C   UNL     1     -11.754  12.354  65.464  1.00  0.00    -0.407 C  
BRANCH   3   4
HETATM    4  C   UNL     1     -10.586  13.024  66.172  1.00  0.00    -0.277 C  
BRANCH   4   5
HETATM    5  O   UNL     1     -10.155  14.143  65.399  1.00  0.00    -0.338 OA 
BRANCH   5   6
HETATM    6  C   UNL     1     -10.920  15.304  65.712  1.00  0.00    -0.338 C  
BRANCH   6   7
HETATM    7  C   UNL     1     -11.485  15.898  64.433  1.00  0.00    -0.264 C  
BRANCH   7   8
HETATM    8  O   UNL     1     -11.515  17.317  64.570  1.00  0.00    -0.864 OA 
BRANCH   8   9
HETATM    9  C   UNL     1     -10.509  17.772  65.467  1.00  0.00    -0.017 C  
BRANCH   9  10
HETATM   10  C   UNL     1     -10.683  19.265  65.684  1.00  0.00    -0.251 C  
BRANCH  10  11
HETATM   11  O   UNL     1      -9.757  19.687  66.676  1.00  0.00    -0.336 OA 
BRANCH  11  12
HETATM   12  C   UNL     1     -10.421  20.049  67.882  1.00  0.00    -0.318 C  
BRANCH  12  13
HETATM   13  C   UNL     1      -9.766  19.308  69.035  1.00  0.00    -0.391 C  
BRANCH  13  14
HETATM   14  O   UNL     1      -8.354  19.358  68.886  1.00  0.00    -0.368 OA 
BRANCH  14  15
HETATM   15  C   UNL     1      -7.881  18.177  68.250  1.00  0.00    -0.293 C  
BRANCH  15  16
HETATM   16  C   UNL     1      -8.559  16.955  68.845  1.00  0.00    -0.206 C  
BRANCH  16  17
HETATM   17  O   UNL     1      -7.606  15.900  68.856  1.00  0.00    -0.162 OA 
BRANCH  17  18
HETATM   18  C   UNL     1      -6.672  16.003  67.794  1.00  0.00    -0.154 C  
BRANCH  18  19
HETATM   19  C   UNL     1      -5.364  15.399  68.268  1.00  0.00    -0.113 C  
BRANCH  19  20
HETATM   20  O   UNL     1      -5.547  14.795  69.541  1.00  0.00    -0.091 OA 
BRANCH  20  21
HETATM   21  C   UNL     1      -5.138  13.428  69.546  1.00  0.00    -0.083 C  
BRANCH  21  22
HETATM   22  C   UNL     1      -6.157  12.555  70.286  1.00  0.00    -0.066 C  
BRANCH  22  23
HETATM   23  O   UNL     1      -7.018  11.745  69.445  1.00  0.00    -0.099 OA 
BRANCH  23  24
HETATM   24  C   UNL     1      -6.488  10.437  69.120  1.00  0.00    -0.048 C  
HETATM   25  C   UNL     1      -6.891   9.436  70.166  1.00  0.00    -0.071 C  
HETATM   26  C   UNL     1      -8.291   8.648  69.856  1.00  0.00    -0.123 C  
HETATM   27  C   UNL     1      -8.542   7.983  68.370  1.00  0.00    -0.127 C  
HETATM   28  C   UNL     1      -8.584   6.422  67.784  1.00  0.00    -0.116 C  
HETATM   29  O   UNL     1      -9.665   8.709  67.849  1.00  0.00    -0.152 OA 
HETATM   30  C   UNL     1      -8.957   6.206  66.314  1.00  0.00    -0.162 C  
HETATM   31  H   UNL     1      -9.809   8.325  66.991  1.00  0.00     0.000 HD 
HETATM   32  C   UNL     1      -8.059   7.162  65.567  1.00  0.00    -0.135 A  
HETATM   33  C   UNL     1      -8.124   7.308  64.195  1.00  0.00    -0.036 A  
HETATM   34  C   UNL     1      -7.553   8.403  63.564  1.00  0.00    -0.133 A  
HETATM   35  C   UNL     1      -6.908   9.418  64.327  1.00  0.00    -0.095 A  
HETATM   36  O   UNL     1      -6.572  10.593  63.730  1.00  0.00    -0.355 OA 
HETATM   37  C   UNL     1      -6.729   9.218  65.693  1.00  0.00    -0.073 A  
HETATM   38  H   UNL     1      -6.141  11.270  64.239  1.00  0.00     0.000 HD 
HETATM   39  C   UNL     1      -7.245   8.085  66.337  1.00  0.00    -0.079 A  
HETATM   40  C   UNL     1      -7.189   8.235  67.833  1.00  0.00    -0.095 C  
HETATM   41  C   UNL     1      -6.993   9.823  67.796  1.00  0.00    -0.086 C  
HETATM   42  C   UNL     1      -6.382   6.991  68.862  1.00  0.00    -0.028 C  
HETATM   43  O   UNL     1      -6.233  10.142  66.598  1.00  0.00    -0.065 OA 
HETATM   44  C   UNL     1      -7.473   5.748  69.571  1.00  0.00    -0.075 C  
HETATM   45  N   UNL     1      -8.687   5.414  68.790  1.00  0.00    -0.098 NA 
BRANCH  45  46
HETATM   46  C   UNL     1     -10.025   5.489  69.352  1.00  0.00    -0.208 C  
BRANCH  46  47
HETATM   47  C   UNL     1     -10.109   5.197  70.813  1.00  0.00    -0.303 C  
HETATM   48  C   UNL     1     -10.882   5.893  71.654  1.00  0.00    -0.321 C  
ENDBRANCH  46  47
ENDBRANCH  45  46
ENDBRANCH  23  24
ENDBRANCH  22  23
ENDBRANCH  21  22
ENDBRANCH  20  21
ENDBRANCH  19  20
ENDBRANCH  18  19
ENDBRANCH  17  18
ENDBRANCH  16  17
ENDBRANCH  15  16
ENDBRANCH  14  15
ENDBRANCH  13  14
ENDBRANCH  12  13
ENDBRANCH  11  12
ENDBRANCH  10  11
ENDBRANCH   9  10
ENDBRANCH   8   9
ENDBRANCH   7   8
ENDBRANCH   6   7
ENDBRANCH   5   6
ENDBRANCH   4   5
ENDBRANCH   3   4
ENDBRANCH   2   3
TORSDOF 24
ENDMDL
MODEL      124
REMARK 921   NORMALIZED FREE ENERGY PREDICTED BY IDOCK:   -3.53 KCAL/MOL
REMARK 922        TOTAL FREE ENERGY PREDICTED BY IDOCK:  -10.77 KCAL/MOL
REMARK 923 INTER-LIGAND FREE ENERGY PREDICTED BY IDOCK:   -7.79 KCAL/MOL
REMARK 924 INTRA-LIGAND FREE ENERGY PREDICTED BY IDOCK:   -2.98 KCAL/MOL
REMARK 927      BINDING AFFINITY PREDICTED BY RF-SCORE:    0.00 PKD
ROOT
HETATM    1  C   UNL     1      -6.825   7.791  72.680  1.00  0.00    -0.073 C  
HETATM    2  O   UNL     1      -7.810   6.768  72.721  1.00  0.00    -0.098 OA 
ENDROOT
BRANCH   2   3
HETATM    3  C   UNL     1      -7.663   5.952  73.882  1.00  0.00    -0.095 C  
BRANCH   3   4
HETATM    4  C   UNL     1      -8.627   4.779  73.798  1.00  0.00    -0.103 C  
BRANCH   4   5
HETATM    5  O   UNL     1      -8.746   4.372  72.436  1.00  0.00    -0.110 OA 
BRANCH   5   6
HETATM    6  C   UNL     1      -8.008   3.177  72.194  1.00  0.00    -0.059 C  
BRANCH   6   7
HETATM    7  C   UNL     1      -6.951   3.441  71.134  1.00  0.00    -0.032 C  
BRANCH   7   8
HETATM    8  O   UNL     1      -6.849   2.287  70.303  1.00  0.00    -0.032 OA 
BRANCH   8   9
HETATM    9  C   UNL     1      -8.005   2.132  69.489  1.00  0.00    -0.041 C  
BRANCH   9  10
HETATM   10  C   UNL     1      -7.975   3.178  68.388  1.00  0.00    -0.058 C  
BRANCH  10  11
HETATM   11  O   UNL     1      -9.235   3.837  68.358  1.00  0.00    -0.131 OA 
BRANCH  11  12
HETATM   12  C   UNL     1      -9.763   3.881  67.037  1.00  0.00    -0.148 C  
BRANCH  12  13
HETATM   13  C   UNL     1      -8.831   3.111  66.118  1.00  0.00    -0.141 C  
BRANCH  13  14
HETATM   14  O   UNL     1      -9.521   2.774  64.922  1.00  0.00    -0.153 OA 
BRANCH  14  15
HETATM   15  C   UNL     1     -10.067   3.941  64.319  1.00  0.00    -0.211 C  
BRANCH  15  16
HETATM   16  C   UNL     1      -9.373   4.219  62.997  1.00  0.00    -0.134 C  
BRANCH  16  17
HETATM   17  O   UNL     1      -8.069   4.702  63.292  1.00  0.00    -0.084 OA 
BRANCH  17  18
HETATM   18  C   UNL     1      -8.033   6.113  63.432  1.00  0.00    -0.104 C  
BRANCH  18  19
HETATM   19  C   UNL     1      -6.769   6.470  64.192  1.00  0.00    -0.038 C  
BRANCH  19  20
HETATM   20  O   UNL     1      -7.073   7.406  65.218  1.00  0.00    -0.060 OA 
BRANCH  20  21
HETATM   21  C   UNL     1      -8.149   6.961  66.042  1.00  0.00    -0.119 C  
BRANCH  21  22
HETATM   22  C   UNL     1      -7.828   7.181  67.525  1.00  0.00    -0.112 C  
BRANCH  22  23
HETATM   23  O   UNL     1      -6.680   8.023  67.801  1.00  0.00    -0.065 OA 
BRANCH  23  24
HETATM   24  C   UNL     1      -7.005   9.337  68.318  1.00  0.00    -0.072 C  
HETATM   25  C   UNL     1      -6.947  10.359  67.217  1.00  0.00    -0.086 C  
HETATM   26  C   UNL     1      -8.365  10.608  66.441  1.00  0.00    -0.151 C  
HETATM   27  C   UNL     1      -9.742  10.854  67.312  1.00  0.00    -0.165 C  
HETATM   28  C   UNL     1     -10.709  12.178  67.613  1.00  0.00    -0.220 C  
HETATM   29  O   UNL     1     -10.572   9.735  66.973  1.00  0.00    -0.239 OA 
HETATM   30  C   UNL     1     -11.996  11.972  68.418  1.00  0.00    -0.256 C  
HETATM   31  H   UNL     1     -11.366   9.877  67.477  1.00  0.00     0.000 HD 
HETATM   32  C   UNL     1     -11.544  11.202  69.635  1.00  0.00    -0.398 A  
HETATM   33  C   UNL     1     -12.432  10.769  70.600  1.00  0.00    -0.461 A  
HETATM   34  C   UNL     1     -12.073   9.794  71.519  1.00  0.00    -0.493 A  
HETATM   35  C   UNL     1     -10.782   9.196  71.465  1.00  0.00    -0.367 A  
HETATM   36  O   UNL     1     -10.528   8.081  72.202  1.00  0.00    -0.227 OA 
HETATM   37  C   UNL     1      -9.841   9.711  70.577  1.00  0.00    -0.231 A  
HETATM   38  H   UNL     1      -9.667   7.682  72.167  1.00  0.00     0.000 HD 
HETATM   39  C   UNL     1     -10.168  10.741  69.685  1.00  0.00    -0.099 A  
HETATM   40  C   UNL     1      -9.099  10.919  68.642  1.00  0.00    -0.175 C  
HETATM   41  C   UNL     1      -8.427   9.490  68.901  1.00  0.00    -0.123 C  
HETATM   42  C   UNL     1      -8.331  12.528  68.362  1.00  0.00    -0.132 C  
HETATM   43  O   UNL     1      -8.588   9.181  70.312  1.00  0.00    -0.157 OA 
HETATM   44  C   UNL     1      -9.040  13.501  67.025  1.00  0.00    -0.244 C  
HETATM   45  N   UNL     1     -10.480  13.290  66.746  1.00  0.00    -0.268 NA 
BRANCH  45  46
HETATM   46  C   UNL     1     -10.979  12.930  65.430  1.00  0.00    -0.278 C  
BRANCH  46  47
HETATM   47  C   UNL     1     -12.253  13.600  65.037  1.00  0.00    -0.450 C  
HETATM   48  C   UNL     1     -12.312  14.594  64.145  1.00  0.00    -0.294 C  
ENDBRANCH  46  47
ENDBRANCH  45  46
ENDBRANCH  23  24
ENDBRANCH  22  23
ENDBRANCH  21  22
ENDBRANCH  20  21
ENDBRANCH  19  20
ENDBRANCH  18  19
ENDBRANCH  17  18
ENDBRANCH  16  17
ENDBRANCH  15  16
ENDBRANCH  14  15
ENDBRANCH  13  14
ENDBRANCH  12  13
ENDBRANCH  11  12
ENDBRANCH  10  11
ENDBRANCH   9  10
ENDBRANCH   8   9
ENDBRANCH   7   8
ENDBRANCH   6   7
ENDBRANCH   5   6
ENDBRANCH   4   5
ENDBRANCH   3   4
ENDBRANCH   2   3
TORSDOF 24
ENDMDL
MODEL      125
REMARK 921   NORMALIZED FREE ENERGY PREDICTED BY IDOCK:   -3.52 KCAL/MOL
REMARK 922        TOTAL FREE ENERGY PREDICTED BY IDOCK:  -10.76 KCAL/MOL
REMARK 923 INTER-LIGAND FREE ENERGY PREDICTED BY IDOCK:   -9.44 KCAL/MOL
REMARK 924 INTRA-LIGAND FREE ENERGY PREDICTED BY IDOCK:   -1.32 KCAL/MOL
REMARK 927      BINDING AFFINITY PREDICTED BY RF-SCORE:    0.00 PKD
ROOT
HETATM    1  C   UNL     1      -6.407   7.604  71.386  1.00  0.00    -0.035 C  
HETATM    2  O   UNL     1      -6.578   6.226  71.082  1.00  0.00    -0.048 OA 
ENDROOT
BRANCH   2   3
HETATM    3  C   UNL     1      -6.909   5.475  72.249  1.00  0.00    -0.079 C  
BRANCH   3   4
HETATM    4  C   UNL     1      -7.870   4.357  71.872  1.00  0.00    -0.085 C  
BRANCH   4   5
HETATM    5  O   UNL     1      -7.321   3.622  70.779  1.00  0.00    -0.037 OA 
BRANCH   5   6
HETATM    6  C   UNL     1      -8.352   3.097  69.948  1.00  0.00    -0.048 C  
BRANCH   6   7
HETATM    7  C   UNL     1      -8.125   3.546  68.514  1.00  0.00    -0.069 C  
BRANCH   7   8
HETATM    8  O   UNL     1      -9.022   4.618  68.231  1.00  0.00    -0.106 OA 
BRANCH   8   9
HETATM    9  C   UNL     1      -8.321   5.836  68.013  1.00  0.00    -0.103 C  
BRANCH   9  10
HETATM   10  C   UNL     1      -9.049   6.957  68.734  1.00  0.00    -0.133 C  
BRANCH  10  11
HETATM   11  O   UNL     1      -9.860   6.386  69.753  1.00  0.00    -0.162 OA 
BRANCH  11  12
HETATM   12  C   UNL     1     -10.582   7.387  70.461  1.00  0.00    -0.224 C  
BRANCH  12  13
HETATM   13  C   UNL     1     -10.122   7.383  71.908  1.00  0.00    -0.178 C  
BRANCH  13  14
HETATM   14  O   UNL     1     -11.148   7.922  72.731  1.00  0.00    -0.357 OA 
BRANCH  14  15
HETATM   15  C   UNL     1     -12.243   8.359  71.934  1.00  0.00    -0.343 C  
BRANCH  15  16
HETATM   16  C   UNL     1     -13.000   9.465  72.649  1.00  0.00    -0.145 C  
BRANCH  16  17
HETATM   17  O   UNL     1     -12.846  10.652  71.881  1.00  0.00    -0.445 OA 
BRANCH  17  18
HETATM   18  C   UNL     1     -13.782  11.655  72.243  1.00  0.00     0.233 C  
BRANCH  18  19
HETATM   19  C   UNL     1     -13.205  12.995  71.827  1.00  0.00    -0.392 C  
BRANCH  19  20
HETATM   20  O   UNL     1     -13.697  14.017  72.684  1.00  0.00    -0.601 OA 
BRANCH  20  21
HETATM   21  C   UNL     1     -13.599  15.308  72.085  1.00  0.00    -0.472 C  
BRANCH  21  22
HETATM   22  C   UNL     1     -12.590  15.300  70.931  1.00  0.00    -0.412 C  
BRANCH  22  23
HETATM   23  O   UNL     1     -11.285  14.746  71.240  1.00  0.00    -0.201 OA 
BRANCH  23  24
HETATM   24  C   UNL     1     -10.292  14.926  70.202  1.00  0.00     0.071 C  
HETATM   25  C   UNL     1     -10.342  13.783  69.228  1.00  0.00     0.105 C  
HETATM   26  C   UNL     1     -11.333  14.019  67.947  1.00  0.00    -0.317 C  
HETATM   27  C   UNL     1     -11.248  15.428  67.097  1.00  0.00    -0.256 C  
HETATM   28  C   UNL     1     -10.678  15.845  65.587  1.00  0.00    -0.339 C  
HETATM   29  O   UNL     1     -12.534  16.032  67.296  1.00  0.00     0.938 OA 
HETATM   30  C   UNL     1     -10.874  17.286  65.108  1.00  0.00     0.051 C  
HETATM   31  H   UNL     1     -12.484  16.845  66.806  1.00  0.00     0.000 HD 
HETATM   32  C   UNL     1     -10.362  18.123  66.254  1.00  0.00    -0.407 A  
HETATM   33  C   UNL     1     -10.413  19.504  66.233  1.00  0.00    -0.609 A  
HETATM   34  C   UNL     1     -10.261  20.243  67.397  1.00  0.00    -0.494 A  
HETATM   35  C   UNL     1     -10.076  19.587  68.647  1.00  0.00    -0.442 A  
HETATM   36  O   UNL     1     -10.174  20.303  69.800  1.00  0.00    -0.383 OA 
HETATM   37  C   UNL     1      -9.901  18.206  68.660  1.00  0.00    -0.377 A  
HETATM   38  H   UNL     1     -10.051  19.865  70.634  1.00  0.00     0.000 HD 
HETATM   39  C   UNL     1      -9.987  17.449  67.483  1.00  0.00    -0.298 A  
HETATM   40  C   UNL     1     -10.061  15.978  67.786  1.00  0.00    -0.243 C  
HETATM   41  C   UNL     1     -10.469  16.182  69.320  1.00  0.00    -0.267 C  
HETATM   42  C   UNL     1      -8.899  14.815  67.040  1.00  0.00    -0.258 C  
HETATM   43  O   UNL     1      -9.827  17.400  69.785  1.00  0.00     0.221 OA 
HETATM   44  C   UNL     1      -9.481  13.988  65.553  1.00  0.00     0.151 C  
HETATM   45  N   UNL     1     -10.446  14.738  64.714  1.00  0.00    -0.365 NA 
BRANCH  45  46
HETATM   46  C   UNL     1     -11.740  14.198  64.336  1.00  0.00    -0.392 C  
BRANCH  46  47
HETATM   47  C   UNL     1     -11.824  12.708  64.338  1.00  0.00    -0.452 C  
HETATM   48  C   UNL     1     -12.393  12.007  63.351  1.00  0.00    -0.635 C  
ENDBRANCH  46  47
ENDBRANCH  45  46
ENDBRANCH  23  24
ENDBRANCH  22  23
ENDBRANCH  21  22
ENDBRANCH  20  21
ENDBRANCH  19  20
ENDBRANCH  18  19
ENDBRANCH  17  18
ENDBRANCH  16  17
ENDBRANCH  15  16
ENDBRANCH  14  15
ENDBRANCH  13  14
ENDBRANCH  12  13
ENDBRANCH  11  12
ENDBRANCH  10  11
ENDBRANCH   9  10
ENDBRANCH   8   9
ENDBRANCH   7   8
ENDBRANCH   6   7
ENDBRANCH   5   6
ENDBRANCH   4   5
ENDBRANCH   3   4
ENDBRANCH   2   3
TORSDOF 24
ENDMDL
MODEL      126
REMARK 921   NORMALIZED FREE ENERGY PREDICTED BY IDOCK:   -3.51 KCAL/MOL
REMARK 922        TOTAL FREE ENERGY PREDICTED BY IDOCK:  -10.74 KCAL/MOL
REMARK 923 INTER-LIGAND FREE ENERGY PREDICTED BY IDOCK:   -8.83 KCAL/MOL
REMARK 924 INTRA-LIGAND FREE ENERGY PREDICTED BY IDOCK:   -1.91 KCAL/MOL
REMARK 927      BINDING AFFINITY PREDICTED BY RF-SCORE:    0.00 PKD
ROOT
HETATM    1  C   UNL     1     -14.122   7.541  71.548  1.00  0.00    -0.427 C  
HETATM    2  O   UNL     1     -12.990   6.712  71.771  1.00  0.00    -0.319 OA 
ENDROOT
BRANCH   2   3
HETATM    3  C   UNL     1     -12.048   6.822  70.705  1.00  0.00    -0.347 C  
BRANCH   3   4
HETATM    4  C   UNL     1     -10.963   7.815  71.095  1.00  0.00    -0.239 C  
BRANCH   4   5
HETATM    5  O   UNL     1     -10.074   7.989  69.991  1.00  0.00    -0.190 OA 
BRANCH   5   6
HETATM    6  C   UNL     1     -10.639   8.858  69.014  1.00  0.00    -0.183 C  
BRANCH   6   7
HETATM    7  C   UNL     1     -10.117   8.480  67.638  1.00  0.00    -0.213 C  
BRANCH   7   8
HETATM    8  O   UNL     1     -10.810   7.314  67.198  1.00  0.00    -0.337 OA 
BRANCH   8   9
HETATM    9  C   UNL     1      -9.940   6.422  66.512  1.00  0.00    -0.103 C  
BRANCH   9  10
HETATM   10  C   UNL     1     -10.448   5.002  66.697  1.00  0.00    -0.250 C  
BRANCH  10  11
HETATM   11  O   UNL     1     -10.958   4.541  65.453  1.00  0.00    -0.256 OA 
BRANCH  11  12
HETATM   12  C   UNL     1      -9.920   4.024  64.629  1.00  0.00    -0.199 C  
BRANCH  12  13
HETATM   13  C   UNL     1      -9.194   2.931  65.394  1.00  0.00    -0.131 C  
BRANCH  13  14
HETATM   14  O   UNL     1      -7.794   3.170  65.342  1.00  0.00    -0.080 OA 
BRANCH  14  15
HETATM   15  C   UNL     1      -7.275   2.801  64.070  1.00  0.00    -0.056 C  
BRANCH  15  16
HETATM   16  C   UNL     1      -6.410   3.919  63.513  1.00  0.00    -0.026 C  
BRANCH  16  17
HETATM   17  O   UNL     1      -6.409   4.973  64.467  1.00  0.00    -0.032 OA 
BRANCH  17  18
HETATM   18  C   UNL     1      -6.602   6.244  63.868  1.00  0.00    -0.033 C  
BRANCH  18  19
HETATM   19  C   UNL     1      -5.748   7.245  64.624  1.00  0.00    -0.037 C  
BRANCH  19  20
HETATM   20  O   UNL     1      -6.582   8.185  65.288  1.00  0.00    -0.051 OA 
BRANCH  20  21
HETATM   21  C   UNL     1      -6.075   9.514  65.183  1.00  0.00    -0.072 C  
BRANCH  21  22
HETATM   22  C   UNL     1      -6.208  10.257  66.516  1.00  0.00    -0.073 C  
BRANCH  22  23
HETATM   23  O   UNL     1      -6.190  11.706  66.433  1.00  0.00    -0.086 OA 
BRANCH  23  24
HETATM   24  C   UNL     1      -6.538  12.386  67.663  1.00  0.00    -0.131 C  
HETATM   25  C   UNL     1      -5.560  13.492  67.943  1.00  0.00    -0.116 C  
HETATM   26  C   UNL     1      -5.983  14.950  67.333  1.00  0.00     0.192 C  
HETATM   27  C   UNL     1      -7.508  15.525  67.574  1.00  0.00    -0.182 C  
HETATM   28  C   UNL     1      -8.160  16.738  68.515  1.00  0.00    -0.241 C  
HETATM   29  O   UNL     1      -8.061  15.609  66.253  1.00  0.00    -0.313 OA 
HETATM   30  C   UNL     1      -9.656  17.036  68.383  1.00  0.00    -0.277 C  
HETATM   31  H   UNL     1      -8.941  15.941  66.393  1.00  0.00     0.000 HD 
HETATM   32  C   UNL     1     -10.310  15.682  68.515  1.00  0.00    -0.219 A  
HETATM   33  C   UNL     1     -11.676  15.514  68.399  1.00  0.00    -0.323 A  
HETATM   34  C   UNL     1     -12.227  14.258  68.186  1.00  0.00    -0.164 A  
HETATM   35  C   UNL     1     -11.387  13.117  68.054  1.00  0.00    -0.292 A  
HETATM   36  O   UNL     1     -11.913  11.946  67.604  1.00  0.00    -0.575 OA 
HETATM   37  C   UNL     1     -10.022  13.258  68.291  1.00  0.00    -0.236 A  
HETATM   38  H   UNL     1     -11.352  11.184  67.516  1.00  0.00     0.000 HD 
HETATM   39  C   UNL     1      -9.457  14.510  68.571  1.00  0.00    -0.211 A  
HETATM   40  C   UNL     1      -7.955  14.459  68.494  1.00  0.00    -0.144 C  
HETATM   41  C   UNL     1      -7.914  13.088  67.670  1.00  0.00    -0.169 C  
HETATM   42  C   UNL     1      -6.934  15.011  69.876  1.00  0.00    -0.149 C  
HETATM   43  O   UNL     1      -9.052  12.288  68.094  1.00  0.00    -0.187 OA 
HETATM   44  C   UNL     1      -6.342  16.707  69.771  1.00  0.00    -0.175 C  
HETATM   45  N   UNL     1      -7.204  17.663  69.036  1.00  0.00    -0.245 NA 
BRANCH  45  46
HETATM   46  C   UNL     1      -6.718  18.464  67.927  1.00  0.00    -0.216 C  
BRANCH  46  47
HETATM   47  C   UNL     1      -7.185  19.881  67.924  1.00  0.00    -0.317 C  
HETATM   48  C   UNL     1      -8.348  20.267  67.389  1.00  0.00    -0.396 C  
ENDBRANCH  46  47
ENDBRANCH  45  46
ENDBRANCH  23  24
ENDBRANCH  22  23
ENDBRANCH  21  22
ENDBRANCH  20  21
ENDBRANCH  19  20
ENDBRANCH  18  19
ENDBRANCH  17  18
ENDBRANCH  16  17
ENDBRANCH  15  16
ENDBRANCH  14  15
ENDBRANCH  13  14
ENDBRANCH  12  13
ENDBRANCH  11  12
ENDBRANCH  10  11
ENDBRANCH   9  10
ENDBRANCH   8   9
ENDBRANCH   7   8
ENDBRANCH   6   7
ENDBRANCH   5   6
ENDBRANCH   4   5
ENDBRANCH   3   4
ENDBRANCH   2   3
TORSDOF 24
ENDMDL
MODEL      127
REMARK 921   NORMALIZED FREE ENERGY PREDICTED BY IDOCK:   -3.49 KCAL/MOL
REMARK 922        TOTAL FREE ENERGY PREDICTED BY IDOCK:  -10.69 KCAL/MOL
REMARK 923 INTER-LIGAND FREE ENERGY PREDICTED BY IDOCK:   -9.07 KCAL/MOL
REMARK 924 INTRA-LIGAND FREE ENERGY PREDICTED BY IDOCK:   -1.62 KCAL/MOL
REMARK 927      BINDING AFFINITY PREDICTED BY RF-SCORE:    0.00 PKD
ROOT
HETATM    1  C   UNL     1     -13.173   9.696  71.865  1.00  0.00    -0.446 C  
HETATM    2  O   UNL     1     -11.810   9.952  71.559  1.00  0.00    -0.381 OA 
ENDROOT
BRANCH   2   3
HETATM    3  C   UNL     1     -11.234   8.878  70.817  1.00  0.00    -0.272 C  
BRANCH   3   4
HETATM    4  C   UNL     1     -11.302   7.603  71.644  1.00  0.00    -0.251 C  
BRANCH   4   5
HETATM    5  O   UNL     1     -10.293   7.649  72.653  1.00  0.00    -0.227 OA 
BRANCH   5   6
HETATM    6  C   UNL     1     -10.606   6.767  73.727  1.00  0.00    -0.295 C  
BRANCH   6   7
HETATM    7  C   UNL     1      -9.335   6.091  74.214  1.00  0.00    -0.147 C  
BRANCH   7   8
HETATM    8  O   UNL     1      -9.472   4.685  74.022  1.00  0.00    -0.116 OA 
BRANCH   8   9
HETATM    9  C   UNL     1      -8.694   4.234  72.919  1.00  0.00    -0.103 C  
BRANCH   9  10
HETATM   10  C   UNL     1      -9.597   4.101  71.704  1.00  0.00    -0.164 C  
BRANCH  10  11
HETATM   11  O   UNL     1      -9.256   5.121  70.775  1.00  0.00    -0.137 OA 
BRANCH  11  12
HETATM   12  C   UNL     1      -9.941   4.945  69.540  1.00  0.00    -0.225 C  
BRANCH  12  13
HETATM   13  C   UNL     1      -9.461   6.006  68.566  1.00  0.00    -0.120 C  
BRANCH  13  14
HETATM   14  O   UNL     1      -8.642   5.400  67.575  1.00  0.00    -0.109 OA 
BRANCH  14  15
HETATM   15  C   UNL     1      -7.381   6.054  67.507  1.00  0.00    -0.077 C  
BRANCH  15  16
HETATM   16  C   UNL     1      -6.671   5.687  66.215  1.00  0.00    -0.057 C  
BRANCH  16  17
HETATM   17  O   UNL     1      -7.572   5.941  65.145  1.00  0.00    -0.079 OA 
BRANCH  17  18
HETATM   18  C   UNL     1      -7.951   7.306  65.070  1.00  0.00    -0.129 C  
BRANCH  18  19
HETATM   19  C   UNL     1      -6.754   8.092  64.570  1.00  0.00    -0.060 C  
BRANCH  19  20
HETATM   20  O   UNL     1      -6.353   9.035  65.555  1.00  0.00    -0.065 OA 
BRANCH  20  21
HETATM   21  C   UNL     1      -6.670  10.372  65.171  1.00  0.00    -0.082 C  
BRANCH  21  22
HETATM   22  C   UNL     1      -8.016  10.805  65.762  1.00  0.00    -0.122 C  
BRANCH  22  23
HETATM   23  O   UNL     1      -7.996  12.029  66.541  1.00  0.00    -0.057 OA 
BRANCH  23  24
HETATM   24  C   UNL     1      -9.235  12.779  66.520  1.00  0.00    -0.189 C  
HETATM   25  C   UNL     1     -10.221  12.184  67.485  1.00  0.00    -0.209 C  
HETATM   26  C   UNL     1     -10.174  12.821  68.992  1.00  0.00     0.104 C  
HETATM   27  C   UNL     1     -10.172  14.457  69.187  1.00  0.00    -0.127 C  
HETATM   28  C   UNL     1     -11.292  15.567  69.728  1.00  0.00    -0.319 C  
HETATM   29  O   UNL     1      -8.906  14.731  69.803  1.00  0.00    -0.413 OA 
HETATM   30  C   UNL     1     -10.861  17.031  69.857  1.00  0.00     0.162 C  
HETATM   31  H   UNL     1      -8.904  15.675  69.915  1.00  0.00     0.000 HD 
HETATM   32  C   UNL     1     -10.222  17.341  68.526  1.00  0.00    -0.358 A  
HETATM   33  C   UNL     1      -9.651  18.570  68.256  1.00  0.00    -0.370 A  
HETATM   34  C   UNL     1      -8.785  18.737  67.185  1.00  0.00    -0.288 A  
HETATM   35  C   UNL     1      -8.446  17.631  66.355  1.00  0.00    -0.246 A  
HETATM   36  O   UNL     1      -7.420  17.747  65.470  1.00  0.00    -0.491 OA 
HETATM   37  C   UNL     1      -9.111  16.422  66.544  1.00  0.00    -0.276 A  
HETATM   38  H   UNL     1      -7.193  17.009  64.916  1.00  0.00     0.000 HD 
HETATM   39  C   UNL     1     -10.037  16.254  67.583  1.00  0.00    -0.260 A  
HETATM   40  C   UNL     1     -10.392  14.804  67.767  1.00  0.00    -0.244 C  
HETATM   41  C   UNL     1      -9.126  14.257  66.955  1.00  0.00    -0.233 C  
HETATM   42  C   UNL     1     -12.111  14.257  67.741  1.00  0.00    -0.316 C  
HETATM   43  O   UNL     1      -8.825  15.223  65.911  1.00  0.00    -0.163 OA 
HETATM   44  C   UNL     1     -12.896  14.095  69.351  1.00  0.00     0.593 C  
HETATM   45  N   UNL     1     -12.405  14.998  70.419  1.00  0.00    -0.327 NA 
BRANCH  45  46
HETATM   46  C   UNL     1     -11.924  14.509  71.699  1.00  0.00    -0.253 C  
BRANCH  46  47
HETATM   47  C   UNL     1     -12.492  15.205  72.891  1.00  0.00    -0.507 C  
HETATM   48  C   UNL     1     -13.640  15.890  72.859  1.00  0.00    -0.620 C  
ENDBRANCH  46  47
ENDBRANCH  45  46
ENDBRANCH  23  24
ENDBRANCH  22  23
ENDBRANCH  21  22
ENDBRANCH  20  21
ENDBRANCH  19  20
ENDBRANCH  18  19
ENDBRANCH  17  18
ENDBRANCH  16  17
ENDBRANCH  15  16
ENDBRANCH  14  15
ENDBRANCH  13  14
ENDBRANCH  12  13
ENDBRANCH  11  12
ENDBRANCH  10  11
ENDBRANCH   9  10
ENDBRANCH   8   9
ENDBRANCH   7   8
ENDBRANCH   6   7
ENDBRANCH   5   6
ENDBRANCH   4   5
ENDBRANCH   3   4
ENDBRANCH   2   3
TORSDOF 24
ENDMDL
MODEL      128
REMARK 921   NORMALIZED FREE ENERGY PREDICTED BY IDOCK:   -3.46 KCAL/MOL
REMARK 922        TOTAL FREE ENERGY PREDICTED BY IDOCK:  -10.61 KCAL/MOL
REMARK 923 INTER-LIGAND FREE ENERGY PREDICTED BY IDOCK:   -9.00 KCAL/MOL
REMARK 924 INTRA-LIGAND FREE ENERGY PREDICTED BY IDOCK:   -1.61 KCAL/MOL
REMARK 927      BINDING AFFINITY PREDICTED BY RF-SCORE:    0.00 PKD
ROOT
HETATM    1  C   UNL     1     -13.948   7.574  72.022  1.00  0.00    -0.185 C  
HETATM    2  O   UNL     1     -12.778   6.791  71.834  1.00  0.00    -0.343 OA 
ENDROOT
BRANCH   2   3
HETATM    3  C   UNL     1     -12.140   7.101  70.597  1.00  0.00    -0.237 C  
BRANCH   3   4
HETATM    4  C   UNL     1     -11.177   8.261  70.804  1.00  0.00    -0.264 C  
BRANCH   4   5
HETATM    5  O   UNL     1     -10.333   8.376  69.660  1.00  0.00    -0.209 OA 
BRANCH   5   6
HETATM    6  C   UNL     1     -10.990   9.081  68.610  1.00  0.00     0.080 C  
BRANCH   6   7
HETATM    7  C   UNL     1     -10.344   8.729  67.281  1.00  0.00    -0.290 C  
BRANCH   7   8
HETATM    8  O   UNL     1     -10.877   7.483  66.838  1.00  0.00    -0.345 OA 
BRANCH   8   9
HETATM    9  C   UNL     1      -9.852   6.510  66.674  1.00  0.00    -0.148 C  
BRANCH   9  10
HETATM   10  C   UNL     1     -10.496   5.157  66.422  1.00  0.00    -0.303 C  
BRANCH  10  11
HETATM   11  O   UNL     1      -9.822   4.532  65.338  1.00  0.00    -0.183 OA 
BRANCH  11  12
HETATM   12  C   UNL     1      -8.737   3.733  65.795  1.00  0.00    -0.116 C  
BRANCH  12  13
HETATM   13  C   UNL     1      -9.112   3.134  67.140  1.00  0.00    -0.178 C  
BRANCH  13  14
HETATM   14  O   UNL     1      -8.175   3.557  68.121  1.00  0.00    -0.081 OA 
BRANCH  14  15
HETATM   15  C   UNL     1      -6.991   2.772  68.046  1.00  0.00    -0.048 C  
BRANCH  15  16
HETATM   16  C   UNL     1      -5.782   3.668  67.840  1.00  0.00    -0.022 C  
BRANCH  16  17
HETATM   17  O   UNL     1      -6.034   4.890  68.522  1.00  0.00    -0.023 OA 
BRANCH  17  18
HETATM   18  C   UNL     1      -5.786   6.025  67.709  1.00  0.00    -0.012 C  
BRANCH  18  19
HETATM   19  C   UNL     1      -5.263   7.131  68.606  1.00  0.00    -0.017 C  
BRANCH  19  20
HETATM   20  O   UNL     1      -6.345   7.924  69.072  1.00  0.00    -0.035 OA 
BRANCH  20  21
HETATM   21  C   UNL     1      -6.886   8.746  68.039  1.00  0.00    -0.070 C  
BRANCH  21  22
HETATM   22  C   UNL     1      -7.219  10.145  68.569  1.00  0.00    -0.080 C  
BRANCH  22  23
HETATM   23  O   UNL     1      -7.687  11.097  67.580  1.00  0.00    -0.107 OA 
BRANCH  23  24
HETATM   24  C   UNL     1      -8.901  11.798  67.944  1.00  0.00    -0.165 C  
HETATM   25  C   UNL     1      -8.594  12.905  68.912  1.00  0.00     0.309 C  
HETATM   26  C   UNL     1      -8.284  14.355  68.219  1.00  0.00    -0.149 C  
HETATM   27  C   UNL     1      -9.299  14.939  67.060  1.00  0.00    -0.227 C  
HETATM   28  C   UNL     1     -10.425  16.168  67.008  1.00  0.00    -0.306 C  
HETATM   29  O   UNL     1      -8.482  15.002  65.882  1.00  0.00    -0.153 OA 
HETATM   30  C   UNL     1     -11.114  16.469  65.674  1.00  0.00     0.089 C  
HETATM   31  H   UNL     1      -9.068  15.339  65.214  1.00  0.00     0.000 HD 
HETATM   32  C   UNL     1     -11.597  15.119  65.203  1.00  0.00    -0.245 A  
HETATM   33  C   UNL     1     -12.238  14.953  63.990  1.00  0.00    -0.151 A  
HETATM   34  C   UNL     1     -12.373  13.696  63.418  1.00  0.00    -0.167 A  
HETATM   35  C   UNL     1     -11.827  12.550  64.062  1.00  0.00    -0.431 A  
HETATM   36  O   UNL     1     -11.749  11.374  63.384  1.00  0.00    -0.754 OA 
HETATM   37  C   UNL     1     -11.290  12.691  65.340  1.00  0.00    -0.313 A  
HETATM   38  H   UNL     1     -11.384  10.609  63.814  1.00  0.00     0.000 HD 
HETATM   39  C   UNL     1     -11.204  13.945  65.959  1.00  0.00    -0.300 A  
HETATM   40  C   UNL     1     -10.332  13.889  67.184  1.00  0.00    -0.265 C  
HETATM   41  C   UNL     1      -9.636  12.505  66.783  1.00  0.00    -0.231 C  
HETATM   42  C   UNL     1     -10.939  14.460  68.785  1.00  0.00    -0.264 C  
HETATM   43  O   UNL     1     -10.617  11.715  66.057  1.00  0.00    -0.242 OA 
HETATM   44  C   UNL     1     -10.506  16.152  69.217  1.00  0.00    -0.267 C  
HETATM   45  N   UNL     1     -10.336  17.098  68.089  1.00  0.00    -0.331 NA 
BRANCH  45  46
HETATM   46  C   UNL     1      -9.127  17.880  67.897  1.00  0.00    -0.260 C  
BRANCH  46  47
HETATM   47  C   UNL     1      -9.354  19.298  67.490  1.00  0.00    -0.369 C  
HETATM   48  C   UNL     1     -10.317  19.669  66.640  1.00  0.00    -0.598 C  
ENDBRANCH  46  47
ENDBRANCH  45  46
ENDBRANCH  23  24
ENDBRANCH  22  23
ENDBRANCH  21  22
ENDBRANCH  20  21
ENDBRANCH  19  20
ENDBRANCH  18  19
ENDBRANCH  17  18
ENDBRANCH  16  17
ENDBRANCH  15  16
ENDBRANCH  14  15
ENDBRANCH  13  14
ENDBRANCH  12  13
ENDBRANCH  11  12
ENDBRANCH  10  11
ENDBRANCH   9  10
ENDBRANCH   8   9
ENDBRANCH   7   8
ENDBRANCH   6   7
ENDBRANCH   5   6
ENDBRANCH   4   5
ENDBRANCH   3   4
ENDBRANCH   2   3
TORSDOF 24
ENDMDL
MODEL      129
REMARK 921   NORMALIZED FREE ENERGY PREDICTED BY IDOCK:   -3.42 KCAL/MOL
REMARK 922        TOTAL FREE ENERGY PREDICTED BY IDOCK:  -10.50 KCAL/MOL
REMARK 923 INTER-LIGAND FREE ENERGY PREDICTED BY IDOCK:   -9.35 KCAL/MOL
REMARK 924 INTRA-LIGAND FREE ENERGY PREDICTED BY IDOCK:   -1.15 KCAL/MOL
REMARK 927      BINDING AFFINITY PREDICTED BY RF-SCORE:    0.00 PKD
ROOT
HETATM    1  C   UNL     1      -7.120  10.589  65.514  1.00  0.00    -0.099 C  
HETATM    2  O   UNL     1      -8.104  10.622  66.539  1.00  0.00    -0.129 OA 
ENDROOT
BRANCH   2   3
HETATM    3  C   UNL     1      -8.836   9.398  66.593  1.00  0.00    -0.135 C  
BRANCH   3   4
HETATM    4  C   UNL     1      -9.433   9.108  65.224  1.00  0.00    -0.099 C  
BRANCH   4   5
HETATM    5  O   UNL     1     -10.374  10.132  64.901  1.00  0.00    -0.236 OA 
BRANCH   5   6
HETATM    6  C   UNL     1     -10.059  10.738  63.651  1.00  0.00    -0.312 C  
BRANCH   6   7
HETATM    7  C   UNL     1     -10.288  12.238  63.743  1.00  0.00    -0.435 C  
BRANCH   7   8
HETATM    8  O   UNL     1     -10.244  12.616  65.117  1.00  0.00    -0.287 OA 
BRANCH   8   9
HETATM    9  C   UNL     1      -9.799  13.958  65.271  1.00  0.00    -0.138 C  
BRANCH   9  10
HETATM   10  C   UNL     1     -11.002  14.884  65.216  1.00  0.00    -0.380 C  
BRANCH  10  11
HETATM   11  O   UNL     1     -12.182  14.092  65.251  1.00  0.00    -0.396 OA 
BRANCH  11  12
HETATM   12  C   UNL     1     -12.448  13.617  66.565  1.00  0.00    -0.285 C  
BRANCH  12  13
HETATM   13  C   UNL     1     -12.148  14.732  67.552  1.00  0.00    -0.096 C  
BRANCH  13  14
HETATM   14  O   UNL     1     -11.469  14.195  68.678  1.00  0.00    -0.263 OA 
BRANCH  14  15
HETATM   15  C   UNL     1     -11.371  15.170  69.709  1.00  0.00    -0.285 C  
BRANCH  15  16
HETATM   16  C   UNL     1     -12.637  15.172  70.548  1.00  0.00    -0.380 C  
BRANCH  16  17
HETATM   17  O   UNL     1     -12.273  14.810  71.874  1.00  0.00    -0.332 OA 
BRANCH  17  18
HETATM   18  C   UNL     1     -13.231  13.961  72.486  1.00  0.00    -0.502 C  
BRANCH  18  19
HETATM   19  C   UNL     1     -13.380  12.729  71.614  1.00  0.00    -0.254 C  
BRANCH  19  20
HETATM   20  O   UNL     1     -12.299  11.837  71.853  1.00  0.00     0.092 OA 
BRANCH  20  21
HETATM   21  C   UNL     1     -11.858  11.202  70.655  1.00  0.00    -0.302 C  
BRANCH  21  22
HETATM   22  C   UNL     1     -11.282   9.813  70.952  1.00  0.00    -0.359 C  
BRANCH  22  23
HETATM   23  O   UNL     1     -12.237   8.721  70.941  1.00  0.00    -0.240 OA 
BRANCH  23  24
HETATM   24  C   UNL     1     -11.720   7.460  71.431  1.00  0.00    -0.288 C  
HETATM   25  C   UNL     1     -11.896   6.386  70.395  1.00  0.00    -0.303 C  
HETATM   26  C   UNL     1     -10.628   6.203  69.376  1.00  0.00    -0.349 C  
HETATM   27  C   UNL     1      -9.100   6.100  69.985  1.00  0.00    -0.147 C  
HETATM   28  C   UNL     1      -7.991   4.865  70.144  1.00  0.00    -0.073 C  
HETATM   29  O   UNL     1      -8.438   7.259  69.460  1.00  0.00    -0.131 OA 
HETATM   30  C   UNL     1      -6.600   5.202  70.688  1.00  0.00    -0.035 C  
HETATM   31  H   UNL     1      -7.557   7.199  69.811  1.00  0.00     0.000 HD 
HETATM   32  C   UNL     1      -6.882   5.994  71.941  1.00  0.00    -0.069 A  
HETATM   33  C   UNL     1      -5.869   6.535  72.710  1.00  0.00    -0.038 A  
HETATM   34  C   UNL     1      -6.131   7.524  73.646  1.00  0.00    -0.060 A  
HETATM   35  C   UNL     1      -7.454   8.024  73.814  1.00  0.00    -0.159 A  
HETATM   36  O   UNL     1      -7.656   9.151  74.548  1.00  0.00    -0.351 OA 
HETATM   37  C   UNL     1      -8.497   7.400  73.134  1.00  0.00    -0.129 A  
HETATM   38  H   UNL     1      -8.539   9.484  74.660  1.00  0.00     0.000 HD 
HETATM   39  C   UNL     1      -8.257   6.355  72.231  1.00  0.00    -0.107 A  
HETATM   40  C   UNL     1      -9.481   6.051  71.412  1.00  0.00    -0.172 C  
HETATM   41  C   UNL     1     -10.207   7.438  71.744  1.00  0.00    -0.191 C  
HETATM   42  C   UNL     1     -10.156   4.379  71.333  1.00  0.00    -0.210 C  
HETATM   43  O   UNL     1      -9.815   7.825  73.090  1.00  0.00    -0.252 OA 
HETATM   44  C   UNL     1      -9.629   3.398  69.920  1.00  0.00    -0.127 C  
HETATM   45  N   UNL     1      -8.286   3.700  69.372  1.00  0.00    -0.053 NA 
BRANCH  45  46
HETATM   46  C   UNL     1      -8.066   4.032  67.975  1.00  0.00    -0.088 C  
BRANCH  46  47
HETATM   47  C   UNL     1      -7.964   2.858  67.059  1.00  0.00    -0.075 C  
HETATM   48  C   UNL     1      -8.015   2.963  65.727  1.00  0.00    -0.085 C  
ENDBRANCH  46  47
ENDBRANCH  45  46
ENDBRANCH  23  24
ENDBRANCH  22  23
ENDBRANCH  21  22
ENDBRANCH  20  21
ENDBRANCH  19  20
ENDBRANCH  18  19
ENDBRANCH  17  18
ENDBRANCH  16  17
ENDBRANCH  15  16
ENDBRANCH  14  15
ENDBRANCH  13  14
ENDBRANCH  12  13
ENDBRANCH  11  12
ENDBRANCH  10  11
ENDBRANCH   9  10
ENDBRANCH   8   9
ENDBRANCH   7   8
ENDBRANCH   6   7
ENDBRANCH   5   6
ENDBRANCH   4   5
ENDBRANCH   3   4
ENDBRANCH   2   3
TORSDOF 24
ENDMDL
MODEL      130
REMARK 921   NORMALIZED FREE ENERGY PREDICTED BY IDOCK:   -3.34 KCAL/MOL
REMARK 922        TOTAL FREE ENERGY PREDICTED BY IDOCK:  -10.32 KCAL/MOL
REMARK 923 INTER-LIGAND FREE ENERGY PREDICTED BY IDOCK:   -8.44 KCAL/MOL
REMARK 924 INTRA-LIGAND FREE ENERGY PREDICTED BY IDOCK:   -1.88 KCAL/MOL
REMARK 927      BINDING AFFINITY PREDICTED BY RF-SCORE:    0.00 PKD
ROOT
HETATM    1  C   UNL     1      -7.780   8.309  71.738  1.00  0.00    -0.111 C  
HETATM    2  O   UNL     1      -7.438   7.017  71.256  1.00  0.00    -0.079 OA 
ENDROOT
BRANCH   2   3
HETATM    3  C   UNL     1      -7.406   6.061  72.314  1.00  0.00    -0.094 C  
BRANCH   3   4
HETATM    4  C   UNL     1      -7.639   4.670  71.743  1.00  0.00    -0.091 C  
BRANCH   4   5
HETATM    5  O   UNL     1      -6.582   4.357  70.836  1.00  0.00    -0.029 OA 
BRANCH   5   6
HETATM    6  C   UNL     1      -7.046   3.518  69.782  1.00  0.00    -0.041 C  
BRANCH   6   7
HETATM    7  C   UNL     1      -6.905   4.245  68.455  1.00  0.00    -0.047 C  
BRANCH   7   8
HETATM    8  O   UNL     1      -8.201   4.657  68.029  1.00  0.00    -0.091 OA 
BRANCH   8   9
HETATM    9  C   UNL     1      -8.263   6.067  67.846  1.00  0.00    -0.112 C  
BRANCH   9  10
HETATM   10  C   UNL     1      -9.608   6.568  68.342  1.00  0.00    -0.122 C  
BRANCH  10  11
HETATM   11  O   UNL     1     -10.150   5.599  69.230  1.00  0.00    -0.176 OA 
BRANCH  11  12
HETATM   12  C   UNL     1     -11.268   6.117  69.942  1.00  0.00    -0.414 C  
BRANCH  12  13
HETATM   13  C   UNL     1     -10.954   6.080  71.428  1.00  0.00    -0.276 C  
BRANCH  13  14
HETATM   14  O   UNL     1     -12.015   6.692  72.148  1.00  0.00    -0.305 OA 
BRANCH  14  15
HETATM   15  C   UNL     1     -12.944   7.289  71.252  1.00  0.00    -0.328 C  
BRANCH  15  16
HETATM   16  C   UNL     1     -13.650   8.451  71.928  1.00  0.00    -0.379 C  
BRANCH  16  17
HETATM   17  O   UNL     1     -13.000   9.646  71.514  1.00  0.00    -0.344 OA 
BRANCH  17  18
HETATM   18  C   UNL     1     -13.653  10.811  71.991  1.00  0.00    -0.064 C  
BRANCH  18  19
HETATM   19  C   UNL     1     -12.772  12.001  71.663  1.00  0.00    -0.221 C  
BRANCH  19  20
HETATM   20  O   UNL     1     -13.025  13.055  72.583  1.00  0.00    -0.250 OA 
BRANCH  20  21
HETATM   21  C   UNL     1     -12.920  14.337  71.966  1.00  0.00    -0.355 C  
BRANCH  21  22
HETATM   22  C   UNL     1     -12.079  14.262  70.687  1.00  0.00    -0.346 C  
BRANCH  22  23
HETATM   23  O   UNL     1     -12.815  14.000  69.465  1.00  0.00     0.051 OA 
BRANCH  23  24
HETATM   24  C   UNL     1     -12.023  14.076  68.255  1.00  0.00    -0.349 C  
HETATM   25  C   UNL     1     -12.158  15.435  67.627  1.00  0.00     0.335 C  
HETATM   26  C   UNL     1     -11.037  16.526  68.108  1.00  0.00    -0.303 C  
HETATM   27  C   UNL     1      -9.443  16.109  68.118  1.00  0.00    -0.209 C  
HETATM   28  C   UNL     1      -8.127  16.518  67.180  1.00  0.00    -0.183 C  
HETATM   29  O   UNL     1      -9.073  16.183  69.502  1.00  0.00    -0.197 OA 
HETATM   30  C   UNL     1      -6.751  15.979  67.582  1.00  0.00    -0.188 C  
HETATM   31  H   UNL     1      -8.153  15.942  69.507  1.00  0.00     0.000 HD 
HETATM   32  C   UNL     1      -6.982  14.500  67.777  1.00  0.00    -0.194 A  
HETATM   33  C   UNL     1      -5.978  13.651  68.200  1.00  0.00    -0.118 A  
HETATM   34  C   UNL     1      -6.270  12.388  68.694  1.00  0.00    -0.069 A  
HETATM   35  C   UNL     1      -7.620  11.951  68.801  1.00  0.00    -0.090 A  
HETATM   36  O   UNL     1      -7.907  10.824  69.506  1.00  0.00    -0.295 OA 
HETATM   37  C   UNL     1      -8.628  12.749  68.264  1.00  0.00    -0.166 A  
HETATM   38  H   UNL     1      -8.808  10.533  69.577  1.00  0.00     0.000 HD 
HETATM   39  C   UNL     1      -8.343  14.002  67.702  1.00  0.00    -0.191 A  
HETATM   40  C   UNL     1      -9.601  14.792  67.467  1.00  0.00    -0.208 C  
HETATM   41  C   UNL     1     -10.500  13.897  68.443  1.00  0.00    -0.247 C  
HETATM   42  C   UNL     1      -9.982  15.470  65.838  1.00  0.00    -0.377 C  
HETATM   43  O   UNL     1      -9.992  12.537  68.382  1.00  0.00    -0.224 OA 
HETATM   44  C   UNL     1      -9.502  17.186  65.584  1.00  0.00     0.243 C  
HETATM   45  N   UNL     1      -8.324  17.661  66.347  1.00  0.00    -0.347 NA 
BRANCH  45  46
HETATM   46  C   UNL     1      -8.368  18.829  67.209  1.00  0.00    -0.268 C  
BRANCH  46  47
HETATM   47  C   UNL     1      -7.643  20.024  66.685  1.00  0.00    -0.314 C  
HETATM   48  C   UNL     1      -6.611  19.940  65.840  1.00  0.00    -0.251 C  
ENDBRANCH  46  47
ENDBRANCH  45  46
ENDBRANCH  23  24
ENDBRANCH  22  23
ENDBRANCH  21  22
ENDBRANCH  20  21
ENDBRANCH  19  20
ENDBRANCH  18  19
ENDBRANCH  17  18
ENDBRANCH  16  17
ENDBRANCH  15  16
ENDBRANCH  14  15
ENDBRANCH  13  14
ENDBRANCH  12  13
ENDBRANCH  11  12
ENDBRANCH  10  11
ENDBRANCH   9  10
ENDBRANCH   8   9
ENDBRANCH   7   8
ENDBRANCH   6   7
ENDBRANCH   5   6
ENDBRANCH   4   5
ENDBRANCH   3   4
ENDBRANCH   2   3
TORSDOF 24
ENDMDL
MODEL      131
REMARK 921   NORMALIZED FREE ENERGY PREDICTED BY IDOCK:   -3.33 KCAL/MOL
REMARK 922        TOTAL FREE ENERGY PREDICTED BY IDOCK:  -10.29 KCAL/MOL
REMARK 923 INTER-LIGAND FREE ENERGY PREDICTED BY IDOCK:   -8.22 KCAL/MOL
REMARK 924 INTRA-LIGAND FREE ENERGY PREDICTED BY IDOCK:   -2.07 KCAL/MOL
REMARK 927      BINDING AFFINITY PREDICTED BY RF-SCORE:    0.00 PKD
ROOT
HETATM    1  C   UNL     1      -6.120  10.211  70.919  1.00  0.00    -0.050 C  
HETATM    2  O   UNL     1      -5.604   8.951  71.329  1.00  0.00    -0.035 OA 
ENDROOT
BRANCH   2   3
HETATM    3  C   UNL     1      -6.654   8.028  71.610  1.00  0.00    -0.053 C  
BRANCH   3   4
HETATM    4  C   UNL     1      -7.266   7.549  70.302  1.00  0.00    -0.064 C  
BRANCH   4   5
HETATM    5  O   UNL     1      -8.601   7.108  70.548  1.00  0.00    -0.140 OA 
BRANCH   5   6
HETATM    6  C   UNL     1      -8.681   6.376  71.768  1.00  0.00    -0.132 C  
BRANCH   6   7
HETATM    7  C   UNL     1      -9.521   5.128  71.556  1.00  0.00    -0.151 C  
BRANCH   7   8
HETATM    8  O   UNL     1      -9.201   4.582  70.278  1.00  0.00    -0.100 OA 
BRANCH   8   9
HETATM    9  C   UNL     1      -8.134   3.645  70.366  1.00  0.00    -0.053 C  
BRANCH   9  10
HETATM   10  C   UNL     1      -8.023   2.902  69.047  1.00  0.00    -0.055 C  
BRANCH  10  11
HETATM   11  O   UNL     1      -9.314   2.839  68.455  1.00  0.00    -0.180 OA 
BRANCH  11  12
HETATM   12  C   UNL     1      -9.229   2.618  67.052  1.00  0.00    -0.113 C  
BRANCH  12  13
HETATM   13  C   UNL     1      -9.103   3.963  66.357  1.00  0.00    -0.147 C  
BRANCH  13  14
HETATM   14  O   UNL     1     -10.180   4.800  66.753  1.00  0.00    -0.225 OA 
BRANCH  14  15
HETATM   15  C   UNL     1      -9.692   6.061  67.194  1.00  0.00    -0.131 C  
BRANCH  15  16
HETATM   16  C   UNL     1     -10.840   6.922  67.692  1.00  0.00    -0.263 C  
BRANCH  16  17
HETATM   17  O   UNL     1     -10.651   8.231  67.169  1.00  0.00    -0.317 OA 
BRANCH  17  18
HETATM   18  C   UNL     1      -9.952   8.226  65.935  1.00  0.00     0.335 C  
BRANCH  18  19
HETATM   19  C   UNL     1      -9.305   9.587  65.765  1.00  0.00    -0.233 C  
BRANCH  19  20
HETATM   20  O   UNL     1      -7.897   9.439  65.652  1.00  0.00    -0.097 OA 
BRANCH  20  21
HETATM   21  C   UNL     1      -7.218   9.889  66.823  1.00  0.00    -0.091 C  
BRANCH  21  22
HETATM   22  C   UNL     1      -7.997  11.019  67.506  1.00  0.00    -0.116 C  
BRANCH  22  23
HETATM   23  O   UNL     1      -7.864  12.330  66.898  1.00  0.00    -0.138 OA 
BRANCH  23  24
HETATM   24  C   UNL     1      -9.091  13.097  66.844  1.00  0.00    -0.229 C  
HETATM   25  C   UNL     1     -10.061  12.605  67.882  1.00  0.00    -0.222 C  
HETATM   26  C   UNL     1      -9.963  13.368  69.326  1.00  0.00     0.443 C  
HETATM   27  C   UNL     1      -9.930  15.015  69.379  1.00  0.00    -0.183 C  
HETATM   28  C   UNL     1     -11.018  16.187  69.850  1.00  0.00    -0.362 C  
HETATM   29  O   UNL     1      -8.644  15.319  69.936  1.00  0.00    -0.371 OA 
HETATM   30  C   UNL     1     -10.562  17.649  69.841  1.00  0.00     0.712 C  
HETATM   31  H   UNL     1      -8.625  16.269  69.966  1.00  0.00     0.000 HD 
HETATM   32  C   UNL     1      -9.955  17.832  68.472  1.00  0.00    -0.370 A  
HETATM   33  C   UNL     1      -9.372  19.023  68.082  1.00  0.00    -0.385 A  
HETATM   34  C   UNL     1      -8.533  19.082  66.979  1.00  0.00    -0.300 A  
HETATM   35  C   UNL     1      -8.234  17.903  66.239  1.00  0.00    -0.211 A  
HETATM   36  O   UNL     1      -7.229  17.924  65.322  1.00  0.00    -0.329 OA 
HETATM   37  C   UNL     1      -8.911  16.726  66.549  1.00  0.00    -0.273 A  
HETATM   38  H   UNL     1      -7.029  17.137  64.828  1.00  0.00     0.000 HD 
HETATM   39  C   UNL     1      -9.811  16.665  67.622  1.00  0.00    -0.256 A  
HETATM   40  C   UNL     1     -10.183  15.243  67.941  1.00  0.00    -0.235 C  
HETATM   41  C   UNL     1      -8.948  14.605  67.147  1.00  0.00    -0.225 C  
HETATM   42  C   UNL     1     -11.911  14.725  68.005  1.00  0.00    -0.324 C  
HETATM   43  O   UNL     1      -8.661  15.472  66.015  1.00  0.00    -0.258 OA 
HETATM   44  C   UNL     1     -12.655  14.717  69.643  1.00  0.00    -0.068 C  
HETATM   45  N   UNL     1     -12.121  15.700  70.616  1.00  0.00    -0.381 NA 
BRANCH  45  46
HETATM   46  C   UNL     1     -11.613  15.314  71.921  1.00  0.00    -0.437 C  
BRANCH  46  47
HETATM   47  C   UNL     1     -12.090  16.160  73.055  1.00  0.00    -0.636 C  
HETATM   48  C   UNL     1     -12.589  15.651  74.186  1.00  0.00    -0.763 C  
ENDBRANCH  46  47
ENDBRANCH  45  46
ENDBRANCH  23  24
ENDBRANCH  22  23
ENDBRANCH  21  22
ENDBRANCH  20  21
ENDBRANCH  19  20
ENDBRANCH  18  19
ENDBRANCH  17  18
ENDBRANCH  16  17
ENDBRANCH  15  16
ENDBRANCH  14  15
ENDBRANCH  13  14
ENDBRANCH  12  13
ENDBRANCH  11  12
ENDBRANCH  10  11
ENDBRANCH   9  10
ENDBRANCH   8   9
ENDBRANCH   7   8
ENDBRANCH   6   7
ENDBRANCH   5   6
ENDBRANCH   4   5
ENDBRANCH   3   4
ENDBRANCH   2   3
TORSDOF 24
ENDMDL
MODEL      132
REMARK 921   NORMALIZED FREE ENERGY PREDICTED BY IDOCK:   -3.30 KCAL/MOL
REMARK 922        TOTAL FREE ENERGY PREDICTED BY IDOCK:  -10.22 KCAL/MOL
REMARK 923 INTER-LIGAND FREE ENERGY PREDICTED BY IDOCK:   -7.75 KCAL/MOL
REMARK 924 INTRA-LIGAND FREE ENERGY PREDICTED BY IDOCK:   -2.47 KCAL/MOL
REMARK 927      BINDING AFFINITY PREDICTED BY RF-SCORE:    0.00 PKD
ROOT
HETATM    1  C   UNL     1     -11.178   4.812  73.447  1.00  0.00    -0.343 C  
HETATM    2  O   UNL     1     -10.135   4.116  72.778  1.00  0.00    -0.148 OA 
ENDROOT
BRANCH   2   3
HETATM    3  C   UNL     1      -9.454   3.228  73.662  1.00  0.00    -0.102 C  
BRANCH   3   4
HETATM    4  C   UNL     1      -7.961   3.517  73.615  1.00  0.00    -0.074 C  
BRANCH   4   5
HETATM    5  O   UNL     1      -7.711   4.507  72.618  1.00  0.00    -0.083 OA 
BRANCH   5   6
HETATM    6  C   UNL     1      -6.607   4.135  71.797  1.00  0.00    -0.022 C  
BRANCH   6   7
HETATM    7  C   UNL     1      -6.907   2.812  71.112  1.00  0.00    -0.032 C  
BRANCH   7   8
HETATM    8  O   UNL     1      -7.827   3.054  70.049  1.00  0.00    -0.043 OA 
BRANCH   8   9
HETATM    9  C   UNL     1      -8.125   1.858  69.339  1.00  0.00    -0.044 C  
BRANCH   9  10
HETATM   10  C   UNL     1      -8.453   2.210  67.899  1.00  0.00    -0.071 C  
BRANCH  10  11
HETATM   11  O   UNL     1      -9.606   3.043  67.890  1.00  0.00    -0.194 OA 
BRANCH  11  12
HETATM   12  C   UNL     1      -9.603   3.918  66.769  1.00  0.00    -0.198 C  
BRANCH  12  13
HETATM   13  C   UNL     1      -8.282   3.760  66.035  1.00  0.00    -0.101 C  
BRANCH  13  14
HETATM   14  O   UNL     1      -8.206   4.718  64.989  1.00  0.00    -0.116 OA 
BRANCH  14  15
HETATM   15  C   UNL     1      -7.541   5.892  65.440  1.00  0.00    -0.085 C  
BRANCH  15  16
HETATM   16  C   UNL     1      -8.268   7.129  64.941  1.00  0.00    -0.071 C  
BRANCH  16  17
HETATM   17  O   UNL     1      -7.403   7.796  64.031  1.00  0.00    -0.085 OA 
BRANCH  17  18
HETATM   18  C   UNL     1      -8.113   8.526  63.045  1.00  0.00    -0.174 C  
BRANCH  18  19
HETATM   19  C   UNL     1      -7.362   9.821  62.800  1.00  0.00    -0.120 C  
BRANCH  19  20
HETATM   20  O   UNL     1      -8.262  10.818  62.336  1.00  0.00    -0.193 OA 
BRANCH  20  21
HETATM   21  C   UNL     1      -9.584  10.614  62.832  1.00  0.00    -0.327 C  
BRANCH  21  22
HETATM   22  C   UNL     1     -10.159  11.913  63.409  1.00  0.00    -0.438 C  
BRANCH  22  23
HETATM   23  O   UNL     1     -11.419  11.783  64.116  1.00  0.00    -0.350 OA 
BRANCH  23  24
HETATM   24  C   UNL     1     -11.344  12.046  65.538  1.00  0.00    -0.328 C  
HETATM   25  C   UNL     1     -11.243  10.757  66.303  1.00  0.00     0.167 C  
HETATM   26  C   UNL     1      -9.714  10.249  66.589  1.00  0.00    -0.233 C  
HETATM   27  C   UNL     1      -8.602  11.304  67.192  1.00  0.00    -0.147 C  
HETATM   28  C   UNL     1      -7.855  11.491  68.671  1.00  0.00    -0.137 C  
HETATM   29  O   UNL     1      -7.616  11.400  66.155  1.00  0.00    -0.349 OA 
HETATM   30  C   UNL     1      -6.773  12.565  68.810  1.00  0.00    -0.093 C  
HETATM   31  H   UNL     1      -6.974  12.009  66.503  1.00  0.00     0.000 HD 
HETATM   32  C   UNL     1      -7.418  13.806  68.241  1.00  0.00    -0.120 A  
HETATM   33  C   UNL     1      -6.737  15.003  68.137  1.00  0.00    -0.134 A  
HETATM   34  C   UNL     1      -7.204  16.024  67.323  1.00  0.00    -0.241 A  
HETATM   35  C   UNL     1      -8.388  15.845  66.552  1.00  0.00    -0.295 A  
HETATM   36  O   UNL     1      -8.699  16.746  65.582  1.00  0.00    -0.441 OA 
HETATM   37  C   UNL     1      -9.145  14.692  66.744  1.00  0.00    -0.264 A  
HETATM   38  H   UNL     1      -9.489  16.626  65.067  1.00  0.00     0.000 HD 
HETATM   39  C   UNL     1      -8.720  13.677  67.613  1.00  0.00    -0.182 A  
HETATM   40  C   UNL     1      -9.534  12.426  67.429  1.00  0.00    -0.186 C  
HETATM   41  C   UNL     1     -10.113  12.857  66.001  1.00  0.00    -0.285 C  
HETATM   42  C   UNL     1     -10.363  11.643  68.828  1.00  0.00    -0.213 C  
HETATM   43  O   UNL     1     -10.250  14.304  66.003  1.00  0.00    -0.291 OA 
HETATM   44  C   UNL     1      -9.462  10.294  69.605  1.00  0.00    -0.151 C  
HETATM   45  N   UNL     1      -7.983  10.368  69.545  1.00  0.00    -0.160 NA 
BRANCH  45  46
HETATM   46  C   UNL     1      -7.166   9.296  69.005  1.00  0.00    -0.071 C  
BRANCH  46  47
HETATM   47  C   UNL     1      -7.728   7.925  69.187  1.00  0.00    -0.100 C  
HETATM   48  C   UNL     1      -6.991   6.814  69.089  1.00  0.00    -0.078 C  
ENDBRANCH  46  47
ENDBRANCH  45  46
ENDBRANCH  23  24
ENDBRANCH  22  23
ENDBRANCH  21  22
ENDBRANCH  20  21
ENDBRANCH  19  20
ENDBRANCH  18  19
ENDBRANCH  17  18
ENDBRANCH  16  17
ENDBRANCH  15  16
ENDBRANCH  14  15
ENDBRANCH  13  14
ENDBRANCH  12  13
ENDBRANCH  11  12
ENDBRANCH  10  11
ENDBRANCH   9  10
ENDBRANCH   8   9
ENDBRANCH   7   8
ENDBRANCH   6   7
ENDBRANCH   5   6
ENDBRANCH   4   5
ENDBRANCH   3   4
ENDBRANCH   2   3
TORSDOF 24
ENDMDL
MODEL      133
REMARK 921   NORMALIZED FREE ENERGY PREDICTED BY IDOCK:   -3.26 KCAL/MOL
REMARK 922        TOTAL FREE ENERGY PREDICTED BY IDOCK:  -10.13 KCAL/MOL
REMARK 923 INTER-LIGAND FREE ENERGY PREDICTED BY IDOCK:   -8.09 KCAL/MOL
REMARK 924 INTRA-LIGAND FREE ENERGY PREDICTED BY IDOCK:   -2.04 KCAL/MOL
REMARK 927      BINDING AFFINITY PREDICTED BY RF-SCORE:    0.00 PKD
ROOT
HETATM    1  C   UNL     1     -11.887  15.559  64.574  1.00  0.00    -0.216 C  
HETATM    2  O   UNL     1     -11.059  14.426  64.798  1.00  0.00    -0.378 OA 
ENDROOT
BRANCH   2   3
HETATM    3  C   UNL     1      -9.976  14.740  65.672  1.00  0.00    -0.360 C  
BRANCH   3   4
HETATM    4  C   UNL     1     -10.373  15.908  66.564  1.00  0.00    -0.300 C  
BRANCH   4   5
HETATM    5  O   UNL     1     -10.521  15.440  67.904  1.00  0.00    -0.247 OA 
BRANCH   5   6
HETATM    6  C   UNL     1     -10.871  16.507  68.781  1.00  0.00    -0.342 C  
BRANCH   6   7
HETATM    7  C   UNL     1     -11.262  15.942  70.136  1.00  0.00    -0.364 C  
BRANCH   7   8
HETATM    8  O   UNL     1     -12.665  16.127  70.313  1.00  0.00    -0.168 OA 
BRANCH   8   9
HETATM    9  C   UNL     1     -13.184  15.245  71.300  1.00  0.00    -0.488 C  
BRANCH   9  10
HETATM   10  C   UNL     1     -12.397  13.947  71.261  1.00  0.00    -0.335 C  
BRANCH  10  11
HETATM   11  O   UNL     1     -13.310  12.871  71.088  1.00  0.00    -0.079 OA 
BRANCH  11  12
HETATM   12  C   UNL     1     -13.094  11.849  72.054  1.00  0.00    -0.336 C  
BRANCH  12  13
HETATM   13  C   UNL     1     -12.575  10.612  71.342  1.00  0.00    -0.421 C  
BRANCH  13  14
HETATM   14  O   UNL     1     -12.897  10.694  69.960  1.00  0.00    -0.235 OA 
BRANCH  14  15
HETATM   15  C   UNL     1     -11.710  10.720  69.176  1.00  0.00    -0.296 C  
BRANCH  15  16
HETATM   16  C   UNL     1     -11.780  11.848  68.161  1.00  0.00    -0.320 C  
BRANCH  16  17
HETATM   17  O   UNL     1     -11.583  11.277  66.874  1.00  0.00    -0.464 OA 
BRANCH  17  18
HETATM   18  C   UNL     1     -10.549  10.306  66.864  1.00  0.00    -0.217 C  
BRANCH  18  19
HETATM   19  C   UNL     1      -9.456  10.805  65.938  1.00  0.00    -0.197 C  
BRANCH  19  20
HETATM   20  O   UNL     1      -8.423   9.834  65.846  1.00  0.00    -0.124 OA 
BRANCH  20  21
HETATM   21  C   UNL     1      -7.474   9.964  66.903  1.00  0.00    -0.092 C  
BRANCH  21  22
HETATM   22  C   UNL     1      -7.511   8.741  67.826  1.00  0.00    -0.093 C  
BRANCH  22  23
HETATM   23  O   UNL     1      -6.220   8.179  68.177  1.00  0.00    -0.048 OA 
BRANCH  23  24
HETATM   24  C   UNL     1      -5.906   6.929  67.516  1.00  0.00    -0.020 C  
HETATM   25  C   UNL     1      -6.037   5.783  68.479  1.00  0.00    -0.025 C  
HETATM   26  C   UNL     1      -7.516   5.083  68.512  1.00  0.00    -0.074 C  
HETATM   27  C   UNL     1      -8.256   4.668  67.099  1.00  0.00    -0.105 C  
HETATM   28  C   UNL     1      -8.583   3.222  66.336  1.00  0.00    -0.121 C  
HETATM   29  O   UNL     1      -9.431   5.490  67.068  1.00  0.00    -0.123 OA 
HETATM   30  C   UNL     1      -9.401   3.251  65.043  1.00  0.00    -0.150 C  
HETATM   31  H   UNL     1      -9.857   5.251  66.252  1.00  0.00     0.000 HD 
HETATM   32  C   UNL     1      -8.712   4.295  64.199  1.00  0.00    -0.127 A  
HETATM   33  C   UNL     1      -9.184   4.659  62.953  1.00  0.00    -0.073 A  
HETATM   34  C   UNL     1      -8.760   5.829  62.340  1.00  0.00     0.049 A  
HETATM   35  C   UNL     1      -7.843   6.696  63.001  1.00  0.00    -0.103 A  
HETATM   36  O   UNL     1      -7.627   7.944  62.507  1.00  0.00    -0.100 OA 
HETATM   37  C   UNL     1      -7.269   6.277  64.199  1.00  0.00    -0.061 A  
HETATM   38  H   UNL     1      -7.015   8.523  62.948  1.00  0.00     0.000 HD 
HETATM   39  C   UNL     1      -7.640   5.066  64.800  1.00  0.00    -0.078 A  
HETATM   40  C   UNL     1      -7.118   4.975  66.208  1.00  0.00    -0.072 C  
HETATM   41  C   UNL     1      -6.834   6.544  66.342  1.00  0.00    -0.061 C  
HETATM   42  C   UNL     1      -6.122   3.568  66.741  1.00  0.00    -0.025 C  
HETATM   43  O   UNL     1      -6.457   7.035  65.027  1.00  0.00    -0.042 OA 
HETATM   44  C   UNL     1      -7.026   2.250  67.567  1.00  0.00    -0.044 C  
HETATM   45  N   UNL     1      -8.441   2.069  67.167  1.00  0.00    -0.085 NA 
BRANCH  45  46
HETATM   46  C   UNL     1      -9.534   2.080  68.124  1.00  0.00    -0.164 C  
BRANCH  46  47
HETATM   47  C   UNL     1      -9.140   1.773  69.530  1.00  0.00    -0.157 C  
HETATM   48  C   UNL     1      -9.173   2.679  70.513  1.00  0.00    -0.206 C  
ENDBRANCH  46  47
ENDBRANCH  45  46
ENDBRANCH  23  24
ENDBRANCH  22  23
ENDBRANCH  21  22
ENDBRANCH  20  21
ENDBRANCH  19  20
ENDBRANCH  18  19
ENDBRANCH  17  18
ENDBRANCH  16  17
ENDBRANCH  15  16
ENDBRANCH  14  15
ENDBRANCH  13  14
ENDBRANCH  12  13
ENDBRANCH  11  12
ENDBRANCH  10  11
ENDBRANCH   9  10
ENDBRANCH   8   9
ENDBRANCH   7   8
ENDBRANCH   6   7
ENDBRANCH   5   6
ENDBRANCH   4   5
ENDBRANCH   3   4
ENDBRANCH   2   3
TORSDOF 24
ENDMDL
MODEL      134
REMARK 921   NORMALIZED FREE ENERGY PREDICTED BY IDOCK:   -3.18 KCAL/MOL
REMARK 922        TOTAL FREE ENERGY PREDICTED BY IDOCK:   -9.93 KCAL/MOL
REMARK 923 INTER-LIGAND FREE ENERGY PREDICTED BY IDOCK:   -7.79 KCAL/MOL
REMARK 924 INTRA-LIGAND FREE ENERGY PREDICTED BY IDOCK:   -2.14 KCAL/MOL
REMARK 927      BINDING AFFINITY PREDICTED BY RF-SCORE:    0.00 PKD
ROOT
HETATM    1  C   UNL     1     -11.027  19.953  67.953  1.00  0.00     0.133 C  
HETATM    2  O   UNL     1     -10.107  19.078  67.314  1.00  0.00    -0.327 OA 
ENDROOT
BRANCH   2   3
HETATM    3  C   UNL     1     -10.358  18.997  65.912  1.00  0.00    -0.371 C  
BRANCH   3   4
HETATM    4  C   UNL     1     -10.412  17.535  65.495  1.00  0.00    -0.068 C  
BRANCH   4   5
HETATM    5  O   UNL     1     -10.709  16.736  66.639  1.00  0.00    -0.236 OA 
BRANCH   5   6
HETATM    6  C   UNL     1     -10.957  15.383  66.266  1.00  0.00    -0.278 C  
BRANCH   6   7
HETATM    7  C   UNL     1      -9.663  14.742  65.793  1.00  0.00    -0.313 C  
BRANCH   7   8
HETATM    8  O   UNL     1      -9.133  13.959  66.859  1.00  0.00    -0.239 OA 
BRANCH   8   9
HETATM    9  C   UNL     1      -9.862  12.750  67.028  1.00  0.00    -0.231 C  
BRANCH   9  10
HETATM   10  C   UNL     1      -9.618  12.220  68.430  1.00  0.00    -0.183 C  
BRANCH  10  11
HETATM   11  O   UNL     1      -8.890  11.004  68.332  1.00  0.00    -0.138 OA 
BRANCH  11  12
HETATM   12  C   UNL     1      -7.561  11.232  67.876  1.00  0.00    -0.100 C  
BRANCH  12  13
HETATM   13  C   UNL     1      -7.191  10.131  66.898  1.00  0.00    -0.092 C  
BRANCH  13  14
HETATM   14  O   UNL     1      -6.143  10.585  66.053  1.00  0.00    -0.096 OA 
BRANCH  14  15
HETATM   15  C   UNL     1      -5.304   9.500  65.676  1.00  0.00    -0.043 C  
BRANCH  15  16
HETATM   16  C   UNL     1      -5.361   9.293  64.172  1.00  0.00    -0.060 C  
BRANCH  16  17
HETATM   17  O   UNL     1      -6.687   8.898  63.845  1.00  0.00    -0.087 OA 
BRANCH  17  18
HETATM   18  C   UNL     1      -6.855   7.490  63.875  1.00  0.00    -0.054 C  
BRANCH  18  19
HETATM   19  C   UNL     1      -8.283   7.205  64.304  1.00  0.00     0.038 C  
BRANCH  19  20
HETATM   20  O   UNL     1      -8.350   7.113  65.720  1.00  0.00    -0.132 OA 
BRANCH  20  21
HETATM   21  C   UNL     1      -8.923   5.879  66.147  1.00  0.00    -0.151 C  
BRANCH  21  22
HETATM   22  C   UNL     1      -8.068   5.227  67.239  1.00  0.00    -0.101 C  
BRANCH  22  23
HETATM   23  O   UNL     1      -6.996   6.047  67.771  1.00  0.00    -0.065 OA 
BRANCH  23  24
HETATM   24  C   UNL     1      -7.140   6.396  69.170  1.00  0.00    -0.084 C  
HETATM   25  C   UNL     1      -7.754   7.761  69.307  1.00  0.00    -0.100 C  
HETATM   26  C   UNL     1      -9.387   7.768  69.414  1.00  0.00    -0.152 C  
HETATM   27  C   UNL     1     -10.141   6.746  70.464  1.00  0.00    -0.183 C  
HETATM   28  C   UNL     1     -10.945   6.947  71.911  1.00  0.00    -0.235 C  
HETATM   29  O   UNL     1     -10.912   5.884  69.616  1.00  0.00    -0.347 OA 
HETATM   30  C   UNL     1     -11.611   5.725  72.549  1.00  0.00    -0.321 C  
HETATM   31  H   UNL     1     -11.347   5.294  70.222  1.00  0.00     0.000 HD 
HETATM   32  C   UNL     1     -10.527   4.675  72.543  1.00  0.00    -0.257 A  
HETATM   33  C   UNL     1     -10.749   3.389  72.997  1.00  0.00    -0.229 A  
HETATM   34  C   UNL     1      -9.876   2.358  72.683  1.00  0.00    -0.197 A  
HETATM   35  C   UNL     1      -8.742   2.602  71.858  1.00  0.00    -0.073 A  
HETATM   36  O   UNL     1      -8.038   1.550  71.359  1.00  0.00    -0.043 OA 
HETATM   37  C   UNL     1      -8.444   3.914  71.499  1.00  0.00    -0.085 A  
HETATM   38  H   UNL     1      -7.281   1.713  70.808  1.00  0.00     0.000 HD 
HETATM   39  C   UNL     1      -9.282   4.977  71.862  1.00  0.00    -0.164 A  
HETATM   40  C   UNL     1      -8.920   6.234  71.120  1.00  0.00    -0.146 C  
HETATM   41  C   UNL     1      -8.071   5.478  69.993  1.00  0.00    -0.090 C  
HETATM   42  C   UNL     1      -8.567   7.767  72.004  1.00  0.00    -0.149 C  
HETATM   43  O   UNL     1      -7.457   4.316  70.613  1.00  0.00    -0.047 OA 
HETATM   44  C   UNL     1      -9.951   8.905  72.162  1.00  0.00    -0.204 C  
HETATM   45  N   UNL     1     -11.303   8.297  72.208  1.00  0.00    -0.351 NA 
BRANCH  45  46
HETATM   46  C   UNL     1     -12.365   8.681  71.295  1.00  0.00    -0.263 C  
BRANCH  46  47
HETATM   47  C   UNL     1     -12.783  10.111  71.384  1.00  0.00    -0.530 C  
HETATM   48  C   UNL     1     -12.655  10.974  70.371  1.00  0.00    -0.349 C  
ENDBRANCH  46  47
ENDBRANCH  45  46
ENDBRANCH  23  24
ENDBRANCH  22  23
ENDBRANCH  21  22
ENDBRANCH  20  21
ENDBRANCH  19  20
ENDBRANCH  18  19
ENDBRANCH  17  18
ENDBRANCH  16  17
ENDBRANCH  15  16
ENDBRANCH  14  15
ENDBRANCH  13  14
ENDBRANCH  12  13
ENDBRANCH  11  12
ENDBRANCH  10  11
ENDBRANCH   9  10
ENDBRANCH   8   9
ENDBRANCH   7   8
ENDBRANCH   6   7
ENDBRANCH   5   6
ENDBRANCH   4   5
ENDBRANCH   3   4
ENDBRANCH   2   3
TORSDOF 24
ENDMDL
MODEL      135
REMARK 921   NORMALIZED FREE ENERGY PREDICTED BY IDOCK:   -3.17 KCAL/MOL
REMARK 922        TOTAL FREE ENERGY PREDICTED BY IDOCK:   -9.91 KCAL/MOL
REMARK 923 INTER-LIGAND FREE ENERGY PREDICTED BY IDOCK:   -9.64 KCAL/MOL
REMARK 924 INTRA-LIGAND FREE ENERGY PREDICTED BY IDOCK:   -0.27 KCAL/MOL
REMARK 927      BINDING AFFINITY PREDICTED BY RF-SCORE:    0.00 PKD
ROOT
HETATM    1  C   UNL     1      -5.627   9.443  72.672  1.00  0.00     0.020 C  
HETATM    2  O   UNL     1      -5.227   9.672  71.328  1.00  0.00    -0.046 OA 
ENDROOT
BRANCH   2   3
HETATM    3  C   UNL     1      -6.010  10.699  70.722  1.00  0.00    -0.058 C  
BRANCH   3   4
HETATM    4  C   UNL     1      -5.185  11.975  70.636  1.00  0.00    -0.136 C  
BRANCH   4   5
HETATM    5  O   UNL     1      -5.899  12.939  69.864  1.00  0.00    -0.110 OA 
BRANCH   5   6
HETATM    6  C   UNL     1      -6.234  12.419  68.580  1.00  0.00    -0.069 C  
BRANCH   6   7
HETATM    7  C   UNL     1      -7.499  13.092  68.074  1.00  0.00    -0.134 C  
BRANCH   7   8
HETATM    8  O   UNL     1      -7.310  14.504  68.130  1.00  0.00    -0.106 OA 
BRANCH   8   9
HETATM    9  C   UNL     1      -7.930  15.064  69.281  1.00  0.00    -0.190 C  
BRANCH   9  10
HETATM   10  C   UNL     1      -9.133  15.881  68.843  1.00  0.00    -0.233 C  
BRANCH  10  11
HETATM   11  O   UNL     1     -10.312  15.150  69.156  1.00  0.00    -0.230 OA 
BRANCH  11  12
HETATM   12  C   UNL     1     -11.459  15.737  68.553  1.00  0.00    -0.379 C  
BRANCH  12  13
HETATM   13  C   UNL     1     -11.235  15.805  67.053  1.00  0.00    -0.082 C  
BRANCH  13  14
HETATM   14  O   UNL     1     -11.111  14.488  66.534  1.00  0.00    -0.318 OA 
BRANCH  14  15
HETATM   15  C   UNL     1     -12.339  14.068  65.950  1.00  0.00    -0.486 C  
BRANCH  15  16
HETATM   16  C   UNL     1     -12.099  13.557  64.540  1.00  0.00    -0.416 C  
BRANCH  16  17
HETATM   17  O   UNL     1     -10.730  13.787  64.229  1.00  0.00    -0.372 OA 
BRANCH  17  18
HETATM   18  C   UNL     1     -10.012  12.581  64.026  1.00  0.00    -0.198 C  
BRANCH  18  19
HETATM   19  C   UNL     1     -10.974  11.428  64.242  1.00  0.00    -0.321 C  
BRANCH  19  20
HETATM   20  O   UNL     1     -11.067  11.134  65.629  1.00  0.00    -0.150 OA 
BRANCH  20  21
HETATM   21  C   UNL     1      -9.821  10.693  66.165  1.00  0.00    -0.217 C  
BRANCH  21  22
HETATM   22  C   UNL     1      -9.263   9.517  65.357  1.00  0.00    -0.247 C  
BRANCH  22  23
HETATM   23  O   UNL     1      -9.420   8.208  65.961  1.00  0.00    -0.176 OA 
BRANCH  23  24
HETATM   24  C   UNL     1      -8.812   8.069  67.268  1.00  0.00    -0.131 C  
HETATM   25  C   UNL     1      -9.341   9.120  68.204  1.00  0.00    -0.147 C  
HETATM   26  C   UNL     1     -10.657   8.669  69.065  1.00  0.00    -0.179 C  
HETATM   27  C   UNL     1     -10.664   7.219  69.847  1.00  0.00    -0.242 C  
HETATM   28  C   UNL     1     -10.575   6.758  71.448  1.00  0.00    -0.221 C  
HETATM   29  O   UNL     1     -11.715   6.483  69.206  1.00  0.00    -0.644 OA 
HETATM   30  C   UNL     1     -10.717   5.271  71.786  1.00  0.00    -0.240 C  
HETATM   31  H   UNL     1     -11.718   5.646  69.657  1.00  0.00     0.000 HD 
HETATM   32  C   UNL     1      -9.743   4.592  70.854  1.00  0.00    -0.262 A  
HETATM   33  C   UNL     1      -9.606   3.218  70.812  1.00  0.00    -0.228 A  
HETATM   34  C   UNL     1      -8.976   2.594  69.746  1.00  0.00    -0.167 A  
HETATM   35  C   UNL     1      -8.480   3.361  68.654  1.00  0.00    -0.079 A  
HETATM   36  O   UNL     1      -8.091   2.730  67.513  1.00  0.00    -0.074 OA 
HETATM   37  C   UNL     1      -8.504   4.751  68.745  1.00  0.00    -0.081 A  
HETATM   38  H   UNL     1      -7.760   3.242  66.785  1.00  0.00     0.000 HD 
HETATM   39  C   UNL     1      -9.080   5.399  69.847  1.00  0.00    -0.165 A  
HETATM   40  C   UNL     1      -9.252   6.870  69.584  1.00  0.00    -0.146 C  
HETATM   41  C   UNL     1      -9.096   6.737  67.997  1.00  0.00    -0.119 C  
HETATM   42  C   UNL     1      -8.576   8.102  70.716  1.00  0.00    -0.138 C  
HETATM   43  O   UNL     1      -8.174   5.643  67.738  1.00  0.00    -0.101 OA 
HETATM   44  C   UNL     1      -9.727   8.737  71.945  1.00  0.00    -0.316 C  
HETATM   45  N   UNL     1     -10.801   7.815  72.382  1.00  0.00    -0.276 NA 
BRANCH  45  46
HETATM   46  C   UNL     1     -12.209   8.165  72.317  1.00  0.00    -0.346 C  
BRANCH  46  47
HETATM   47  C   UNL     1     -12.493   9.630  72.328  1.00  0.00    -0.249 C  
HETATM   48  C   UNL     1     -13.385  10.208  71.517  1.00  0.00    -0.434 C  
ENDBRANCH  46  47
ENDBRANCH  45  46
ENDBRANCH  23  24
ENDBRANCH  22  23
ENDBRANCH  21  22
ENDBRANCH  20  21
ENDBRANCH  19  20
ENDBRANCH  18  19
ENDBRANCH  17  18
ENDBRANCH  16  17
ENDBRANCH  15  16
ENDBRANCH  14  15
ENDBRANCH  13  14
ENDBRANCH  12  13
ENDBRANCH  11  12
ENDBRANCH  10  11
ENDBRANCH   9  10
ENDBRANCH   8   9
ENDBRANCH   7   8
ENDBRANCH   6   7
ENDBRANCH   5   6
ENDBRANCH   4   5
ENDBRANCH   3   4
ENDBRANCH   2   3
TORSDOF 24
ENDMDL
MODEL      136
REMARK 921   NORMALIZED FREE ENERGY PREDICTED BY IDOCK:   -3.17 KCAL/MOL
REMARK 922        TOTAL FREE ENERGY PREDICTED BY IDOCK:   -9.91 KCAL/MOL
REMARK 923 INTER-LIGAND FREE ENERGY PREDICTED BY IDOCK:   -8.10 KCAL/MOL
REMARK 924 INTRA-LIGAND FREE ENERGY PREDICTED BY IDOCK:   -1.80 KCAL/MOL
REMARK 927      BINDING AFFINITY PREDICTED BY RF-SCORE:    0.00 PKD
ROOT
HETATM    1  C   UNL     1      -6.295  20.282  65.695  1.00  0.00    -0.234 C  
HETATM    2  O   UNL     1      -7.152  19.169  65.477  1.00  0.00    -0.405 OA 
ENDROOT
BRANCH   2   3
HETATM    3  C   UNL     1      -8.420  19.362  66.100  1.00  0.00    -0.291 C  
BRANCH   3   4
HETATM    4  C   UNL     1      -8.225  20.078  67.427  1.00  0.00    -0.332 C  
BRANCH   4   5
HETATM    5  O   UNL     1      -8.295  19.124  68.486  1.00  0.00    -0.340 OA 
BRANCH   5   6
HETATM    6  C   UNL     1      -7.060  19.056  69.194  1.00  0.00    -0.294 C  
BRANCH   6   7
HETATM    7  C   UNL     1      -6.235  17.895  68.664  1.00  0.00    -0.201 C  
BRANCH   7   8
HETATM    8  O   UNL     1      -6.603  16.718  69.380  1.00  0.00    -0.217 OA 
BRANCH   8   9
HETATM    9  C   UNL     1      -6.447  15.553  68.578  1.00  0.00    -0.103 C  
BRANCH   9  10
HETATM   10  C   UNL     1      -7.456  15.599  67.444  1.00  0.00    -0.205 C  
BRANCH  10  11
HETATM   11  O   UNL     1      -8.490  14.665  67.722  1.00  0.00    -0.157 OA 
BRANCH  11  12
HETATM   12  C   UNL     1      -9.751  15.312  67.850  1.00  0.00    -0.211 C  
BRANCH  12  13
HETATM   13  C   UNL     1     -10.610  14.937  66.654  1.00  0.00    -0.305 C  
BRANCH  13  14
HETATM   14  O   UNL     1     -11.831  14.373  67.110  1.00  0.00    -0.388 OA 
BRANCH  14  15
HETATM   15  C   UNL     1     -12.172  13.233  66.331  1.00  0.00    -0.356 C  
BRANCH  15  16
HETATM   16  C   UNL     1     -11.212  12.093  66.623  1.00  0.00    -0.324 C  
BRANCH  16  17
HETATM   17  O   UNL     1     -11.776  11.317  67.672  1.00  0.00    -0.564 OA 
BRANCH  17  18
HETATM   18  C   UNL     1     -11.315  11.719  68.951  1.00  0.00    -0.267 C  
BRANCH  18  19
HETATM   19  C   UNL     1     -11.152  10.470  69.797  1.00  0.00    -0.295 C  
BRANCH  19  20
HETATM   20  O   UNL     1     -10.887   9.353  68.959  1.00  0.00    -0.211 OA 
BRANCH  20  21
HETATM   21  C   UNL     1     -11.250   8.122  69.582  1.00  0.00     0.095 C  
BRANCH  21  22
HETATM   22  C   UNL     1     -10.038   7.191  69.700  1.00  0.00    -0.192 C  
BRANCH  22  23
HETATM   23  O   UNL     1      -8.742   7.841  69.687  1.00  0.00    -0.134 OA 
BRANCH  23  24
HETATM   24  C   UNL     1      -7.764   7.222  68.816  1.00  0.00    -0.119 C  
HETATM   25  C   UNL     1      -8.274   5.900  68.315  1.00  0.00    -0.109 C  
HETATM   26  C   UNL     1      -9.092   5.975  66.900  1.00  0.00    -0.126 C  
HETATM   27  C   UNL     1      -8.451   6.805  65.629  1.00  0.00    -0.138 C  
HETATM   28  C   UNL     1      -7.768   6.362  64.173  1.00  0.00    -0.105 C  
HETATM   29  O   UNL     1      -9.385   7.870  65.403  1.00  0.00    -0.381 OA 
HETATM   30  C   UNL     1      -7.370   7.467  63.191  1.00  0.00    -0.090 C  
HETATM   31  H   UNL     1      -9.015   8.349  64.670  1.00  0.00     0.000 HD 
HETATM   32  C   UNL     1      -6.559   8.425  64.029  1.00  0.00    -0.071 A  
HETATM   33  C   UNL     1      -6.051   9.601  63.512  1.00  0.00    -0.105 A  
HETATM   34  C   UNL     1      -5.609  10.617  64.347  1.00  0.00    -0.071 A  
HETATM   35  C   UNL     1      -5.699  10.477  65.761  1.00  0.00    -0.124 A  
HETATM   36  O   UNL     1      -5.496  11.562  66.556  1.00  0.00    -0.134 OA 
HETATM   37  C   UNL     1      -6.094   9.250  66.290  1.00  0.00    -0.060 A  
HETATM   38  H   UNL     1      -5.556  11.468  67.500  1.00  0.00     0.000 HD 
HETATM   39  C   UNL     1      -6.482   8.190  65.459  1.00  0.00    -0.049 A  
HETATM   40  C   UNL     1      -7.140   7.093  66.249  1.00  0.00    -0.074 C  
HETATM   41  C   UNL     1      -7.425   8.008  67.530  1.00  0.00    -0.097 C  
HETATM   42  C   UNL     1      -6.547   5.391  66.149  1.00  0.00    -0.048 C  
HETATM   43  O   UNL     1      -6.346   8.977  67.624  1.00  0.00    -0.055 OA 
HETATM   44  C   UNL     1      -7.419   4.335  64.982  1.00  0.00    -0.073 C  
HETATM   45  N   UNL     1      -8.004   5.005  63.797  1.00  0.00    -0.092 NA 
BRANCH  45  46
HETATM   46  C   UNL     1      -9.408   4.885  63.443  1.00  0.00     0.182 C  
BRANCH  46  47
HETATM   47  C   UNL     1      -9.757   3.660  62.664  1.00  0.00    -0.115 C  
HETATM   48  C   UNL     1      -9.989   2.473  63.234  1.00  0.00    -0.117 C  
ENDBRANCH  46  47
ENDBRANCH  45  46
ENDBRANCH  23  24
ENDBRANCH  22  23
ENDBRANCH  21  22
ENDBRANCH  20  21
ENDBRANCH  19  20
ENDBRANCH  18  19
ENDBRANCH  17  18
ENDBRANCH  16  17
ENDBRANCH  15  16
ENDBRANCH  14  15
ENDBRANCH  13  14
ENDBRANCH  12  13
ENDBRANCH  11  12
ENDBRANCH  10  11
ENDBRANCH   9  10
ENDBRANCH   8   9
ENDBRANCH   7   8
ENDBRANCH   6   7
ENDBRANCH   5   6
ENDBRANCH   4   5
ENDBRANCH   3   4
ENDBRANCH   2   3
TORSDOF 24
ENDMDL
MODEL      137
REMARK 921   NORMALIZED FREE ENERGY PREDICTED BY IDOCK:   -3.16 KCAL/MOL
REMARK 922        TOTAL FREE ENERGY PREDICTED BY IDOCK:   -9.89 KCAL/MOL
REMARK 923 INTER-LIGAND FREE ENERGY PREDICTED BY IDOCK:   -8.16 KCAL/MOL
REMARK 924 INTRA-LIGAND FREE ENERGY PREDICTED BY IDOCK:   -1.73 KCAL/MOL
REMARK 927      BINDING AFFINITY PREDICTED BY RF-SCORE:    0.00 PKD
ROOT
HETATM    1  C   UNL     1     -11.232  16.465  68.527  1.00  0.00    -0.334 C  
HETATM    2  O   UNL     1     -10.523  17.541  69.127  1.00  0.00    -0.347 OA 
ENDROOT
BRANCH   2   3
HETATM    3  C   UNL     1      -9.813  18.301  68.152  1.00  0.00    -0.341 C  
BRANCH   3   4
HETATM    4  C   UNL     1      -8.844  19.240  68.855  1.00  0.00    -0.296 C  
BRANCH   4   5
HETATM    5  O   UNL     1      -7.544  18.650  68.858  1.00  0.00    -0.302 OA 
BRANCH   5   6
HETATM    6  C   UNL     1      -7.539  17.424  68.131  1.00  0.00    -0.214 C  
BRANCH   6   7
HETATM    7  C   UNL     1      -7.212  16.278  69.074  1.00  0.00    -0.204 C  
BRANCH   7   8
HETATM    8  O   UNL     1      -7.126  15.078  68.309  1.00  0.00    -0.102 OA 
BRANCH   8   9
HETATM    9  C   UNL     1      -8.329  14.323  68.392  1.00  0.00    -0.164 C  
BRANCH   9  10
HETATM   10  C   UNL     1      -8.887  14.134  66.992  1.00  0.00    -0.221 C  
BRANCH  10  11
HETATM   11  O   UNL     1     -10.207  13.617  67.099  1.00  0.00    -0.241 OA 
BRANCH  11  12
HETATM   12  C   UNL     1     -10.299  12.644  68.133  1.00  0.00    -0.234 C  
BRANCH  12  13
HETATM   13  C   UNL     1     -11.687  12.719  68.745  1.00  0.00    -0.323 C  
BRANCH  13  14
HETATM   14  O   UNL     1     -12.329  11.458  68.613  1.00  0.00    -0.491 OA 
BRANCH  14  15
HETATM   15  C   UNL     1     -11.695  10.490  69.440  1.00  0.00    -0.223 C  
BRANCH  15  16
HETATM   16  C   UNL     1     -12.014  10.760  70.900  1.00  0.00    -0.333 C  
BRANCH  16  17
HETATM   17  O   UNL     1     -12.420   9.529  71.484  1.00  0.00    -0.328 OA 
BRANCH  17  18
HETATM   18  C   UNL     1     -11.793   8.410  70.879  1.00  0.00    -0.217 C  
BRANCH  18  19
HETATM   19  C   UNL     1     -11.607   7.350  71.949  1.00  0.00    -0.272 C  
BRANCH  19  20
HETATM   20  O   UNL     1     -10.224   7.196  72.236  1.00  0.00    -0.186 OA 
BRANCH  20  21
HETATM   21  C   UNL     1      -9.784   8.108  73.242  1.00  0.00    -0.156 C  
BRANCH  21  22
HETATM   22  C   UNL     1      -8.254   8.182  73.281  1.00  0.00    -0.199 C  
BRANCH  22  23
HETATM   23  O   UNL     1      -7.644   9.088  72.325  1.00  0.00    -0.344 OA 
BRANCH  23  24
HETATM   24  C   UNL     1      -6.795   8.447  71.343  1.00  0.00    -0.069 C  
HETATM   25  C   UNL     1      -6.392   7.078  71.815  1.00  0.00    -0.041 C  
HETATM   26  C   UNL     1      -7.392   5.870  71.345  1.00  0.00    -0.084 C  
HETATM   27  C   UNL     1      -7.859   5.765  69.768  1.00  0.00    -0.095 C  
HETATM   28  C   UNL     1      -7.491   4.733  68.511  1.00  0.00    -0.066 C  
HETATM   29  O   UNL     1      -9.280   5.960  69.813  1.00  0.00    -0.141 OA 
HETATM   30  C   UNL     1      -8.231   4.913  67.182  1.00  0.00    -0.106 C  
HETATM   31  H   UNL     1      -9.549   5.899  68.904  1.00  0.00     0.000 HD 
HETATM   32  C   UNL     1      -8.090   6.385  66.883  1.00  0.00    -0.109 A  
HETATM   33  C   UNL     1      -8.675   6.967  65.775  1.00  0.00    -0.120 A  
HETATM   34  C   UNL     1      -8.828   8.343  65.686  1.00  0.00    -0.196 A  
HETATM   35  C   UNL     1      -8.407   9.184  66.755  1.00  0.00    -0.123 A  
HETATM   36  O   UNL     1      -8.781  10.492  66.765  1.00  0.00    -0.130 OA 
HETATM   37  C   UNL     1      -7.707   8.619  67.818  1.00  0.00    -0.102 A  
HETATM   38  H   UNL     1      -8.500  11.054  67.478  1.00  0.00     0.000 HD 
HETATM   39  C   UNL     1      -7.488   7.236  67.892  1.00  0.00    -0.102 A  
HETATM   40  C   UNL     1      -6.984   6.837  69.252  1.00  0.00    -0.074 C  
HETATM   41  C   UNL     1      -7.445   8.194  69.964  1.00  0.00    -0.065 C  
HETATM   42  C   UNL     1      -5.458   5.892  69.437  1.00  0.00    -0.004 C  
HETATM   43  O   UNL     1      -7.330   9.263  68.985  1.00  0.00    -0.070 OA 
HETATM   44  C   UNL     1      -5.665   4.111  69.588  1.00  0.00    -0.017 C  
HETATM   45  N   UNL     1      -6.843   3.524  68.906  1.00  0.00    -0.045 NA 
BRANCH  45  46
HETATM   46  C   UNL     1      -7.822   2.706  69.600  1.00  0.00    -0.042 C  
BRANCH  46  47
HETATM   47  C   UNL     1      -8.315   1.527  68.829  1.00  0.00    -0.073 C  
HETATM   48  C   UNL     1      -9.346   1.588  67.980  1.00  0.00    -0.213 C  
ENDBRANCH  46  47
ENDBRANCH  45  46
ENDBRANCH  23  24
ENDBRANCH  22  23
ENDBRANCH  21  22
ENDBRANCH  20  21
ENDBRANCH  19  20
ENDBRANCH  18  19
ENDBRANCH  17  18
ENDBRANCH  16  17
ENDBRANCH  15  16
ENDBRANCH  14  15
ENDBRANCH  13  14
ENDBRANCH  12  13
ENDBRANCH  11  12
ENDBRANCH  10  11
ENDBRANCH   9  10
ENDBRANCH   8   9
ENDBRANCH   7   8
ENDBRANCH   6   7
ENDBRANCH   5   6
ENDBRANCH   4   5
ENDBRANCH   3   4
ENDBRANCH   2   3
TORSDOF 24
ENDMDL
MODEL      138
REMARK 921   NORMALIZED FREE ENERGY PREDICTED BY IDOCK:   -3.11 KCAL/MOL
REMARK 922        TOTAL FREE ENERGY PREDICTED BY IDOCK:   -9.77 KCAL/MOL
REMARK 923 INTER-LIGAND FREE ENERGY PREDICTED BY IDOCK:   -7.58 KCAL/MOL
REMARK 924 INTRA-LIGAND FREE ENERGY PREDICTED BY IDOCK:   -2.19 KCAL/MOL
REMARK 927      BINDING AFFINITY PREDICTED BY RF-SCORE:    0.00 PKD
ROOT
HETATM    1  C   UNL     1      -7.618   4.446  70.910  1.00  0.00    -0.052 C  
HETATM    2  O   UNL     1      -8.689   5.357  71.119  1.00  0.00    -0.126 OA 
ENDROOT
BRANCH   2   3
HETATM    3  C   UNL     1      -9.173   5.289  72.459  1.00  0.00    -0.136 C  
BRANCH   3   4
HETATM    4  C   UNL     1     -10.500   4.546  72.477  1.00  0.00    -0.186 C  
BRANCH   4   5
HETATM    5  O   UNL     1     -11.490   5.377  73.084  1.00  0.00    -0.292 OA 
BRANCH   5   6
HETATM    6  C   UNL     1     -12.001   6.325  72.151  1.00  0.00    -0.287 C  
BRANCH   6   7
HETATM    7  C   UNL     1     -11.332   7.671  72.379  1.00  0.00    -0.329 C  
BRANCH   7   8
HETATM    8  O   UNL     1     -10.696   8.068  71.166  1.00  0.00    -0.216 OA 
BRANCH   8   9
HETATM    9  C   UNL     1     -11.338   9.199  70.590  1.00  0.00    -0.273 C  
BRANCH   9  10
HETATM   10  C   UNL     1     -11.919  10.054  71.704  1.00  0.00    -0.286 C  
BRANCH  10  11
HETATM   11  O   UNL     1     -13.195  10.525  71.291  1.00  0.00    -0.365 OA 
BRANCH  11  12
HETATM   12  C   UNL     1     -13.536  11.739  71.952  1.00  0.00    -0.176 C  
BRANCH  12  13
HETATM   13  C   UNL     1     -12.384  12.716  71.792  1.00  0.00     0.405 C  
BRANCH  13  14
HETATM   14  O   UNL     1     -12.133  12.926  70.409  1.00  0.00    -0.361 OA 
BRANCH  14  15
HETATM   15  C   UNL     1     -12.460  14.262  70.043  1.00  0.00    -0.300 C  
BRANCH  15  16
HETATM   16  C   UNL     1     -12.309  14.445  68.543  1.00  0.00    -0.004 C  
BRANCH  16  17
HETATM   17  O   UNL     1     -11.224  15.338  68.328  1.00  0.00    -0.285 OA 
BRANCH  17  18
HETATM   18  C   UNL     1     -11.617  16.698  68.416  1.00  0.00     0.121 C  
BRANCH  18  19
HETATM   19  C   UNL     1     -10.430  17.488  68.934  1.00  0.00    -0.286 C  
BRANCH  19  20
HETATM   20  O   UNL     1      -9.243  16.721  68.794  1.00  0.00    -0.250 OA 
BRANCH  20  21
HETATM   21  C   UNL     1      -9.073  15.802  69.872  1.00  0.00     0.194 C  
BRANCH  21  22
HETATM   22  C   UNL     1      -7.711  15.104  69.786  1.00  0.00    -0.066 C  
BRANCH  22  23
HETATM   23  O   UNL     1      -6.914  15.422  68.616  1.00  0.00    -0.106 OA 
BRANCH  23  24
HETATM   24  C   UNL     1      -6.886  14.387  67.604  1.00  0.00    -0.182 C  
HETATM   25  C   UNL     1      -6.155  13.177  68.115  1.00  0.00    -0.103 C  
HETATM   26  C   UNL     1      -7.104  12.062  68.847  1.00  0.00    -0.104 C  
HETATM   27  C   UNL     1      -8.493  11.564  68.113  1.00  0.00    -0.154 C  
HETATM   28  C   UNL     1      -8.971  10.157  67.357  1.00  0.00    -0.134 C  
HETATM   29  O   UNL     1      -9.530  11.991  69.007  1.00  0.00    -0.406 OA 
HETATM   30  C   UNL     1     -10.421  10.046  66.877  1.00  0.00    -0.284 C  
HETATM   31  H   UNL     1     -10.331  11.704  68.584  1.00  0.00     0.000 HD 
HETATM   32  C   UNL     1     -10.643  11.317  66.094  1.00  0.00    -0.312 A  
HETATM   33  C   UNL     1     -11.865  11.625  65.529  1.00  0.00     0.150 A  
HETATM   34  C   UNL     1     -12.157  12.916  65.113  1.00  0.00    -0.489 A  
HETATM   35  C   UNL     1     -11.205  13.960  65.288  1.00  0.00    -0.313 A  
HETATM   36  O   UNL     1     -11.587  15.253  65.107  1.00  0.00    -0.296 OA 
HETATM   37  C   UNL     1      -9.929  13.635  65.742  1.00  0.00    -0.261 A  
HETATM   38  H   UNL     1     -10.952  15.950  65.224  1.00  0.00     0.000 HD 
HETATM   39  C   UNL     1      -9.597  12.323  66.106  1.00  0.00    -0.248 A  
HETATM   40  C   UNL     1      -8.282  12.276  66.835  1.00  0.00    -0.112 C  
HETATM   41  C   UNL     1      -8.265  13.840  67.173  1.00  0.00    -0.108 C  
HETATM   42  C   UNL     1      -6.948  11.196  66.277  1.00  0.00    -0.052 C  
HETATM   43  O   UNL     1      -8.926  14.531  66.078  1.00  0.00    -0.064 OA 
HETATM   44  C   UNL     1      -6.847   9.601  67.104  1.00  0.00    -0.084 C  
HETATM   45  N   UNL     1      -8.122   9.034  67.603  1.00  0.00    -0.108 NA 
BRANCH  45  46
HETATM   46  C   UNL     1      -8.314   8.634  68.985  1.00  0.00    -0.119 C  
BRANCH  46  47
HETATM   47  C   UNL     1      -7.068   8.603  69.808  1.00  0.00    -0.051 C  
HETATM   48  C   UNL     1      -7.074   8.659  71.144  1.00  0.00    -0.081 C  
ENDBRANCH  46  47
ENDBRANCH  45  46
ENDBRANCH  23  24
ENDBRANCH  22  23
ENDBRANCH  21  22
ENDBRANCH  20  21
ENDBRANCH  19  20
ENDBRANCH  18  19
ENDBRANCH  17  18
ENDBRANCH  16  17
ENDBRANCH  15  16
ENDBRANCH  14  15
ENDBRANCH  13  14
ENDBRANCH  12  13
ENDBRANCH  11  12
ENDBRANCH  10  11
ENDBRANCH   9  10
ENDBRANCH   8   9
ENDBRANCH   7   8
ENDBRANCH   6   7
ENDBRANCH   5   6
ENDBRANCH   4   5
ENDBRANCH   3   4
ENDBRANCH   2   3
TORSDOF 24
ENDMDL
MODEL      139
REMARK 921   NORMALIZED FREE ENERGY PREDICTED BY IDOCK:   -3.11 KCAL/MOL
REMARK 922        TOTAL FREE ENERGY PREDICTED BY IDOCK:   -9.76 KCAL/MOL
REMARK 923 INTER-LIGAND FREE ENERGY PREDICTED BY IDOCK:   -7.09 KCAL/MOL
REMARK 924 INTRA-LIGAND FREE ENERGY PREDICTED BY IDOCK:   -2.67 KCAL/MOL
REMARK 927      BINDING AFFINITY PREDICTED BY RF-SCORE:    0.00 PKD
ROOT
HETATM    1  C   UNL     1     -11.677   4.999  73.108  1.00  0.00    -0.125 C  
HETATM    2  O   UNL     1     -10.479   4.548  72.491  1.00  0.00    -0.194 OA 
ENDROOT
BRANCH   2   3
HETATM    3  C   UNL     1      -9.990   3.361  73.113  1.00  0.00    -0.137 C  
BRANCH   3   4
HETATM    4  C   UNL     1      -8.591   3.616  73.653  1.00  0.00    -0.083 C  
BRANCH   4   5
HETATM    5  O   UNL     1      -8.116   4.862  73.145  1.00  0.00    -0.100 OA 
BRANCH   5   6
HETATM    6  C   UNL     1      -6.692   4.889  73.109  1.00  0.00    -0.067 C  
BRANCH   6   7
HETATM    7  C   UNL     1      -6.185   3.750  72.239  1.00  0.00    -0.013 C  
BRANCH   7   8
HETATM    8  O   UNL     1      -6.681   3.940  70.916  1.00  0.00    -0.030 OA 
BRANCH   8   9
HETATM    9  C   UNL     1      -6.225   2.916  70.040  1.00  0.00    -0.024 C  
BRANCH   9  10
HETATM   10  C   UNL     1      -6.706   3.224  68.633  1.00  0.00    -0.044 C  
BRANCH  10  11
HETATM   11  O   UNL     1      -8.116   3.397  68.666  1.00  0.00    -0.061 OA 
BRANCH  11  12
HETATM   12  C   UNL     1      -8.575   4.124  67.532  1.00  0.00    -0.100 C  
BRANCH  12  13
HETATM   13  C   UNL     1      -7.416   4.292  66.565  1.00  0.00    -0.081 C  
BRANCH  13  14
HETATM   14  O   UNL     1      -7.680   5.386  65.698  1.00  0.00    -0.088 OA 
BRANCH  14  15
HETATM   15  C   UNL     1      -7.655   6.610  66.423  1.00  0.00    -0.090 C  
BRANCH  15  16
HETATM   16  C   UNL     1      -8.390   7.691  65.650  1.00  0.00    -0.140 C  
BRANCH  16  17
HETATM   17  O   UNL     1      -7.422   8.416  64.903  1.00  0.00    -0.084 OA 
BRANCH  17  18
HETATM   18  C   UNL     1      -7.712   8.434  63.515  1.00  0.00    -0.144 C  
BRANCH  18  19
HETATM   19  C   UNL     1      -7.059   9.670  62.923  1.00  0.00    -0.109 C  
BRANCH  19  20
HETATM   20  O   UNL     1      -8.050  10.502  62.337  1.00  0.00    -0.155 OA 
BRANCH  20  21
HETATM   21  C   UNL     1      -9.288  10.435  63.043  1.00  0.00    -0.319 C  
BRANCH  21  22
HETATM   22  C   UNL     1      -9.679  11.811  63.594  1.00  0.00    -0.271 C  
BRANCH  22  23
HETATM   23  O   UNL     1     -10.790  11.822  64.526  1.00  0.00    -0.292 OA 
BRANCH  23  24
HETATM   24  C   UNL     1     -10.470  12.337  65.841  1.00  0.00    -0.256 C  
HETATM   25  C   UNL     1     -11.729  12.617  66.613  1.00  0.00    -0.464 C  
HETATM   26  C   UNL     1     -12.263  11.369  67.527  1.00  0.00     0.727 C  
HETATM   27  C   UNL     1     -11.212  10.569  68.511  1.00  0.00    -0.274 C  
HETATM   28  C   UNL     1     -10.983  10.502  70.162  1.00  0.00    -0.270 C  
HETATM   29  O   UNL     1     -11.184   9.237  67.980  1.00  0.00    -0.506 OA 
HETATM   30  C   UNL     1      -9.931   9.535  70.712  1.00  0.00    -0.334 C  
HETATM   31  H   UNL     1     -10.577   8.776  68.548  1.00  0.00     0.000 HD 
HETATM   32  C   UNL     1      -8.700   9.832  69.892  1.00  0.00    -0.238 A  
HETATM   33  C   UNL     1      -7.525   9.122  70.050  1.00  0.00    -0.077 A  
HETATM   34  C   UNL     1      -6.527   9.166  69.087  1.00  0.00    -0.042 A  
HETATM   35  C   UNL     1      -6.708   9.926  67.897  1.00  0.00    -0.068 A  
HETATM   36  O   UNL     1      -5.841   9.766  66.862  1.00  0.00    -0.050 OA 
HETATM   37  C   UNL     1      -7.833  10.739  67.786  1.00  0.00    -0.109 A  
HETATM   38  H   UNL     1      -5.961  10.273  66.067  1.00  0.00     0.000 HD 
HETATM   39  C   UNL     1      -8.821  10.756  68.780  1.00  0.00    -0.163 A  
HETATM   40  C   UNL     1     -10.058  11.469  68.306  1.00  0.00    -0.205 C  
HETATM   41  C   UNL     1      -9.672  11.381  66.755  1.00  0.00    -0.198 C  
HETATM   42  C   UNL     1     -10.761  12.838  69.249  1.00  0.00     0.040 C  
HETATM   43  O   UNL     1      -8.223  11.448  66.661  1.00  0.00    -0.159 OA 
HETATM   44  C   UNL     1     -12.099  12.398  70.369  1.00  0.00    -0.297 C  
HETATM   45  N   UNL     1     -12.065  11.028  70.932  1.00  0.00    -0.350 NA 
BRANCH  45  46
HETATM   46  C   UNL     1     -13.179  10.103  70.813  1.00  0.00    -0.226 C  
BRANCH  46  47
HETATM   47  C   UNL     1     -13.067   8.874  71.652  1.00  0.00    -0.405 C  
HETATM   48  C   UNL     1     -14.128   8.231  72.151  1.00  0.00    -0.418 C  
ENDBRANCH  46  47
ENDBRANCH  45  46
ENDBRANCH  23  24
ENDBRANCH  22  23
ENDBRANCH  21  22
ENDBRANCH  20  21
ENDBRANCH  19  20
ENDBRANCH  18  19
ENDBRANCH  17  18
ENDBRANCH  16  17
ENDBRANCH  15  16
ENDBRANCH  14  15
ENDBRANCH  13  14
ENDBRANCH  12  13
ENDBRANCH  11  12
ENDBRANCH  10  11
ENDBRANCH   9  10
ENDBRANCH   8   9
ENDBRANCH   7   8
ENDBRANCH   6   7
ENDBRANCH   5   6
ENDBRANCH   4   5
ENDBRANCH   3   4
ENDBRANCH   2   3
TORSDOF 24
ENDMDL
MODEL      140
REMARK 921   NORMALIZED FREE ENERGY PREDICTED BY IDOCK:   -3.11 KCAL/MOL
REMARK 922        TOTAL FREE ENERGY PREDICTED BY IDOCK:   -9.75 KCAL/MOL
REMARK 923 INTER-LIGAND FREE ENERGY PREDICTED BY IDOCK:   -8.78 KCAL/MOL
REMARK 924 INTRA-LIGAND FREE ENERGY PREDICTED BY IDOCK:   -0.98 KCAL/MOL
REMARK 927      BINDING AFFINITY PREDICTED BY RF-SCORE:    0.00 PKD
ROOT
HETATM    1  C   UNL     1      -9.834  20.105  68.058  1.00  0.00    -0.363 C  
HETATM    2  O   UNL     1      -9.168  18.871  67.828  1.00  0.00    -0.287 OA 
ENDROOT
BRANCH   2   3
HETATM    3  C   UNL     1      -7.754  19.047  67.773  1.00  0.00    -0.246 C  
BRANCH   3   4
HETATM    4  C   UNL     1      -7.078  17.684  67.768  1.00  0.00    -0.185 C  
BRANCH   4   5
HETATM    5  O   UNL     1      -7.916  16.746  68.442  1.00  0.00    -0.203 OA 
BRANCH   5   6
HETATM    6  C   UNL     1      -7.810  15.453  67.854  1.00  0.00    -0.133 C  
BRANCH   6   7
HETATM    7  C   UNL     1      -8.581  15.426  66.545  1.00  0.00    -0.259 C  
BRANCH   7   8
HETATM    8  O   UNL     1      -9.970  15.312  66.843  1.00  0.00    -0.234 OA 
BRANCH   8   9
HETATM    9  C   UNL     1     -10.235  14.174  67.655  1.00  0.00    -0.241 C  
BRANCH   9  10
HETATM   10  C   UNL     1     -11.457  13.456  67.111  1.00  0.00    -0.339 C  
BRANCH  10  11
HETATM   11  O   UNL     1     -11.915  14.154  65.960  1.00  0.00    -0.380 OA 
BRANCH  11  12
HETATM   12  C   UNL     1     -12.739  13.327  65.147  1.00  0.00    -0.402 C  
BRANCH  12  13
HETATM   13  C   UNL     1     -12.039  13.104  63.818  1.00  0.00    -0.495 C  
BRANCH  13  14
HETATM   14  O   UNL     1     -11.555  11.769  63.758  1.00  0.00    -0.414 OA 
BRANCH  14  15
HETATM   15  C   UNL     1     -10.147  11.761  63.555  1.00  0.00    -0.438 C  
BRANCH  15  16
HETATM   16  C   UNL     1      -9.467  10.952  64.646  1.00  0.00    -0.244 C  
BRANCH  16  17
HETATM   17  O   UNL     1      -9.249   9.643  64.134  1.00  0.00    -0.248 OA 
BRANCH  17  18
HETATM   18  C   UNL     1      -8.666   9.657  62.842  1.00  0.00    -0.226 C  
BRANCH  18  19
HETATM   19  C   UNL     1      -7.868   8.376  62.681  1.00  0.00    -0.139 C  
BRANCH  19  20
HETATM   20  O   UNL     1      -8.076   7.536  63.808  1.00  0.00    -0.114 OA 
BRANCH  20  21
HETATM   21  C   UNL     1      -8.181   6.163  63.436  1.00  0.00    -0.004 C  
BRANCH  21  22
HETATM   22  C   UNL     1      -7.991   5.250  64.652  1.00  0.00    -0.109 C  
BRANCH  22  23
HETATM   23  O   UNL     1      -8.896   5.485  65.762  1.00  0.00    -0.147 OA 
BRANCH  23  24
HETATM   24  C   UNL     1      -8.249   5.625  67.050  1.00  0.00    -0.101 C  
HETATM   25  C   UNL     1      -6.891   6.250  66.886  1.00  0.00    -0.062 C  
HETATM   26  C   UNL     1      -6.872   7.883  66.999  1.00  0.00    -0.073 C  
HETATM   27  C   UNL     1      -7.643   8.624  68.253  1.00  0.00    -0.097 C  
HETATM   28  C   UNL     1      -7.133   9.423  69.625  1.00  0.00    -0.064 C  
HETATM   29  O   UNL     1      -8.676   9.392  67.620  1.00  0.00    -0.116 OA 
HETATM   30  C   UNL     1      -8.190  10.076  70.521  1.00  0.00     0.316 C  
HETATM   31  H   UNL     1      -9.121   9.819  68.344  1.00  0.00     0.000 HD 
HETATM   32  C   UNL     1      -9.207   8.984  70.739  1.00  0.00    -0.299 A  
HETATM   33  C   UNL     1     -10.363   9.194  71.467  1.00  0.00    -0.414 A  
HETATM   34  C   UNL     1     -11.432   8.314  71.383  1.00  0.00    -0.314 A  
HETATM   35  C   UNL     1     -11.368   7.185  70.518  1.00  0.00    -0.297 A  
HETATM   36  O   UNL     1     -12.499   6.475  70.258  1.00  0.00    -0.372 OA 
HETATM   37  C   UNL     1     -10.165   6.899  69.876  1.00  0.00    -0.199 A  
HETATM   38  H   UNL     1     -12.457   5.722  69.681  1.00  0.00     0.000 HD 
HETATM   39  C   UNL     1      -9.054   7.744  70.002  1.00  0.00    -0.150 A  
HETATM   40  C   UNL     1      -7.989   7.395  68.998  1.00  0.00    -0.122 C  
HETATM   41  C   UNL     1      -8.969   6.545  68.060  1.00  0.00    -0.116 C  
HETATM   42  C   UNL     1      -6.296   7.051  69.520  1.00  0.00    -0.035 C  
HETATM   43  O   UNL     1      -9.961   5.919  68.918  1.00  0.00    -0.139 OA 
HETATM   44  C   UNL     1      -5.161   8.444  69.433  1.00  0.00    -0.030 C  
HETATM   45  N   UNL     1      -5.753   9.790  69.619  1.00  0.00    -0.037 NA 
BRANCH  45  46
HETATM   46  C   UNL     1      -5.588  10.860  68.651  1.00  0.00    -0.040 C  
BRANCH  46  47
HETATM   47  C   UNL     1      -5.791  10.456  67.228  1.00  0.00    -0.052 C  
HETATM   48  C   UNL     1      -5.911  11.335  66.228  1.00  0.00    -0.114 C  
ENDBRANCH  46  47
ENDBRANCH  45  46
ENDBRANCH  23  24
ENDBRANCH  22  23
ENDBRANCH  21  22
ENDBRANCH  20  21
ENDBRANCH  19  20
ENDBRANCH  18  19
ENDBRANCH  17  18
ENDBRANCH  16  17
ENDBRANCH  15  16
ENDBRANCH  14  15
ENDBRANCH  13  14
ENDBRANCH  12  13
ENDBRANCH  11  12
ENDBRANCH  10  11
ENDBRANCH   9  10
ENDBRANCH   8   9
ENDBRANCH   7   8
ENDBRANCH   6   7
ENDBRANCH   5   6
ENDBRANCH   4   5
ENDBRANCH   3   4
ENDBRANCH   2   3
TORSDOF 24
ENDMDL
MODEL      141
REMARK 921   NORMALIZED FREE ENERGY PREDICTED BY IDOCK:   -3.10 KCAL/MOL
REMARK 922        TOTAL FREE ENERGY PREDICTED BY IDOCK:   -9.75 KCAL/MOL
REMARK 923 INTER-LIGAND FREE ENERGY PREDICTED BY IDOCK:   -8.38 KCAL/MOL
REMARK 924 INTRA-LIGAND FREE ENERGY PREDICTED BY IDOCK:   -1.37 KCAL/MOL
REMARK 927      BINDING AFFINITY PREDICTED BY RF-SCORE:    0.00 PKD
ROOT
HETATM    1  C   UNL     1     -10.709  19.228  67.337  1.00  0.00    -0.486 C  
HETATM    2  O   UNL     1      -9.304  19.013  67.324  1.00  0.00    -0.297 OA 
ENDROOT
BRANCH   2   3
HETATM    3  C   UNL     1      -8.595  20.233  67.113  1.00  0.00    -0.338 C  
BRANCH   3   4
HETATM    4  C   UNL     1      -7.115  19.929  66.936  1.00  0.00    -0.222 C  
BRANCH   4   5
HETATM    5  O   UNL     1      -6.624  19.303  68.121  1.00  0.00    -0.229 OA 
BRANCH   5   6
HETATM    6  C   UNL     1      -5.456  18.534  67.845  1.00  0.00    -0.169 C  
BRANCH   6   7
HETATM    7  C   UNL     1      -5.830  17.332  66.994  1.00  0.00    -0.164 C  
BRANCH   7   8
HETATM    8  O   UNL     1      -6.752  16.530  67.729  1.00  0.00    -0.124 OA 
BRANCH   8   9
HETATM    9  C   UNL     1      -6.213  16.140  68.986  1.00  0.00    -0.139 C  
BRANCH   9  10
HETATM   10  C   UNL     1      -6.365  14.637  69.140  1.00  0.00    -0.106 C  
BRANCH  10  11
HETATM   11  O   UNL     1      -6.767  14.093  67.889  1.00  0.00    -0.134 OA 
BRANCH  11  12
HETATM   12  C   UNL     1      -8.111  13.628  67.935  1.00  0.00    -0.164 C  
BRANCH  12  13
HETATM   13  C   UNL     1      -8.319  12.639  66.802  1.00  0.00    -0.005 C  
BRANCH  13  14
HETATM   14  O   UNL     1      -7.705  11.402  67.137  1.00  0.00    -0.136 OA 
BRANCH  14  15
HETATM   15  C   UNL     1      -6.709  11.068  66.178  1.00  0.00    -0.068 C  
BRANCH  15  16
HETATM   16  C   UNL     1      -6.328   9.603  66.310  1.00  0.00    -0.069 C  
BRANCH  16  17
HETATM   17  O   UNL     1      -7.513   8.836  66.143  1.00  0.00    -0.088 OA 
BRANCH  17  18
HETATM   18  C   UNL     1      -8.003   8.878  64.813  1.00  0.00    -0.129 C  
BRANCH  18  19
HETATM   19  C   UNL     1      -7.699   7.540  64.166  1.00  0.00    -0.132 C  
BRANCH  19  20
HETATM   20  O   UNL     1      -6.976   6.720  65.075  1.00  0.00    -0.049 OA 
BRANCH  20  21
HETATM   21  C   UNL     1      -7.728   5.575  65.472  1.00  0.00    -0.089 C  
BRANCH  21  22
HETATM   22  C   UNL     1      -6.994   4.792  66.567  1.00  0.00    -0.067 C  
BRANCH  22  23
HETATM   23  O   UNL     1      -7.824   4.298  67.649  1.00  0.00    -0.086 OA 
BRANCH  23  24
HETATM   24  C   UNL     1      -7.678   5.016  68.899  1.00  0.00    -0.077 C  
HETATM   25  C   UNL     1      -7.798   6.496  68.667  1.00  0.00    -0.110 C  
HETATM   26  C   UNL     1      -9.315   7.091  68.813  1.00  0.00    -0.134 C  
HETATM   27  C   UNL     1     -10.226   6.690  70.126  1.00  0.00    -0.187 C  
HETATM   28  C   UNL     1     -10.741   7.514  71.482  1.00  0.00    -0.218 C  
HETATM   29  O   UNL     1     -11.331   5.961  69.574  1.00  0.00    -0.361 OA 
HETATM   30  C   UNL     1     -11.685   6.798  72.453  1.00  0.00    -0.255 C  
HETATM   31  H   UNL     1     -11.857   5.730  70.331  1.00  0.00     0.000 HD 
HETATM   32  C   UNL     1     -11.007   5.475  72.710  1.00  0.00    -0.324 A  
HETATM   33  C   UNL     1     -11.576   4.503  73.510  1.00  0.00    -0.185 A  
HETATM   34  C   UNL     1     -11.127   3.191  73.472  1.00  0.00    -0.316 A  
HETATM   35  C   UNL     1     -10.083   2.813  72.581  1.00  0.00    -0.159 A  
HETATM   36  O   UNL     1      -9.822   1.494  72.375  1.00  0.00    -0.087 OA 
HETATM   37  C   UNL     1      -9.423   3.807  71.862  1.00  0.00    -0.141 A  
HETATM   38  H   UNL     1      -9.125   1.242  71.780  1.00  0.00     0.000 HD 
HETATM   39  C   UNL     1      -9.822   5.148  71.938  1.00  0.00    -0.230 A  
HETATM   40  C   UNL     1      -9.166   5.973  70.865  1.00  0.00    -0.165 C  
HETATM   41  C   UNL     1      -8.749   4.714  69.970  1.00  0.00    -0.081 C  
HETATM   42  C   UNL     1      -8.233   7.462  71.277  1.00  0.00    -0.105 C  
HETATM   43  O   UNL     1      -8.473   3.608  70.873  1.00  0.00    -0.068 OA 
HETATM   44  C   UNL     1      -9.147   9.007  71.150  1.00  0.00    -0.246 C  
HETATM   45  N   UNL     1     -10.606   8.933  71.401  1.00  0.00    -0.275 NA 
BRANCH  45  46
HETATM   46  C   UNL     1     -11.589   9.415  70.447  1.00  0.00    -0.192 C  
BRANCH  46  47
HETATM   47  C   UNL     1     -12.475  10.503  70.954  1.00  0.00    -0.488 C  
HETATM   48  C   UNL     1     -13.366  10.323  71.935  1.00  0.00    -0.487 C  
ENDBRANCH  46  47
ENDBRANCH  45  46
ENDBRANCH  23  24
ENDBRANCH  22  23
ENDBRANCH  21  22
ENDBRANCH  20  21
ENDBRANCH  19  20
ENDBRANCH  18  19
ENDBRANCH  17  18
ENDBRANCH  16  17
ENDBRANCH  15  16
ENDBRANCH  14  15
ENDBRANCH  13  14
ENDBRANCH  12  13
ENDBRANCH  11  12
ENDBRANCH  10  11
ENDBRANCH   9  10
ENDBRANCH   8   9
ENDBRANCH   7   8
ENDBRANCH   6   7
ENDBRANCH   5   6
ENDBRANCH   4   5
ENDBRANCH   3   4
ENDBRANCH   2   3
TORSDOF 24
ENDMDL
MODEL      142
REMARK 921   NORMALIZED FREE ENERGY PREDICTED BY IDOCK:   -3.09 KCAL/MOL
REMARK 922        TOTAL FREE ENERGY PREDICTED BY IDOCK:   -9.71 KCAL/MOL
REMARK 923 INTER-LIGAND FREE ENERGY PREDICTED BY IDOCK:   -7.87 KCAL/MOL
REMARK 924 INTRA-LIGAND FREE ENERGY PREDICTED BY IDOCK:   -1.84 KCAL/MOL
REMARK 927      BINDING AFFINITY PREDICTED BY RF-SCORE:    0.00 PKD
ROOT
HETATM    1  C   UNL     1      -9.542  19.833  66.567  1.00  0.00    -0.406 C  
HETATM    2  O   UNL     1      -9.718  18.909  67.632  1.00  0.00    -0.300 OA 
ENDROOT
BRANCH   2   3
HETATM    3  C   UNL     1     -10.059  17.613  67.142  1.00  0.00    -0.328 C  
BRANCH   3   4
HETATM    4  C   UNL     1     -10.901  16.888  68.182  1.00  0.00    -0.351 C  
BRANCH   4   5
HETATM    5  O   UNL     1     -10.388  15.568  68.357  1.00  0.00    -0.224 OA 
BRANCH   5   6
HETATM    6  C   UNL     1      -9.300  15.561  69.276  1.00  0.00    -0.266 C  
BRANCH   6   7
HETATM    7  C   UNL     1      -8.078  14.949  68.611  1.00  0.00    -0.151 C  
BRANCH   7   8
HETATM    8  O   UNL     1      -8.521  13.991  67.652  1.00  0.00    -0.165 OA 
BRANCH   8   9
HETATM    9  C   UNL     1      -7.989  12.700  67.926  1.00  0.00    -0.156 C  
BRANCH   9  10
HETATM   10  C   UNL     1      -8.833  11.660  67.209  1.00  0.00    -0.164 C  
BRANCH  10  11
HETATM   11  O   UNL     1      -7.972  10.842  66.427  1.00  0.00    -0.148 OA 
BRANCH  11  12
HETATM   12  C   UNL     1      -6.607  11.052  66.770  1.00  0.00    -0.124 C  
BRANCH  12  13
HETATM   13  C   UNL     1      -5.739  10.533  65.637  1.00  0.00    -0.123 C  
BRANCH  13  14
HETATM   14  O   UNL     1      -6.520   9.709  64.784  1.00  0.00    -0.080 OA 
BRANCH  14  15
HETATM   15  C   UNL     1      -6.127   8.348  64.913  1.00  0.00    -0.052 C  
BRANCH  15  16
HETATM   16  C   UNL     1      -7.131   7.446  64.217  1.00  0.00    -0.066 C  
BRANCH  16  17
HETATM   17  O   UNL     1      -8.322   7.452  64.994  1.00  0.00    -0.125 OA 
BRANCH  17  18
HETATM   18  C   UNL     1      -8.105   7.002  66.321  1.00  0.00    -0.115 C  
BRANCH  18  19
HETATM   19  C   UNL     1      -8.484   5.534  66.379  1.00  0.00    -0.119 C  
BRANCH  19  20
HETATM   20  O   UNL     1      -8.295   5.040  67.697  1.00  0.00    -0.105 OA 
BRANCH  20  21
HETATM   21  C   UNL     1      -7.088   4.288  67.816  1.00  0.00    -0.064 C  
BRANCH  21  22
HETATM   22  C   UNL     1      -6.144   4.927  68.841  1.00  0.00    -0.030 C  
BRANCH  22  23
HETATM   23  O   UNL     1      -6.325   6.349  69.060  1.00  0.00    -0.035 OA 
BRANCH  23  24
HETATM   24  C   UNL     1      -6.830   6.698  70.372  1.00  0.00    -0.062 C  
HETATM   25  C   UNL     1      -7.890   7.757  70.259  1.00  0.00    -0.091 C  
HETATM   26  C   UNL     1      -9.417   7.184  70.120  1.00  0.00    -0.161 C  
HETATM   27  C   UNL     1      -9.949   6.018  71.155  1.00  0.00    -0.186 C  
HETATM   28  C   UNL     1     -11.020   5.995  72.433  1.00  0.00    -0.260 C  
HETATM   29  O   UNL     1     -10.210   4.892  70.305  1.00  0.00    -0.252 OA 
HETATM   30  C   UNL     1     -11.328   4.651  73.100  1.00  0.00    -0.355 C  
HETATM   31  H   UNL     1     -10.517   4.219  70.903  1.00  0.00     0.000 HD 
HETATM   32  C   UNL     1      -9.967   4.061  73.376  1.00  0.00    -0.181 A  
HETATM   33  C   UNL     1      -9.812   2.808  73.936  1.00  0.00    -0.144 A  
HETATM   34  C   UNL     1      -8.596   2.143  73.876  1.00  0.00    -0.062 A  
HETATM   35  C   UNL     1      -7.485   2.732  73.207  1.00  0.00    -0.046 A  
HETATM   36  O   UNL     1      -6.385   1.978  72.942  1.00  0.00    -0.009 OA 
HETATM   37  C   UNL     1      -7.597   4.043  72.749  1.00  0.00    -0.074 A  
HETATM   38  H   UNL     1      -5.644   2.371  72.496  1.00  0.00     0.000 HD 
HETATM   39  C   UNL     1      -8.800   4.753  72.859  1.00  0.00    -0.118 A  
HETATM   40  C   UNL     1      -8.765   6.014  72.040  1.00  0.00    -0.136 C  
HETATM   41  C   UNL     1      -7.520   5.553  71.147  1.00  0.00    -0.086 C  
HETATM   42  C   UNL     1      -9.127   7.617  72.786  1.00  0.00    -0.217 C  
HETATM   43  O   UNL     1      -6.666   4.724  71.981  1.00  0.00    -0.043 OA 
HETATM   44  C   UNL     1     -10.823   8.189  72.604  1.00  0.00    -0.359 C  
HETATM   45  N   UNL     1     -11.867   7.141  72.517  1.00  0.00    -0.184 NA 
BRANCH  45  46
HETATM   46  C   UNL     1     -12.814   7.069  71.417  1.00  0.00    -0.356 C  
BRANCH  46  47
HETATM   47  C   UNL     1     -13.800   8.188  71.363  1.00  0.00    -0.317 C  
HETATM   48  C   UNL     1     -14.040   9.001  72.397  1.00  0.00    -0.478 C  
ENDBRANCH  46  47
ENDBRANCH  45  46
ENDBRANCH  23  24
ENDBRANCH  22  23
ENDBRANCH  21  22
ENDBRANCH  20  21
ENDBRANCH  19  20
ENDBRANCH  18  19
ENDBRANCH  17  18
ENDBRANCH  16  17
ENDBRANCH  15  16
ENDBRANCH  14  15
ENDBRANCH  13  14
ENDBRANCH  12  13
ENDBRANCH  11  12
ENDBRANCH  10  11
ENDBRANCH   9  10
ENDBRANCH   8   9
ENDBRANCH   7   8
ENDBRANCH   6   7
ENDBRANCH   5   6
ENDBRANCH   4   5
ENDBRANCH   3   4
ENDBRANCH   2   3
TORSDOF 24
ENDMDL
MODEL      143
REMARK 921   NORMALIZED FREE ENERGY PREDICTED BY IDOCK:   -3.06 KCAL/MOL
REMARK 922        TOTAL FREE ENERGY PREDICTED BY IDOCK:   -9.65 KCAL/MOL
REMARK 923 INTER-LIGAND FREE ENERGY PREDICTED BY IDOCK:   -7.63 KCAL/MOL
REMARK 924 INTRA-LIGAND FREE ENERGY PREDICTED BY IDOCK:   -2.01 KCAL/MOL
REMARK 927      BINDING AFFINITY PREDICTED BY RF-SCORE:    0.00 PKD
ROOT
HETATM    1  C   UNL     1      -9.176  16.804  68.733  1.00  0.00    -0.260 C  
HETATM    2  O   UNL     1      -7.805  16.519  68.976  1.00  0.00    -0.230 OA 
ENDROOT
BRANCH   2   3
HETATM    3  C   UNL     1      -7.645  15.259  69.625  1.00  0.00    -0.176 C  
BRANCH   3   4
HETATM    4  C   UNL     1      -6.191  15.087  70.038  1.00  0.00    -0.157 C  
BRANCH   4   5
HETATM    5  O   UNL     1      -5.767  13.765  69.709  1.00  0.00    -0.096 OA 
BRANCH   5   6
HETATM    6  C   UNL     1      -5.928  12.886  70.819  1.00  0.00     0.054 C  
BRANCH   6   7
HETATM    7  C   UNL     1      -5.579  11.469  70.398  1.00  0.00    -0.144 C  
BRANCH   7   8
HETATM    8  O   UNL     1      -6.728  10.647  70.590  1.00  0.00    -0.332 OA 
BRANCH   8   9
HETATM    9  C   UNL     1      -6.376   9.382  71.138  1.00  0.00    -0.074 C  
BRANCH   9  10
HETATM   10  C   UNL     1      -5.539   8.623  70.123  1.00  0.00    -0.024 C  
BRANCH  10  11
HETATM   11  O   UNL     1      -6.118   7.339  69.931  1.00  0.00    -0.026 OA 
BRANCH  11  12
HETATM   12  C   UNL     1      -5.530   6.667  68.824  1.00  0.00    -0.016 C  
BRANCH  12  13
HETATM   13  C   UNL     1      -6.244   5.341  68.628  1.00  0.00    -0.030 C  
BRANCH  13  14
HETATM   14  O   UNL     1      -5.542   4.565  67.667  1.00  0.00    -0.015 OA 
BRANCH  14  15
HETATM   15  C   UNL     1      -5.440   3.214  68.098  1.00  0.00    -0.017 C  
BRANCH  15  16
HETATM   16  C   UNL     1      -6.824   2.604  68.238  1.00  0.00    -0.047 C  
BRANCH  16  17
HETATM   17  O   UNL     1      -7.441   2.646  66.958  1.00  0.00    -0.067 OA 
BRANCH  17  18
HETATM   18  C   UNL     1      -8.857   2.623  67.038  1.00  0.00    -0.137 C  
BRANCH  18  19
HETATM   19  C   UNL     1      -9.388   3.727  66.142  1.00  0.00    -0.178 C  
BRANCH  19  20
HETATM   20  O   UNL     1      -8.352   4.658  65.861  1.00  0.00    -0.113 OA 
BRANCH  20  21
HETATM   21  C   UNL     1      -8.825   5.766  65.098  1.00  0.00    -0.011 C  
BRANCH  21  22
HETATM   22  C   UNL     1      -8.401   7.093  65.739  1.00  0.00    -0.143 C  
BRANCH  22  23
HETATM   23  O   UNL     1      -9.146   7.485  66.921  1.00  0.00    -0.130 OA 
BRANCH  23  24
HETATM   24  C   UNL     1      -8.722   8.737  67.513  1.00  0.00    -0.134 C  
HETATM   25  C   UNL     1      -8.187   9.660  66.455  1.00  0.00    -0.119 C  
HETATM   26  C   UNL     1      -9.301  10.661  65.794  1.00  0.00    -0.223 C  
HETATM   27  C   UNL     1     -10.314  11.515  66.772  1.00  0.00    -0.226 C  
HETATM   28  C   UNL     1     -10.442  13.123  67.197  1.00  0.00    -0.247 C  
HETATM   29  O   UNL     1     -11.617  11.011  66.448  1.00  0.00    -0.147 OA 
HETATM   30  C   UNL     1     -11.616  13.550  68.084  1.00  0.00    -0.368 C  
HETATM   31  H   UNL     1     -12.202  11.505  67.013  1.00  0.00     0.000 HD 
HETATM   32  C   UNL     1     -11.580  12.570  69.231  1.00  0.00    -0.378 A  
HETATM   33  C   UNL     1     -12.524  12.588  70.240  1.00  0.00    -0.157 A  
HETATM   34  C   UNL     1     -12.685  11.502  71.088  1.00  0.00    -0.458 A  
HETATM   35  C   UNL     1     -11.894  10.331  70.917  1.00  0.00    -0.377 A  
HETATM   36  O   UNL     1     -12.226   9.195  71.587  1.00  0.00    -0.316 OA 
HETATM   37  C   UNL     1     -10.859  10.352  69.985  1.00  0.00    -0.289 A  
HETATM   38  H   UNL     1     -11.698   8.413  71.472  1.00  0.00     0.000 HD 
HETATM   39  C   UNL     1     -10.641  11.465  69.163  1.00  0.00    -0.196 A  
HETATM   40  C   UNL     1      -9.678  11.143  68.053  1.00  0.00    -0.183 C  
HETATM   41  C   UNL     1      -9.833   9.558  68.204  1.00  0.00    -0.155 C  
HETATM   42  C   UNL     1      -8.199  12.143  67.786  1.00  0.00    -0.154 C  
HETATM   43  O   UNL     1     -10.075   9.273  69.609  1.00  0.00    -0.181 OA 
HETATM   44  C   UNL     1      -8.354  13.436  66.545  1.00  0.00     0.434 C  
HETATM   45  N   UNL     1      -9.705  14.017  66.362  1.00  0.00    -0.288 NA 
BRANCH  45  46
HETATM   46  C   UNL     1     -10.371  14.063  65.072  1.00  0.00    -0.409 C  
BRANCH  46  47
HETATM   47  C   UNL     1     -11.838  13.788  65.113  1.00  0.00    -0.365 C  
HETATM   48  C   UNL     1     -12.523  13.322  64.064  1.00  0.00    -0.329 C  
ENDBRANCH  46  47
ENDBRANCH  45  46
ENDBRANCH  23  24
ENDBRANCH  22  23
ENDBRANCH  21  22
ENDBRANCH  20  21
ENDBRANCH  19  20
ENDBRANCH  18  19
ENDBRANCH  17  18
ENDBRANCH  16  17
ENDBRANCH  15  16
ENDBRANCH  14  15
ENDBRANCH  13  14
ENDBRANCH  12  13
ENDBRANCH  11  12
ENDBRANCH  10  11
ENDBRANCH   9  10
ENDBRANCH   8   9
ENDBRANCH   7   8
ENDBRANCH   6   7
ENDBRANCH   5   6
ENDBRANCH   4   5
ENDBRANCH   3   4
ENDBRANCH   2   3
TORSDOF 24
ENDMDL
MODEL      144
REMARK 921   NORMALIZED FREE ENERGY PREDICTED BY IDOCK:   -2.98 KCAL/MOL
REMARK 922        TOTAL FREE ENERGY PREDICTED BY IDOCK:   -9.46 KCAL/MOL
REMARK 923 INTER-LIGAND FREE ENERGY PREDICTED BY IDOCK:   -7.41 KCAL/MOL
REMARK 924 INTRA-LIGAND FREE ENERGY PREDICTED BY IDOCK:   -2.05 KCAL/MOL
REMARK 927      BINDING AFFINITY PREDICTED BY RF-SCORE:    0.00 PKD
ROOT
HETATM    1  C   UNL     1     -14.368   6.754  72.015  1.00  0.00    -0.078 C  
HETATM    2  O   UNL     1     -13.249   5.938  72.332  1.00  0.00     0.226 OA 
ENDROOT
BRANCH   2   3
HETATM    3  C   UNL     1     -12.023   6.585  71.993  1.00  0.00    -0.326 C  
BRANCH   3   4
HETATM    4  C   UNL     1     -12.322   7.974  71.448  1.00  0.00    -0.306 C  
BRANCH   4   5
HETATM    5  O   UNL     1     -11.633   8.147  70.211  1.00  0.00    -0.150 OA 
BRANCH   5   6
HETATM    6  C   UNL     1     -11.392   9.527  69.949  1.00  0.00    -0.126 C  
BRANCH   6   7
HETATM    7  C   UNL     1     -11.698  10.340  71.196  1.00  0.00    -0.341 C  
BRANCH   7   8
HETATM    8  O   UNL     1     -13.021  10.859  71.081  1.00  0.00    -0.374 OA 
BRANCH   8   9
HETATM    9  C   UNL     1     -13.014  12.277  70.971  1.00  0.00    -0.064 C  
BRANCH   9  10
HETATM   10  C   UNL     1     -11.670  12.720  70.419  1.00  0.00    -0.012 C  
BRANCH  10  11
HETATM   11  O   UNL     1     -11.899  13.633  69.353  1.00  0.00    -0.297 OA 
BRANCH  11  12
HETATM   12  C   UNL     1     -11.503  13.079  68.104  1.00  0.00    -0.319 C  
BRANCH  12  13
HETATM   13  C   UNL     1     -11.803  14.090  67.011  1.00  0.00    -0.428 C  
BRANCH  13  14
HETATM   14  O   UNL     1     -10.633  14.846  66.734  1.00  0.00    -0.293 OA 
BRANCH  14  15
HETATM   15  C   UNL     1     -10.716  16.128  67.345  1.00  0.00    -0.291 C  
BRANCH  15  16
HETATM   16  C   UNL     1     -10.064  17.174  66.457  1.00  0.00    -0.310 C  
BRANCH  16  17
HETATM   17  O   UNL     1      -8.960  17.714  67.172  1.00  0.00    -0.236 OA 
BRANCH  17  18
HETATM   18  C   UNL     1      -7.860  18.009  66.328  1.00  0.00    -0.253 C  
BRANCH  18  19
HETATM   19  C   UNL     1      -6.750  17.027  66.654  1.00  0.00    -0.238 C  
BRANCH  19  20
HETATM   20  O   UNL     1      -6.986  16.442  67.927  1.00  0.00    -0.129 OA 
BRANCH  20  21
HETATM   21  C   UNL     1      -5.785  16.327  68.690  1.00  0.00    -0.105 C  
BRANCH  21  22
HETATM   22  C   UNL     1      -5.141  14.950  68.491  1.00  0.00    -0.103 C  
BRANCH  22  23
HETATM   23  O   UNL     1      -5.834  14.057  67.582  1.00  0.00    -0.289 OA 
BRANCH  23  24
HETATM   24  C   UNL     1      -5.398  12.678  67.641  1.00  0.00    -0.120 C  
HETATM   25  C   UNL     1      -5.278  12.229  69.070  1.00  0.00    -0.055 C  
HETATM   26  C   UNL     1      -6.631  11.546  69.688  1.00  0.00    -0.112 C  
HETATM   27  C   UNL     1      -7.418  10.376  68.835  1.00  0.00    -0.099 C  
HETATM   28  C   UNL     1      -7.593   8.727  69.007  1.00  0.00    -0.090 C  
HETATM   29  O   UNL     1      -8.699  10.955  68.551  1.00  0.00    -0.139 OA 
HETATM   30  C   UNL     1      -8.513   7.987  68.032  1.00  0.00    -0.126 C  
HETATM   31  H   UNL     1      -9.153  10.280  68.059  1.00  0.00     0.000 HD 
HETATM   32  C   UNL     1      -8.057   8.458  66.673  1.00  0.00    -0.101 A  
HETATM   33  C   UNL     1      -8.681   8.052  65.509  1.00  0.00    -0.134 A  
HETATM   34  C   UNL     1      -8.485   8.733  64.317  1.00  0.00    -0.130 A  
HETATM   35  C   UNL     1      -7.653   9.888  64.276  1.00  0.00    -0.139 A  
HETATM   36  O   UNL     1      -7.663  10.683  63.172  1.00  0.00    -0.312 OA 
HETATM   37  C   UNL     1      -6.925  10.230  65.413  1.00  0.00    -0.139 A  
HETATM   38  H   UNL     1      -7.108  11.453  63.145  1.00  0.00     0.000 HD 
HETATM   39  C   UNL     1      -7.062   9.513  66.609  1.00  0.00    -0.086 A  
HETATM   40  C   UNL     1      -6.416  10.239  67.757  1.00  0.00    -0.062 C  
HETATM   41  C   UNL     1      -6.355  11.648  67.000  1.00  0.00    -0.149 C  
HETATM   42  C   UNL     1      -5.184   9.427  68.796  1.00  0.00    -0.037 C  
HETATM   43  O   UNL     1      -6.166  11.376  65.585  1.00  0.00     0.113 OA 
HETATM   44  C   UNL     1      -5.813   8.700  70.317  1.00  0.00    -0.030 C  
HETATM   45  N   UNL     1      -7.215   8.221  70.289  1.00  0.00    -0.050 NA 
BRANCH  45  46
HETATM   46  C   UNL     1      -8.213   8.663  71.246  1.00  0.00    -0.154 C  
BRANCH  46  47
HETATM   47  C   UNL     1      -8.157   7.979  72.572  1.00  0.00    -0.182 C  
HETATM   48  C   UNL     1      -9.021   8.231  73.561  1.00  0.00    -0.237 C  
ENDBRANCH  46  47
ENDBRANCH  45  46
ENDBRANCH  23  24
ENDBRANCH  22  23
ENDBRANCH  21  22
ENDBRANCH  20  21
ENDBRANCH  19  20
ENDBRANCH  18  19
ENDBRANCH  17  18
ENDBRANCH  16  17
ENDBRANCH  15  16
ENDBRANCH  14  15
ENDBRANCH  13  14
ENDBRANCH  12  13
ENDBRANCH  11  12
ENDBRANCH  10  11
ENDBRANCH   9  10
ENDBRANCH   8   9
ENDBRANCH   7   8
ENDBRANCH   6   7
ENDBRANCH   5   6
ENDBRANCH   4   5
ENDBRANCH   3   4
ENDBRANCH   2   3
TORSDOF 24
ENDMDL
MODEL      145
REMARK 921   NORMALIZED FREE ENERGY PREDICTED BY IDOCK:   -2.95 KCAL/MOL
REMARK 922        TOTAL FREE ENERGY PREDICTED BY IDOCK:   -9.38 KCAL/MOL
REMARK 923 INTER-LIGAND FREE ENERGY PREDICTED BY IDOCK:   -7.02 KCAL/MOL
REMARK 924 INTRA-LIGAND FREE ENERGY PREDICTED BY IDOCK:   -2.36 KCAL/MOL
REMARK 927      BINDING AFFINITY PREDICTED BY RF-SCORE:    0.00 PKD
ROOT
HETATM    1  C   UNL     1     -10.399   2.021  63.254  1.00  0.00    -0.141 C  
HETATM    2  O   UNL     1      -9.834   3.114  62.542  1.00  0.00    -0.092 OA 
ENDROOT
BRANCH   2   3
HETATM    3  C   UNL     1      -9.288   4.086  63.433  1.00  0.00    -0.139 C  
BRANCH   3   4
HETATM    4  C   UNL     1      -8.391   3.391  64.446  1.00  0.00    -0.093 C  
BRANCH   4   5
HETATM    5  O   UNL     1      -8.305   4.197  65.620  1.00  0.00    -0.108 OA 
BRANCH   5   6
HETATM    6  C   UNL     1      -9.597   4.440  66.169  1.00  0.00    -0.190 C  
BRANCH   6   7
HETATM    7  C   UNL     1      -9.596   5.773  66.899  1.00  0.00    -0.141 C  
BRANCH   7   8
HETATM    8  O   UNL     1     -10.947   6.131  67.182  1.00  0.00    -0.335 OA 
BRANCH   8   9
HETATM    9  C   UNL     1     -11.108   6.507  68.545  1.00  0.00    -0.265 C  
BRANCH   9  10
HETATM   10  C   UNL     1      -9.930   7.372  68.958  1.00  0.00    -0.176 C  
BRANCH  10  11
HETATM   11  O   UNL     1      -9.584   7.052  70.299  1.00  0.00    -0.168 OA 
BRANCH  11  12
HETATM   12  C   UNL     1     -10.716   7.128  71.158  1.00  0.00    -0.232 C  
BRANCH  12  13
HETATM   13  C   UNL     1     -10.310   7.849  72.431  1.00  0.00    -0.270 C  
BRANCH  13  14
HETATM   14  O   UNL     1      -8.995   8.367  72.280  1.00  0.00    -0.196 OA 
BRANCH  14  15
HETATM   15  C   UNL     1      -8.095   7.693  73.152  1.00  0.00    -0.123 C  
BRANCH  15  16
HETATM   16  C   UNL     1      -6.718   8.328  73.073  1.00  0.00    -0.099 C  
BRANCH  16  17
HETATM   17  O   UNL     1      -6.091   7.846  71.891  1.00  0.00    -0.038 OA 
BRANCH  17  18
HETATM   18  C   UNL     1      -6.175   6.436  71.770  1.00  0.00    -0.042 C  
BRANCH  18  19
HETATM   19  C   UNL     1      -6.209   6.100  70.291  1.00  0.00    -0.031 C  
BRANCH  19  20
HETATM   20  O   UNL     1      -5.211   6.845  69.606  1.00  0.00    -0.014 OA 
BRANCH  20  21
HETATM   21  C   UNL     1      -5.529   7.017  68.226  1.00  0.00    -0.020 C  
BRANCH  21  22
HETATM   22  C   UNL     1      -5.376   8.484  67.808  1.00  0.00    -0.035 C  
BRANCH  22  23
HETATM   23  O   UNL     1      -5.906   9.461  68.740  1.00  0.00    -0.040 OA 
BRANCH  23  24
HETATM   24  C   UNL     1      -7.339   9.657  68.660  1.00  0.00    -0.074 C  
HETATM   25  C   UNL     1      -7.753  10.829  69.504  1.00  0.00    -0.074 C  
HETATM   26  C   UNL     1      -7.784  12.263  68.716  1.00  0.00    -0.016 C  
HETATM   27  C   UNL     1      -8.538  12.376  67.256  1.00  0.00    -0.185 C  
HETATM   28  C   UNL     1      -9.954  13.081  66.727  1.00  0.00    -0.245 C  
HETATM   29  O   UNL     1      -7.481  12.709  66.344  1.00  0.00    -0.025 OA 
HETATM   30  C   UNL     1     -10.266  13.051  65.229  1.00  0.00    -0.294 C  
HETATM   31  H   UNL     1      -7.917  12.774  65.501  1.00  0.00     0.000 HD 
HETATM   32  C   UNL     1     -10.072  11.604  64.845  1.00  0.00    -0.303 A  
HETATM   33  C   UNL     1     -10.212  11.166  63.542  1.00  0.00    -0.446 A  
HETATM   34  C   UNL     1      -9.713   9.935  63.144  1.00  0.00     0.238 A  
HETATM   35  C   UNL     1      -9.018   9.106  64.070  1.00  0.00     0.017 A  
HETATM   36  O   UNL     1      -8.326   8.027  63.615  1.00  0.00    -0.361 OA 
HETATM   37  C   UNL     1      -8.980   9.483  65.410  1.00  0.00    -0.201 A  
HETATM   38  H   UNL     1      -7.862   7.474  64.233  1.00  0.00     0.000 HD 
HETATM   39  C   UNL     1      -9.536  10.695  65.842  1.00  0.00    -0.253 A  
HETATM   40  C   UNL     1      -9.116  11.016  67.250  1.00  0.00    -0.142 C  
HETATM   41  C   UNL     1      -7.888   9.991  67.255  1.00  0.00    -0.102 C  
HETATM   42  C   UNL     1     -10.341  11.365  68.529  1.00  0.00    -0.219 C  
HETATM   43  O   UNL     1      -8.256   8.863  66.415  1.00  0.00    -0.111 OA 
HETATM   44  C   UNL     1     -10.689  13.108  68.811  1.00  0.00    -0.225 C  
HETATM   45  N   UNL     1     -10.533  14.009  67.645  1.00  0.00    -0.244 NA 
BRANCH  45  46
HETATM   46  C   UNL     1      -9.683  15.187  67.674  1.00  0.00    -0.211 C  
BRANCH  46  47
HETATM   47  C   UNL     1      -9.413  15.798  66.339  1.00  0.00    -0.326 C  
HETATM   48  C   UNL     1      -9.511  17.111  66.103  1.00  0.00    -0.228 C  
ENDBRANCH  46  47
ENDBRANCH  45  46
ENDBRANCH  23  24
ENDBRANCH  22  23
ENDBRANCH  21  22
ENDBRANCH  20  21
ENDBRANCH  19  20
ENDBRANCH  18  19
ENDBRANCH  17  18
ENDBRANCH  16  17
ENDBRANCH  15  16
ENDBRANCH  14  15
ENDBRANCH  13  14
ENDBRANCH  12  13
ENDBRANCH  11  12
ENDBRANCH  10  11
ENDBRANCH   9  10
ENDBRANCH   8   9
ENDBRANCH   7   8
ENDBRANCH   6   7
ENDBRANCH   5   6
ENDBRANCH   4   5
ENDBRANCH   3   4
ENDBRANCH   2   3
TORSDOF 24
ENDMDL
MODEL      146
REMARK 921   NORMALIZED FREE ENERGY PREDICTED BY IDOCK:   -2.90 KCAL/MOL
REMARK 922        TOTAL FREE ENERGY PREDICTED BY IDOCK:   -9.27 KCAL/MOL
REMARK 923 INTER-LIGAND FREE ENERGY PREDICTED BY IDOCK:   -8.31 KCAL/MOL
REMARK 924 INTRA-LIGAND FREE ENERGY PREDICTED BY IDOCK:   -0.96 KCAL/MOL
REMARK 927      BINDING AFFINITY PREDICTED BY RF-SCORE:    0.00 PKD
ROOT
HETATM    1  C   UNL     1     -11.124  10.127  67.831  1.00  0.00    -0.238 C  
HETATM    2  O   UNL     1     -11.139  10.111  66.410  1.00  0.00     0.105 OA 
ENDROOT
BRANCH   2   3
HETATM    3  C   UNL     1      -9.920   9.592  65.883  1.00  0.00    -0.272 C  
BRANCH   3   4
HETATM    4  C   UNL     1      -9.585  10.312  64.585  1.00  0.00    -0.312 C  
BRANCH   4   5
HETATM    5  O   UNL     1      -8.255   9.973  64.195  1.00  0.00    -0.145 OA 
BRANCH   5   6
HETATM    6  C   UNL     1      -8.094   8.560  64.106  1.00  0.00    -0.154 C  
BRANCH   6   7
HETATM    7  C   UNL     1      -6.759   8.241  63.454  1.00  0.00    -0.084 C  
BRANCH   7   8
HETATM    8  O   UNL     1      -6.761   6.867  63.073  1.00  0.00    -0.045 OA 
BRANCH   8   9
HETATM    9  C   UNL     1      -6.374   6.029  64.156  1.00  0.00    -0.030 C  
BRANCH   9  10
HETATM   10  C   UNL     1      -7.304   4.830  64.205  1.00  0.00    -0.062 C  
BRANCH  10  11
HETATM   11  O   UNL     1      -8.595   5.276  64.600  1.00  0.00    -0.148 OA 
BRANCH  11  12
HETATM   12  C   UNL     1      -9.234   4.327  65.445  1.00  0.00    -0.152 C  
BRANCH  12  13
HETATM   13  C   UNL     1     -10.504   4.950  65.998  1.00  0.00    -0.283 C  
BRANCH  13  14
HETATM   14  O   UNL     1     -10.325   5.238  67.378  1.00  0.00    -0.200 OA 
BRANCH  14  15
HETATM   15  C   UNL     1      -8.980   4.986  67.766  1.00  0.00    -0.111 C  
BRANCH  15  16
HETATM   16  C   UNL     1      -8.723   5.547  69.154  1.00  0.00    -0.103 C  
BRANCH  16  17
HETATM   17  O   UNL     1      -8.815   6.963  69.067  1.00  0.00    -0.131 OA 
BRANCH  17  18
HETATM   18  C   UNL     1      -8.101   7.485  67.958  1.00  0.00    -0.124 C  
BRANCH  18  19
HETATM   19  C   UNL     1      -7.028   8.413  68.496  1.00  0.00    -0.069 C  
BRANCH  19  20
HETATM   20  O   UNL     1      -7.548   9.174  69.578  1.00  0.00    -0.073 OA 
BRANCH  20  21
HETATM   21  C   UNL     1      -7.361  10.575  69.382  1.00  0.00    -0.133 C  
BRANCH  21  22
HETATM   22  C   UNL     1      -6.902  10.870  67.950  1.00  0.00    -0.068 C  
BRANCH  22  23
HETATM   23  O   UNL     1      -6.489  12.237  67.692  1.00  0.00    -0.090 OA 
BRANCH  23  24
HETATM   24  C   UNL     1      -7.506  13.070  67.084  1.00  0.00     0.009 C  
HETATM   25  C   UNL     1      -8.875  12.539  67.405  1.00  0.00    -0.187 C  
HETATM   26  C   UNL     1      -9.552  13.164  68.757  1.00  0.00     0.073 C  
HETATM   27  C   UNL     1      -9.555  14.795  68.991  1.00  0.00    -0.178 C  
HETATM   28  C   UNL     1     -10.730  15.977  68.943  1.00  0.00    -0.275 C  
HETATM   29  O   UNL     1      -8.753  14.979  70.166  1.00  0.00    -0.319 OA 
HETATM   30  C   UNL     1     -10.340  17.407  69.326  1.00  0.00    -0.212 C  
HETATM   31  H   UNL     1      -8.755  15.920  70.300  1.00  0.00     0.000 HD 
HETATM   32  C   UNL     1      -9.104  17.680  68.504  1.00  0.00    -0.279 A  
HETATM   33  C   UNL     1      -8.405  18.868  68.603  1.00  0.00    -0.384 A  
HETATM   34  C   UNL     1      -7.112  18.980  68.114  1.00  0.00    -0.274 A  
HETATM   35  C   UNL     1      -6.467  17.858  67.521  1.00  0.00    -0.168 A  
HETATM   36  O   UNL     1      -5.130  17.908  67.272  1.00  0.00    -0.126 OA 
HETATM   37  C   UNL     1      -7.204  16.696  67.307  1.00  0.00    -0.166 A  
HETATM   38  H   UNL     1      -4.699  17.159  66.877  1.00  0.00     0.000 HD 
HETATM   39  C   UNL     1      -8.533  16.587  67.738  1.00  0.00    -0.180 A  
HETATM   40  C   UNL     1      -9.015  15.164  67.665  1.00  0.00    -0.183 C  
HETATM   41  C   UNL     1      -7.546  14.536  67.572  1.00  0.00    -0.190 C  
HETATM   42  C   UNL     1     -10.518  14.736  66.763  1.00  0.00    -0.282 C  
HETATM   43  O   UNL     1      -6.709  15.484  66.855  1.00  0.00    -0.234 OA 
HETATM   44  C   UNL     1     -12.012  14.620  67.759  1.00  0.00    -0.268 C  
HETATM   45  N   UNL     1     -12.070  15.482  68.964  1.00  0.00    -0.282 NA 
BRANCH  45  46
HETATM   46  C   UNL     1     -12.322  14.955  70.293  1.00  0.00    -0.341 C  
BRANCH  46  47
HETATM   47  C   UNL     1     -12.116  15.930  71.405  1.00  0.00    -0.508 C  
HETATM   48  C   UNL     1     -12.962  16.056  72.432  1.00  0.00    -0.440 C  
ENDBRANCH  46  47
ENDBRANCH  45  46
ENDBRANCH  23  24
ENDBRANCH  22  23
ENDBRANCH  21  22
ENDBRANCH  20  21
ENDBRANCH  19  20
ENDBRANCH  18  19
ENDBRANCH  17  18
ENDBRANCH  16  17
ENDBRANCH  15  16
ENDBRANCH  14  15
ENDBRANCH  13  14
ENDBRANCH  12  13
ENDBRANCH  11  12
ENDBRANCH  10  11
ENDBRANCH   9  10
ENDBRANCH   8   9
ENDBRANCH   7   8
ENDBRANCH   6   7
ENDBRANCH   5   6
ENDBRANCH   4   5
ENDBRANCH   3   4
ENDBRANCH   2   3
TORSDOF 24
ENDMDL
MODEL      147
REMARK 921   NORMALIZED FREE ENERGY PREDICTED BY IDOCK:   -2.84 KCAL/MOL
REMARK 922        TOTAL FREE ENERGY PREDICTED BY IDOCK:   -9.13 KCAL/MOL
REMARK 923 INTER-LIGAND FREE ENERGY PREDICTED BY IDOCK:   -7.19 KCAL/MOL
REMARK 924 INTRA-LIGAND FREE ENERGY PREDICTED BY IDOCK:   -1.93 KCAL/MOL
REMARK 927      BINDING AFFINITY PREDICTED BY RF-SCORE:    0.00 PKD
ROOT
HETATM    1  C   UNL     1     -12.000  15.200  71.994  1.00  0.00    -0.403 C  
HETATM    2  O   UNL     1     -11.323  15.812  70.904  1.00  0.00    -0.332 OA 
ENDROOT
BRANCH   2   3
HETATM    3  C   UNL     1     -10.068  15.182  70.654  1.00  0.00     0.464 C  
BRANCH   3   4
HETATM    4  C   UNL     1      -9.373  15.889  69.499  1.00  0.00    -0.196 C  
BRANCH   4   5
HETATM    5  O   UNL     1      -8.056  15.358  69.355  1.00  0.00    -0.232 OA 
BRANCH   5   6
HETATM    6  C   UNL     1      -8.055  14.223  68.494  1.00  0.00    -0.147 C  
BRANCH   6   7
HETATM    7  C   UNL     1      -6.713  13.517  68.588  1.00  0.00    -0.094 C  
BRANCH   7   8
HETATM    8  O   UNL     1      -6.771  12.333  67.795  1.00  0.00    -0.083 OA 
BRANCH   8   9
HETATM    9  C   UNL     1      -5.482  11.756  67.629  1.00  0.00    -0.066 C  
BRANCH   9  10
HETATM   10  C   UNL     1      -5.620  10.461  66.847  1.00  0.00    -0.047 C  
BRANCH  10  11
HETATM   11  O   UNL     1      -5.516  10.759  65.461  1.00  0.00    -0.123 OA 
BRANCH  11  12
HETATM   12  C   UNL     1      -5.237   9.590  64.700  1.00  0.00    -0.050 C  
BRANCH  12  13
HETATM   13  C   UNL     1      -5.675   9.830  63.266  1.00  0.00    -0.095 C  
BRANCH  13  14
HETATM   14  O   UNL     1      -6.640  10.872  63.236  1.00  0.00     0.132 OA 
BRANCH  14  15
HETATM   15  C   UNL     1      -7.906  10.364  62.835  1.00  0.00    -0.137 C  
BRANCH  15  16
HETATM   16  C   UNL     1      -8.979  10.797  63.820  1.00  0.00    -0.162 C  
BRANCH  16  17
HETATM   17  O   UNL     1      -9.958  11.526  63.092  1.00  0.00    -0.367 OA 
BRANCH  17  18
HETATM   18  C   UNL     1     -11.188  11.629  63.792  1.00  0.00    -0.414 C  
BRANCH  18  19
HETATM   19  C   UNL     1     -11.013  12.668  64.883  1.00  0.00    -0.293 C  
BRANCH  19  20
HETATM   20  O   UNL     1     -12.043  12.527  65.851  1.00  0.00    -0.537 OA 
BRANCH  20  21
HETATM   21  C   UNL     1     -11.519  12.281  67.155  1.00  0.00    -0.352 C  
BRANCH  21  22
HETATM   22  C   UNL     1     -11.048  10.829  67.291  1.00  0.00    -0.270 C  
BRANCH  22  23
HETATM   23  O   UNL     1     -10.742  10.391  68.639  1.00  0.00    -0.193 OA 
BRANCH  23  24
HETATM   24  C   UNL     1      -9.424   9.812  68.802  1.00  0.00    -0.154 C  
HETATM   25  C   UNL     1      -9.242   9.318  70.209  1.00  0.00    -0.273 C  
HETATM   26  C   UNL     1      -9.663   7.754  70.445  1.00  0.00    -0.179 C  
HETATM   27  C   UNL     1      -9.118   6.596  69.407  1.00  0.00    -0.143 C  
HETATM   28  C   UNL     1      -7.993   5.370  69.517  1.00  0.00    -0.089 C  
HETATM   29  O   UNL     1     -10.312   6.083  68.801  1.00  0.00    -0.172 OA 
HETATM   30  C   UNL     1      -7.840   4.415  68.329  1.00  0.00    -0.079 C  
HETATM   31  H   UNL     1      -9.997   5.415  68.202  1.00  0.00     0.000 HD 
HETATM   32  C   UNL     1      -7.692   5.333  67.141  1.00  0.00    -0.096 A  
HETATM   33  C   UNL     1      -7.579   4.851  65.852  1.00  0.00    -0.090 A  
HETATM   34  C   UNL     1      -7.782   5.679  64.757  1.00  0.00    -0.101 A  
HETATM   35  C   UNL     1      -8.141   7.044  64.944  1.00  0.00    -0.107 A  
HETATM   36  O   UNL     1      -8.574   7.774  63.882  1.00  0.00    -0.364 OA 
HETATM   37  C   UNL     1      -8.137   7.567  66.235  1.00  0.00    -0.113 A  
HETATM   38  H   UNL     1      -8.813   8.685  64.006  1.00  0.00     0.000 HD 
HETATM   39  C   UNL     1      -7.870   6.759  67.348  1.00  0.00    -0.110 A  
HETATM   40  C   UNL     1      -8.212   7.467  68.630  1.00  0.00    -0.129 C  
HETATM   41  C   UNL     1      -9.127   8.575  67.925  1.00  0.00    -0.140 C  
HETATM   42  C   UNL     1      -6.994   7.639  69.951  1.00  0.00    -0.054 C  
HETATM   43  O   UNL     1      -8.569   8.830  66.607  1.00  0.00    -0.109 OA 
HETATM   44  C   UNL     1      -7.080   6.396  71.248  1.00  0.00    -0.077 C  
HETATM   45  N   UNL     1      -7.582   5.059  70.849  1.00  0.00    -0.076 NA 
BRANCH  45  46
HETATM   46  C   UNL     1      -8.699   4.412  71.514  1.00  0.00    -0.117 C  
BRANCH  46  47
HETATM   47  C   UNL     1      -9.262   5.165  72.674  1.00  0.00    -0.146 C  
HETATM   48  C   UNL     1     -10.537   5.062  73.063  1.00  0.00    -0.278 C  
ENDBRANCH  46  47
ENDBRANCH  45  46
ENDBRANCH  23  24
ENDBRANCH  22  23
ENDBRANCH  21  22
ENDBRANCH  20  21
ENDBRANCH  19  20
ENDBRANCH  18  19
ENDBRANCH  17  18
ENDBRANCH  16  17
ENDBRANCH  15  16
ENDBRANCH  14  15
ENDBRANCH  13  14
ENDBRANCH  12  13
ENDBRANCH  11  12
ENDBRANCH  10  11
ENDBRANCH   9  10
ENDBRANCH   8   9
ENDBRANCH   7   8
ENDBRANCH   6   7
ENDBRANCH   5   6
ENDBRANCH   4   5
ENDBRANCH   3   4
ENDBRANCH   2   3
TORSDOF 24
ENDMDL
MODEL      148
REMARK 921   NORMALIZED FREE ENERGY PREDICTED BY IDOCK:   -2.83 KCAL/MOL
REMARK 922        TOTAL FREE ENERGY PREDICTED BY IDOCK:   -9.10 KCAL/MOL
REMARK 923 INTER-LIGAND FREE ENERGY PREDICTED BY IDOCK:   -7.44 KCAL/MOL
REMARK 924 INTRA-LIGAND FREE ENERGY PREDICTED BY IDOCK:   -1.66 KCAL/MOL
REMARK 927      BINDING AFFINITY PREDICTED BY RF-SCORE:    0.00 PKD
ROOT
HETATM    1  C   UNL     1      -8.030   8.010  74.323  1.00  0.00    -0.245 C  
HETATM    2  O   UNL     1      -9.298   7.931  73.686  1.00  0.00    -0.278 OA 
ENDROOT
BRANCH   2   3
HETATM    3  C   UNL     1      -9.181   8.104  72.275  1.00  0.00    -0.201 C  
BRANCH   3   4
HETATM    4  C   UNL     1      -8.380   6.949  71.692  1.00  0.00    -0.109 C  
BRANCH   4   5
HETATM    5  O   UNL     1      -9.061   6.445  70.543  1.00  0.00    -0.153 OA 
BRANCH   5   6
HETATM    6  C   UNL     1     -10.235   7.206  70.271  1.00  0.00    -0.198 C  
BRANCH   6   7
HETATM    7  C   UNL     1     -11.263   6.323  69.584  1.00  0.00    -0.437 C  
BRANCH   7   8
HETATM    8  O   UNL     1     -10.595   5.533  68.603  1.00  0.00    -0.196 OA 
BRANCH   8   9
HETATM    9  C   UNL     1     -10.941   5.941  67.285  1.00  0.00    -0.178 C  
BRANCH   9  10
HETATM   10  C   UNL     1      -9.892   5.420  66.319  1.00  0.00    -0.164 C  
BRANCH  10  11
HETATM   11  O   UNL     1     -10.523   4.537  65.401  1.00  0.00    -0.253 OA 
BRANCH  11  12
HETATM   12  C   UNL     1      -9.587   3.633  64.826  1.00  0.00    -0.173 C  
BRANCH  12  13
HETATM   13  C   UNL     1      -9.402   3.994  63.363  1.00  0.00    -0.139 C  
BRANCH  13  14
HETATM   14  O   UNL     1      -8.086   4.490  63.162  1.00  0.00    -0.079 OA 
BRANCH  14  15
HETATM   15  C   UNL     1      -8.085   5.912  63.170  1.00  0.00    -0.098 C  
BRANCH  15  16
HETATM   16  C   UNL     1      -6.666   6.435  63.029  1.00  0.00    -0.041 C  
BRANCH  16  17
HETATM   17  O   UNL     1      -6.723   7.853  63.106  1.00  0.00    -0.077 OA 
BRANCH  17  18
HETATM   18  C   UNL     1      -8.054   8.344  63.076  1.00  0.00    -0.163 C  
BRANCH  18  19
HETATM   19  C   UNL     1      -8.099   9.609  63.912  1.00  0.00    -0.152 C  
BRANCH  19  20
HETATM   20  O   UNL     1      -6.843   9.810  64.547  1.00  0.00    -0.106 OA 
BRANCH  20  21
HETATM   21  C   UNL     1      -6.931   9.654  65.962  1.00  0.00    -0.093 C  
BRANCH  21  22
HETATM   22  C   UNL     1      -6.384  10.890  66.684  1.00  0.00    -0.113 C  
BRANCH  22  23
HETATM   23  O   UNL     1      -6.136  10.730  68.105  1.00  0.00    -0.050 OA 
BRANCH  23  24
HETATM   24  C   UNL     1      -6.722  11.759  68.939  1.00  0.00    -0.094 C  
HETATM   25  C   UNL     1      -5.744  12.882  69.145  1.00  0.00    -0.076 C  
HETATM   26  C   UNL     1      -5.850  14.090  68.047  1.00  0.00    -0.138 C  
HETATM   27  C   UNL     1      -7.321  14.736  67.681  1.00  0.00    -0.186 C  
HETATM   28  C   UNL     1      -8.071  16.188  68.013  1.00  0.00    -0.146 C  
HETATM   29  O   UNL     1      -7.504  14.421  66.294  1.00  0.00     0.657 OA 
HETATM   30  C   UNL     1      -9.446  16.455  67.393  1.00  0.00    -0.227 C  
HETATM   31  H   UNL     1      -8.353  14.793  66.083  1.00  0.00     0.000 HD 
HETATM   32  C   UNL     1     -10.241  15.216  67.726  1.00  0.00    -0.236 A  
HETATM   33  C   UNL     1     -11.541  15.042  67.292  1.00  0.00    -0.285 A  
HETATM   34  C   UNL     1     -12.140  13.791  67.308  1.00  0.00    -0.393 A  
HETATM   35  C   UNL     1     -11.410  12.650  67.749  1.00  0.00    -0.297 A  
HETATM   36  O   UNL     1     -11.915  11.406  67.531  1.00  0.00    -0.626 OA 
HETATM   37  C   UNL     1     -10.145  12.836  68.302  1.00  0.00    -0.237 A  
HETATM   38  H   UNL     1     -11.429  10.645  67.825  1.00  0.00     0.000 HD 
HETATM   39  C   UNL     1      -9.551  14.104  68.352  1.00  0.00    -0.225 A  
HETATM   40  C   UNL     1      -8.093  14.009  68.710  1.00  0.00    -0.065 C  
HETATM   41  C   UNL     1      -7.977  12.451  68.363  1.00  0.00    -0.149 C  
HETATM   42  C   UNL     1      -7.414  14.941  70.099  1.00  0.00     0.265 C  
HETATM   43  O   UNL     1      -9.258  11.837  68.669  1.00  0.00    -0.169 OA 
HETATM   44  C   UNL     1      -6.651  16.514  69.674  1.00  0.00    -0.169 C  
HETATM   45  N   UNL     1      -7.196  17.213  68.486  1.00  0.00    -0.209 NA 
BRANCH  45  46
HETATM   46  C   UNL     1      -6.363  17.629  67.372  1.00  0.00    -0.147 C  
BRANCH  46  47
HETATM   47  C   UNL     1      -7.113  18.096  66.168  1.00  0.00    -0.316 C  
HETATM   48  C   UNL     1      -6.718  19.128  65.417  1.00  0.00    -0.279 C  
ENDBRANCH  46  47
ENDBRANCH  45  46
ENDBRANCH  23  24
ENDBRANCH  22  23
ENDBRANCH  21  22
ENDBRANCH  20  21
ENDBRANCH  19  20
ENDBRANCH  18  19
ENDBRANCH  17  18
ENDBRANCH  16  17
ENDBRANCH  15  16
ENDBRANCH  14  15
ENDBRANCH  13  14
ENDBRANCH  12  13
ENDBRANCH  11  12
ENDBRANCH  10  11
ENDBRANCH   9  10
ENDBRANCH   8   9
ENDBRANCH   7   8
ENDBRANCH   6   7
ENDBRANCH   5   6
ENDBRANCH   4   5
ENDBRANCH   3   4
ENDBRANCH   2   3
TORSDOF 24
ENDMDL
MODEL      149
REMARK 921   NORMALIZED FREE ENERGY PREDICTED BY IDOCK:   -2.80 KCAL/MOL
REMARK 922        TOTAL FREE ENERGY PREDICTED BY IDOCK:   -9.03 KCAL/MOL
REMARK 923 INTER-LIGAND FREE ENERGY PREDICTED BY IDOCK:   -7.91 KCAL/MOL
REMARK 924 INTRA-LIGAND FREE ENERGY PREDICTED BY IDOCK:   -1.12 KCAL/MOL
REMARK 927      BINDING AFFINITY PREDICTED BY RF-SCORE:    0.00 PKD
ROOT
HETATM    1  C   UNL     1      -7.963  18.229  69.288  1.00  0.00     0.174 C  
HETATM    2  O   UNL     1      -8.050  17.479  68.084  1.00  0.00    -0.232 OA 
ENDROOT
BRANCH   2   3
HETATM    3  C   UNL     1      -9.389  17.055  67.834  1.00  0.00    -0.240 C  
BRANCH   3   4
HETATM    4  C   UNL     1      -9.561  16.786  66.346  1.00  0.00    -0.281 C  
BRANCH   4   5
HETATM    5  O   UNL     1     -10.869  16.263  66.117  1.00  0.00    -0.234 OA 
BRANCH   5   6
HETATM    6  C   UNL     1     -11.211  16.332  64.735  1.00  0.00    -0.259 C  
BRANCH   6   7
HETATM    7  C   UNL     1     -11.951  15.067  64.333  1.00  0.00    -0.353 C  
BRANCH   7   8
HETATM    8  O   UNL     1     -10.989  14.073  63.987  1.00  0.00    -0.105 OA 
BRANCH   8   9
HETATM    9  C   UNL     1     -11.599  12.964  63.338  1.00  0.00    -0.403 C  
BRANCH   9  10
HETATM   10  C   UNL     1     -12.551  12.290  64.310  1.00  0.00    -0.372 C  
BRANCH  10  11
HETATM   11  O   UNL     1     -11.901  11.153  64.862  1.00  0.00     0.301 OA 
BRANCH  11  12
HETATM   12  C   UNL     1     -11.115  11.506  65.994  1.00  0.00    -0.230 C  
BRANCH  12  13
HETATM   13  C   UNL     1     -11.977  12.314  66.949  1.00  0.00    -0.142 C  
BRANCH  13  14
HETATM   14  O   UNL     1     -12.201  11.561  68.133  1.00  0.00    -0.576 OA 
BRANCH  14  15
HETATM   15  C   UNL     1     -11.414  12.073  69.202  1.00  0.00    -0.300 C  
BRANCH  15  16
HETATM   16  C   UNL     1     -11.265  13.579  69.066  1.00  0.00    -0.269 C  
BRANCH  16  17
HETATM   17  O   UNL     1     -10.101  13.824  68.287  1.00  0.00    -0.227 OA 
BRANCH  17  18
HETATM   18  C   UNL     1      -9.006  13.013  68.679  1.00  0.00     0.056 C  
BRANCH  18  19
HETATM   19  C   UNL     1      -7.739  13.827  68.495  1.00  0.00    -0.138 C  
BRANCH  19  20
HETATM   20  O   UNL     1      -7.106  13.463  67.276  1.00  0.00    -0.134 OA 
BRANCH  20  21
HETATM   21  C   UNL     1      -6.296  12.298  67.424  1.00  0.00    -0.152 C  
BRANCH  21  22
HETATM   22  C   UNL     1      -7.097  11.031  67.103  1.00  0.00    -0.104 C  
BRANCH  22  23
HETATM   23  O   UNL     1      -6.400  10.030  66.317  1.00  0.00    -0.071 OA 
BRANCH  23  24
HETATM   24  C   UNL     1      -6.464   8.687  66.856  1.00  0.00    -0.061 C  
HETATM   25  C   UNL     1      -7.036   8.709  68.246  1.00  0.00    -0.073 C  
HETATM   26  C   UNL     1      -8.660   8.527  68.320  1.00  0.00    -0.139 C  
HETATM   27  C   UNL     1      -9.386   7.314  67.474  1.00  0.00    -0.129 C  
HETATM   28  C   UNL     1     -10.110   5.871  67.894  1.00  0.00    -0.162 C  
HETATM   29  O   UNL     1     -10.221   7.999  66.530  1.00  0.00    -0.416 OA 
HETATM   30  C   UNL     1     -10.774   5.042  66.791  1.00  0.00    -0.117 C  
HETATM   31  H   UNL     1     -10.639   7.299  66.042  1.00  0.00     0.000 HD 
HETATM   32  C   UNL     1      -9.719   4.956  65.716  1.00  0.00    -0.184 A  
HETATM   33  C   UNL     1      -9.951   4.320  64.511  1.00  0.00    -0.118 A  
HETATM   34  C   UNL     1      -9.121   4.531  63.419  1.00  0.00    -0.114 A  
HETATM   35  C   UNL     1      -8.024   5.434  63.513  1.00  0.00    -0.100 A  
HETATM   36  O   UNL     1      -7.374   5.817  62.381  1.00  0.00    -0.046 OA 
HETATM   37  C   UNL     1      -7.711   5.982  64.754  1.00  0.00    -0.101 A  
HETATM   38  H   UNL     1      -6.642   6.420  62.443  1.00  0.00     0.000 HD 
HETATM   39  C   UNL     1      -8.502   5.729  65.883  1.00  0.00    -0.139 A  
HETATM   40  C   UNL     1      -8.146   6.652  67.016  1.00  0.00    -0.113 C  
HETATM   41  C   UNL     1      -7.375   7.703  66.088  1.00  0.00    -0.078 C  
HETATM   42  C   UNL     1      -7.709   6.003  68.642  1.00  0.00    -0.095 C  
HETATM   43  O   UNL     1      -6.761   6.960  65.001  1.00  0.00    -0.048 OA 
HETATM   44  C   UNL     1      -9.055   5.936  69.835  1.00  0.00    -0.146 C  
HETATM   45  N   UNL     1     -10.417   5.745  69.283  1.00  0.00    -0.258 NA 
BRANCH  45  46
HETATM   46  C   UNL     1     -11.514   6.651  69.574  1.00  0.00    -0.263 C  
BRANCH  46  47
HETATM   47  C   UNL     1     -11.764   6.889  71.026  1.00  0.00    -0.392 C  
HETATM   48  C   UNL     1     -12.138   8.075  71.519  1.00  0.00    -0.330 C  
ENDBRANCH  46  47
ENDBRANCH  45  46
ENDBRANCH  23  24
ENDBRANCH  22  23
ENDBRANCH  21  22
ENDBRANCH  20  21
ENDBRANCH  19  20
ENDBRANCH  18  19
ENDBRANCH  17  18
ENDBRANCH  16  17
ENDBRANCH  15  16
ENDBRANCH  14  15
ENDBRANCH  13  14
ENDBRANCH  12  13
ENDBRANCH  11  12
ENDBRANCH  10  11
ENDBRANCH   9  10
ENDBRANCH   8   9
ENDBRANCH   7   8
ENDBRANCH   6   7
ENDBRANCH   5   6
ENDBRANCH   4   5
ENDBRANCH   3   4
ENDBRANCH   2   3
TORSDOF 24
ENDMDL
MODEL      150
REMARK 921   NORMALIZED FREE ENERGY PREDICTED BY IDOCK:   -2.78 KCAL/MOL
REMARK 922        TOTAL FREE ENERGY PREDICTED BY IDOCK:   -8.98 KCAL/MOL
REMARK 923 INTER-LIGAND FREE ENERGY PREDICTED BY IDOCK:   -6.78 KCAL/MOL
REMARK 924 INTRA-LIGAND FREE ENERGY PREDICTED BY IDOCK:   -2.20 KCAL/MOL
REMARK 927      BINDING AFFINITY PREDICTED BY RF-SCORE:    0.00 PKD
ROOT
HETATM    1  C   UNL     1      -8.544   1.730  68.210  1.00  0.00    -0.067 C  
HETATM    2  O   UNL     1      -7.990   2.578  69.207  1.00  0.00    -0.045 OA 
ENDROOT
BRANCH   2   3
HETATM    3  C   UNL     1      -7.377   1.820  70.249  1.00  0.00    -0.033 C  
BRANCH   3   4
HETATM    4  C   UNL     1      -6.568   2.752  71.138  1.00  0.00    -0.030 C  
BRANCH   4   5
HETATM    5  O   UNL     1      -5.953   3.751  70.327  1.00  0.00    -0.017 OA 
BRANCH   5   6
HETATM    6  C   UNL     1      -5.880   4.996  71.017  1.00  0.00    -0.017 C  
BRANCH   6   7
HETATM    7  C   UNL     1      -6.361   6.111  70.104  1.00  0.00    -0.032 C  
BRANCH   7   8
HETATM    8  O   UNL     1      -5.248   6.943  69.785  1.00  0.00    -0.014 OA 
BRANCH   8   9
HETATM    9  C   UNL     1      -5.225   7.271  68.401  1.00  0.00    -0.021 C  
BRANCH   9  10
HETATM   10  C   UNL     1      -6.555   6.877  67.781  1.00  0.00    -0.055 C  
BRANCH  10  11
HETATM   11  O   UNL     1      -7.041   7.975  67.021  1.00  0.00    -0.078 OA 
BRANCH  11  12
HETATM   12  C   UNL     1      -6.163   9.092  67.107  1.00  0.00    -0.059 C  
BRANCH  12  13
HETATM   13  C   UNL     1      -6.202   9.840  65.786  1.00  0.00    -0.073 C  
BRANCH  13  14
HETATM   14  O   UNL     1      -6.164  11.239  66.035  1.00  0.00    -0.083 OA 
BRANCH  14  15
HETATM   15  C   UNL     1      -6.596  11.518  67.361  1.00  0.00    -0.101 C  
BRANCH  15  16
HETATM   16  C   UNL     1      -6.085  12.878  67.803  1.00  0.00    -0.143 C  
BRANCH  16  17
HETATM   17  O   UNL     1      -7.113  13.826  67.543  1.00  0.00    -0.173 OA 
BRANCH  17  18
HETATM   18  C   UNL     1      -8.390  13.221  67.422  1.00  0.00    -0.192 C  
BRANCH  18  19
HETATM   19  C   UNL     1      -9.135  13.934  66.310  1.00  0.00     0.004 C  
BRANCH  19  20
HETATM   20  O   UNL     1     -10.498  14.103  66.676  1.00  0.00    -0.274 OA 
BRANCH  20  21
HETATM   21  C   UNL     1     -10.875  13.232  67.741  1.00  0.00    -0.252 C  
BRANCH  21  22
HETATM   22  C   UNL     1     -12.033  12.321  67.319  1.00  0.00    -0.131 C  
BRANCH  22  23
HETATM   23  O   UNL     1     -12.141  11.067  68.041  1.00  0.00    -0.615 OA 
BRANCH  23  24
HETATM   24  C   UNL     1     -10.874  10.443  68.361  1.00  0.00    -0.245 C  
HETATM   25  C   UNL     1     -10.442  10.824  69.750  1.00  0.00    -0.130 C  
HETATM   26  C   UNL     1     -10.937   9.800  70.925  1.00  0.00    -0.411 C  
HETATM   27  C   UNL     1     -10.726   8.177  70.737  1.00  0.00    -0.222 C  
HETATM   28  C   UNL     1      -9.714   7.046  71.428  1.00  0.00    -0.169 C  
HETATM   29  O   UNL     1     -12.061   7.653  70.707  1.00  0.00    -0.451 OA 
HETATM   30  C   UNL     1      -9.897   5.574  71.045  1.00  0.00    -0.238 C  
HETATM   31  H   UNL     1     -11.939   6.717  70.598  1.00  0.00     0.000 HD 
HETATM   32  C   UNL     1      -9.925   5.592  69.537  1.00  0.00    -0.263 A  
HETATM   33  C   UNL     1     -10.129   4.445  68.794  1.00  0.00     0.034 A  
HETATM   34  C   UNL     1     -10.486   4.513  67.455  1.00  0.00     0.227 A  
HETATM   35  C   UNL     1     -10.678   5.775  66.825  1.00  0.00    -0.297 A  
HETATM   36  O   UNL     1     -11.260   5.829  65.597  1.00  0.00    -0.067 OA 
HETATM   37  C   UNL     1     -10.356   6.933  67.530  1.00  0.00    -0.217 A  
HETATM   38  H   UNL     1     -11.388   6.671  65.176  1.00  0.00     0.000 HD 
HETATM   39  C   UNL     1      -9.932   6.878  68.864  1.00  0.00    -0.158 A  
HETATM   40  C   UNL     1      -9.933   8.245  69.492  1.00  0.00    -0.187 C  
HETATM   41  C   UNL     1     -10.877   8.899  68.377  1.00  0.00     0.010 C  
HETATM   42  C   UNL     1      -8.453   8.904  70.289  1.00  0.00    -0.168 C  
HETATM   43  O   UNL     1     -10.589   8.234  67.116  1.00  0.00    -0.317 OA 
HETATM   44  C   UNL     1      -8.370   8.678  72.072  1.00  0.00    -0.102 C  
HETATM   45  N   UNL     1      -9.059   7.485  72.619  1.00  0.00    -0.141 NA 
BRANCH  45  46
HETATM   46  C   UNL     1     -10.063   7.571  73.666  1.00  0.00    -0.288 C  
BRANCH  46  47
HETATM   47  C   UNL     1     -10.136   6.381  74.564  1.00  0.00    -0.358 C  
HETATM   48  C   UNL     1      -9.242   5.388  74.536  1.00  0.00    -0.124 C  
ENDBRANCH  46  47
ENDBRANCH  45  46
ENDBRANCH  23  24
ENDBRANCH  22  23
ENDBRANCH  21  22
ENDBRANCH  20  21
ENDBRANCH  19  20
ENDBRANCH  18  19
ENDBRANCH  17  18
ENDBRANCH  16  17
ENDBRANCH  15  16
ENDBRANCH  14  15
ENDBRANCH  13  14
ENDBRANCH  12  13
ENDBRANCH  11  12
ENDBRANCH  10  11
ENDBRANCH   9  10
ENDBRANCH   8   9
ENDBRANCH   7   8
ENDBRANCH   6   7
ENDBRANCH   5   6
ENDBRANCH   4   5
ENDBRANCH   3   4
ENDBRANCH   2   3
TORSDOF 24
ENDMDL
MODEL      151
REMARK 921   NORMALIZED FREE ENERGY PREDICTED BY IDOCK:   -2.78 KCAL/MOL
REMARK 922        TOTAL FREE ENERGY PREDICTED BY IDOCK:   -8.97 KCAL/MOL
REMARK 923 INTER-LIGAND FREE ENERGY PREDICTED BY IDOCK:   -7.44 KCAL/MOL
REMARK 924 INTRA-LIGAND FREE ENERGY PREDICTED BY IDOCK:   -1.53 KCAL/MOL
REMARK 927      BINDING AFFINITY PREDICTED BY RF-SCORE:    0.00 PKD
ROOT
HETATM    1  C   UNL     1     -12.468  15.010  67.025  1.00  0.00     0.726 C  
HETATM    2  O   UNL     1     -12.000  14.881  68.361  1.00  0.00    -0.299 OA 
ENDROOT
BRANCH   2   3
HETATM    3  C   UNL     1     -10.741  15.528  68.534  1.00  0.00    -0.259 C  
BRANCH   3   4
HETATM    4  C   UNL     1     -10.969  17.008  68.804  1.00  0.00    -0.180 C  
BRANCH   4   5
HETATM    5  O   UNL     1     -10.128  17.773  67.942  1.00  0.00    -0.308 OA 
BRANCH   5   6
HETATM    6  C   UNL     1      -9.272  18.629  68.693  1.00  0.00    -0.329 C  
BRANCH   6   7
HETATM    7  C   UNL     1      -7.853  18.521  68.161  1.00  0.00    -0.290 C  
BRANCH   7   8
HETATM    8  O   UNL     1      -7.764  17.349  67.353  1.00  0.00    -0.186 OA 
BRANCH   8   9
HETATM    9  C   UNL     1      -7.130  16.284  68.052  1.00  0.00    -0.133 C  
BRANCH   9  10
HETATM   10  C   UNL     1      -6.905  16.708  69.493  1.00  0.00    -0.157 C  
BRANCH  10  11
HETATM   11  O   UNL     1      -6.215  15.664  70.167  1.00  0.00    -0.153 OA 
BRANCH  11  12
HETATM   12  C   UNL     1      -5.132  15.171  69.386  1.00  0.00    -0.092 C  
BRANCH  12  13
HETATM   13  C   UNL     1      -5.265  13.663  69.271  1.00  0.00    -0.077 C  
BRANCH  13  14
HETATM   14  O   UNL     1      -6.263  13.208  70.174  1.00  0.00    -0.124 OA 
BRANCH  14  15
HETATM   15  C   UNL     1      -6.504  11.818  69.987  1.00  0.00    -0.021 C  
BRANCH  15  16
HETATM   16  C   UNL     1      -6.905  11.546  68.548  1.00  0.00    -0.074 C  
BRANCH  16  17
HETATM   17  O   UNL     1      -8.250  11.978  68.390  1.00  0.00    -0.154 OA 
BRANCH  17  18
HETATM   18  C   UNL     1      -8.359  13.109  67.542  1.00  0.00    -0.185 C  
BRANCH  18  19
HETATM   19  C   UNL     1      -9.376  12.782  66.464  1.00  0.00    -0.221 C  
BRANCH  19  20
HETATM   20  O   UNL     1     -10.036  11.564  66.779  1.00  0.00    -0.202 OA 
BRANCH  20  21
HETATM   21  C   UNL     1     -11.355  11.787  67.275  1.00  0.00    -0.315 C  
BRANCH  21  22
HETATM   22  C   UNL     1     -11.662  10.853  68.452  1.00  0.00    -0.218 C  
BRANCH  22  23
HETATM   23  O   UNL     1     -10.667   9.832  68.720  1.00  0.00    -0.216 OA 
BRANCH  23  24
HETATM   24  C   UNL     1     -11.035   8.501  68.284  1.00  0.00     0.202 C  
HETATM   25  C   UNL     1     -10.378   8.182  66.970  1.00  0.00    -0.403 C  
HETATM   26  C   UNL     1      -8.922   7.447  67.095  1.00  0.00    -0.134 C  
HETATM   27  C   UNL     1      -8.743   6.153  68.098  1.00  0.00    -0.114 C  
HETATM   28  C   UNL     1      -8.541   4.514  67.862  1.00  0.00    -0.102 C  
HETATM   29  O   UNL     1      -7.802   6.603  69.083  1.00  0.00    -0.106 OA 
HETATM   30  C   UNL     1      -8.306   3.626  69.087  1.00  0.00    -0.085 C  
HETATM   31  H   UNL     1      -7.699   5.856  69.662  1.00  0.00     0.000 HD 
HETATM   32  C   UNL     1      -9.410   4.018  70.038  1.00  0.00    -0.242 A  
HETATM   33  C   UNL     1      -9.518   3.470  71.301  1.00  0.00    -0.229 A  
HETATM   34  C   UNL     1     -10.308   4.064  72.274  1.00  0.00    -0.183 A  
HETATM   35  C   UNL     1     -11.005   5.274  71.995  1.00  0.00    -0.127 A  
HETATM   36  O   UNL     1     -11.571   5.972  73.016  1.00  0.00    -0.482 OA 
HETATM   37  C   UNL     1     -11.000   5.765  70.692  1.00  0.00    -0.249 A  
HETATM   38  H   UNL     1     -12.036   6.779  72.830  1.00  0.00     0.000 HD 
HETATM   39  C   UNL     1     -10.258   5.140  69.681  1.00  0.00    -0.337 A  
HETATM   40  C   UNL     1     -10.170   6.008  68.455  1.00  0.00    -0.227 C  
HETATM   41  C   UNL     1     -10.596   7.350  69.215  1.00  0.00    -0.213 C  
HETATM   42  C   UNL     1     -10.669   5.384  66.837  1.00  0.00    -0.264 C  
HETATM   43  O   UNL     1     -11.522   6.978  70.273  1.00  0.00    -0.300 OA 
HETATM   44  C   UNL     1      -9.339   4.737  65.813  1.00  0.00    -0.161 C  
HETATM   45  N   UNL     1      -8.182   4.148  66.529  1.00  0.00    -0.101 NA 
BRANCH  45  46
HETATM   46  C   UNL     1      -6.816   4.586  66.305  1.00  0.00    -0.058 C  
BRANCH  46  47
HETATM   47  C   UNL     1      -6.616   5.415  65.080  1.00  0.00    -0.040 C  
HETATM   48  C   UNL     1      -5.871   5.017  64.042  1.00  0.00    -0.017 C  
ENDBRANCH  46  47
ENDBRANCH  45  46
ENDBRANCH  23  24
ENDBRANCH  22  23
ENDBRANCH  21  22
ENDBRANCH  20  21
ENDBRANCH  19  20
ENDBRANCH  18  19
ENDBRANCH  17  18
ENDBRANCH  16  17
ENDBRANCH  15  16
ENDBRANCH  14  15
ENDBRANCH  13  14
ENDBRANCH  12  13
ENDBRANCH  11  12
ENDBRANCH  10  11
ENDBRANCH   9  10
ENDBRANCH   8   9
ENDBRANCH   7   8
ENDBRANCH   6   7
ENDBRANCH   5   6
ENDBRANCH   4   5
ENDBRANCH   3   4
ENDBRANCH   2   3
TORSDOF 24
ENDMDL
MODEL      152
REMARK 921   NORMALIZED FREE ENERGY PREDICTED BY IDOCK:   -2.63 KCAL/MOL
REMARK 922        TOTAL FREE ENERGY PREDICTED BY IDOCK:   -8.61 KCAL/MOL
REMARK 923 INTER-LIGAND FREE ENERGY PREDICTED BY IDOCK:   -6.38 KCAL/MOL
REMARK 924 INTRA-LIGAND FREE ENERGY PREDICTED BY IDOCK:   -2.24 KCAL/MOL
REMARK 927      BINDING AFFINITY PREDICTED BY RF-SCORE:    0.00 PKD
ROOT
HETATM    1  C   UNL     1      -7.663  20.544  66.530  1.00  0.00    -0.130 C  
HETATM    2  O   UNL     1      -8.104  19.230  66.219  1.00  0.00    -0.297 OA 
ENDROOT
BRANCH   2   3
HETATM    3  C   UNL     1      -9.085  18.778  67.152  1.00  0.00    -0.284 C  
BRANCH   3   4
HETATM    4  C   UNL     1      -8.659  19.173  68.559  1.00  0.00    -0.363 C  
BRANCH   4   5
HETATM    5  O   UNL     1      -7.836  18.141  69.102  1.00  0.00    -0.148 OA 
BRANCH   5   6
HETATM    6  C   UNL     1      -6.466  18.534  69.113  1.00  0.00    -0.263 C  
BRANCH   6   7
HETATM    7  C   UNL     1      -5.674  17.638  68.176  1.00  0.00    -0.155 C  
BRANCH   7   8
HETATM    8  O   UNL     1      -5.407  16.409  68.848  1.00  0.00    -0.114 OA 
BRANCH   8   9
HETATM    9  C   UNL     1      -5.534  15.299  67.968  1.00  0.00    -0.134 C  
BRANCH   9  10
HETATM   10  C   UNL     1      -6.897  15.355  67.300  1.00  0.00    -0.108 C  
BRANCH  10  11
HETATM   11  O   UNL     1      -7.858  14.802  68.190  1.00  0.00    -0.113 OA 
BRANCH  11  12
HETATM   12  C   UNL     1      -9.179  15.188  67.829  1.00  0.00    -0.180 C  
BRANCH  12  13
HETATM   13  C   UNL     1      -9.874  13.996  67.193  1.00  0.00    -0.240 C  
BRANCH  13  14
HETATM   14  O   UNL     1     -10.968  13.598  68.009  1.00  0.00    -0.240 OA 
BRANCH  14  15
HETATM   15  C   UNL     1     -11.383  12.280  67.672  1.00  0.00    -0.311 C  
BRANCH  15  16
HETATM   16  C   UNL     1     -10.534  11.260  68.409  1.00  0.00    -0.197 C  
BRANCH  16  17
HETATM   17  O   UNL     1     -11.406  10.244  68.888  1.00  0.00    -0.231 OA 
BRANCH  17  18
HETATM   18  C   UNL     1     -12.590  10.773  69.462  1.00  0.00     0.124 C  
BRANCH  18  19
HETATM   19  C   UNL     1     -13.006   9.851  70.593  1.00  0.00    -0.120 C  
BRANCH  19  20
HETATM   20  O   UNL     1     -11.854   9.381  71.279  1.00  0.00    -0.308 OA 
BRANCH  20  21
HETATM   21  C   UNL     1     -12.192   8.473  72.326  1.00  0.00    -0.389 C  
BRANCH  21  22
HETATM   22  C   UNL     1     -10.949   8.081  73.133  1.00  0.00    -0.110 C  
BRANCH  22  23
HETATM   23  O   UNL     1      -9.799   8.952  72.977  1.00  0.00     0.200 OA 
BRANCH  23  24
HETATM   24  C   UNL     1      -8.567   8.269  72.638  1.00  0.00    -0.198 C  
HETATM   25  C   UNL     1      -8.838   6.822  72.336  1.00  0.00    -0.136 C  
HETATM   26  C   UNL     1      -9.137   6.497  70.760  1.00  0.00    -0.154 C  
HETATM   27  C   UNL     1      -8.134   7.096  69.598  1.00  0.00    -0.129 C  
HETATM   28  C   UNL     1      -6.990   6.426  68.588  1.00  0.00    -0.080 C  
HETATM   29  O   UNL     1      -8.972   7.978  68.838  1.00  0.00    -0.141 OA 
HETATM   30  C   UNL     1      -6.321   7.327  67.546  1.00  0.00    -0.048 C  
HETATM   31  H   UNL     1      -8.393   8.324  68.167  1.00  0.00     0.000 HD 
HETATM   32  C   UNL     1      -5.869   8.527  68.341  1.00  0.00    -0.041 A  
HETATM   33  C   UNL     1      -5.254   9.612  67.745  1.00  0.00    -0.036 A  
HETATM   34  C   UNL     1      -5.150  10.827  68.405  1.00  0.00    -0.033 A  
HETATM   35  C   UNL     1      -5.702  10.989  69.708  1.00  0.00    -0.062 A  
HETATM   36  O   UNL     1      -5.812  12.236  70.239  1.00  0.00    -0.152 OA 
HETATM   37  C   UNL     1      -6.213   9.871  70.363  1.00  0.00    -0.094 A  
HETATM   38  H   UNL     1      -6.181  12.344  71.108  1.00  0.00     0.000 HD 
HETATM   39  C   UNL     1      -6.267   8.620  69.734  1.00  0.00    -0.035 A  
HETATM   40  C   UNL     1      -7.117   7.654  70.514  1.00  0.00    -0.051 C  
HETATM   41  C   UNL     1      -7.843   8.789  71.377  1.00  0.00    -0.128 C  
HETATM   42  C   UNL     1      -6.471   6.047  71.022  1.00  0.00    -0.045 C  
HETATM   43  O   UNL     1      -6.888   9.868  71.573  1.00  0.00    -0.273 OA 
HETATM   44  C   UNL     1      -6.868   4.674  69.929  1.00  0.00    -0.044 C  
HETATM   45  N   UNL     1      -7.043   5.001  68.494  1.00  0.00    -0.057 NA 
BRANCH  45  46
HETATM   46  C   UNL     1      -8.243   4.654  67.753  1.00  0.00    -0.099 C  
BRANCH  46  47
HETATM   47  C   UNL     1      -8.799   3.303  68.055  1.00  0.00    -0.159 C  
HETATM   48  C   UNL     1      -8.131   2.168  67.821  1.00  0.00    -0.069 C  
ENDBRANCH  46  47
ENDBRANCH  45  46
ENDBRANCH  23  24
ENDBRANCH  22  23
ENDBRANCH  21  22
ENDBRANCH  20  21
ENDBRANCH  19  20
ENDBRANCH  18  19
ENDBRANCH  17  18
ENDBRANCH  16  17
ENDBRANCH  15  16
ENDBRANCH  14  15
ENDBRANCH  13  14
ENDBRANCH  12  13
ENDBRANCH  11  12
ENDBRANCH  10  11
ENDBRANCH   9  10
ENDBRANCH   8   9
ENDBRANCH   7   8
ENDBRANCH   6   7
ENDBRANCH   5   6
ENDBRANCH   4   5
ENDBRANCH   3   4
ENDBRANCH   2   3
TORSDOF 24
ENDMDL
MODEL      153
REMARK 921   NORMALIZED FREE ENERGY PREDICTED BY IDOCK:   -2.52 KCAL/MOL
REMARK 922        TOTAL FREE ENERGY PREDICTED BY IDOCK:   -8.35 KCAL/MOL
REMARK 923 INTER-LIGAND FREE ENERGY PREDICTED BY IDOCK:   -6.75 KCAL/MOL
REMARK 924 INTRA-LIGAND FREE ENERGY PREDICTED BY IDOCK:   -1.61 KCAL/MOL
REMARK 927      BINDING AFFINITY PREDICTED BY RF-SCORE:    0.00 PKD
ROOT
HETATM    1  C   UNL     1     -12.437  14.856  64.212  1.00  0.00    -0.157 C  
HETATM    2  O   UNL     1     -12.712  14.138  65.408  1.00  0.00    -0.545 OA 
ENDROOT
BRANCH   2   3
HETATM    3  C   UNL     1     -11.670  14.310  66.366  1.00  0.00    -0.391 C  
BRANCH   3   4
HETATM    4  C   UNL     1     -11.871  13.326  67.509  1.00  0.00    -0.358 C  
BRANCH   4   5
HETATM    5  O   UNL     1     -10.994  12.215  67.326  1.00  0.00    -0.237 OA 
BRANCH   5   6
HETATM    6  C   UNL     1      -9.703  12.648  66.905  1.00  0.00    -0.234 C  
BRANCH   6   7
HETATM    7  C   UNL     1      -9.160  11.685  65.863  1.00  0.00    -0.149 C  
BRANCH   7   8
HETATM    8  O   UNL     1     -10.247  11.231  65.060  1.00  0.00    -0.252 OA 
BRANCH   8   9
HETATM    9  C   UNL     1     -10.215  11.818  63.764  1.00  0.00    -0.399 C  
BRANCH   9  10
HETATM   10  C   UNL     1      -9.065  11.211  62.979  1.00  0.00    -0.271 C  
BRANCH  10  11
HETATM   11  O   UNL     1      -9.289   9.812  62.862  1.00  0.00    -0.273 OA 
BRANCH  11  12
HETATM   12  C   UNL     1      -8.064   9.088  62.904  1.00  0.00    -0.166 C  
BRANCH  12  13
HETATM   13  C   UNL     1      -7.801   8.667  64.340  1.00  0.00    -0.138 C  
BRANCH  13  14
HETATM   14  O   UNL     1      -7.204   9.747  65.045  1.00  0.00    -0.114 OA 
BRANCH  14  15
HETATM   15  C   UNL     1      -7.196   9.482  66.442  1.00  0.00    -0.089 C  
BRANCH  15  16
HETATM   16  C   UNL     1      -7.420   8.001  66.695  1.00  0.00    -0.089 C  
BRANCH  16  17
HETATM   17  O   UNL     1      -7.791   7.851  68.059  1.00  0.00    -0.121 OA 
BRANCH  17  18
HETATM   18  C   UNL     1      -8.395   9.020  68.587  1.00  0.00    -0.123 C  
BRANCH  18  19
HETATM   19  C   UNL     1      -9.673   8.601  69.290  1.00  0.00    -0.173 C  
BRANCH  19  20
HETATM   20  O   UNL     1     -10.456   7.792  68.423  1.00  0.00    -0.201 OA 
BRANCH  20  21
HETATM   21  C   UNL     1     -11.329   6.926  69.146  1.00  0.00    -0.036 C  
BRANCH  21  22
HETATM   22  C   UNL     1     -11.233   7.187  70.654  1.00  0.00    -0.280 C  
BRANCH  22  23
HETATM   23  O   UNL     1     -11.800   6.160  71.507  1.00  0.00    -0.276 OA 
BRANCH  23  24
HETATM   24  C   UNL     1     -10.826   5.390  72.253  1.00  0.00    -0.227 C  
HETATM   25  C   UNL     1     -10.525   4.100  71.543  1.00  0.00     0.100 C  
HETATM   26  C   UNL     1      -9.268   4.172  70.498  1.00  0.00    -0.194 C  
HETATM   27  C   UNL     1      -7.846   4.851  70.977  1.00  0.00    -0.084 C  
HETATM   28  C   UNL     1      -6.335   4.250  71.346  1.00  0.00    -0.018 C  
HETATM   29  O   UNL     1      -7.699   5.992  70.120  1.00  0.00    -0.092 OA 
HETATM   30  C   UNL     1      -5.214   5.245  71.664  1.00  0.00    -0.005 C  
HETATM   31  H   UNL     1      -6.878   6.384  70.396  1.00  0.00     0.000 HD 
HETATM   32  C   UNL     1      -5.824   6.163  72.695  1.00  0.00    -0.037 A  
HETATM   33  C   UNL     1      -5.137   7.245  73.210  1.00  0.00    -0.037 A  
HETATM   34  C   UNL     1      -5.802   8.260  73.884  1.00  0.00    -0.096 A  
HETATM   35  C   UNL     1      -7.217   8.217  74.035  1.00  0.00    -0.162 A  
HETATM   36  O   UNL     1      -7.878   9.321  74.474  1.00  0.00    -0.071 OA 
HETATM   37  C   UNL     1      -7.900   7.073  73.628  1.00  0.00    -0.096 A  
HETATM   38  H   UNL     1      -8.822   9.293  74.574  1.00  0.00     0.000 HD 
HETATM   39  C   UNL     1      -7.234   6.010  73.003  1.00  0.00    -0.089 A  
HETATM   40  C   UNL     1      -8.209   5.038  72.397  1.00  0.00    -0.120 C  
HETATM   41  C   UNL     1      -9.443   6.056  72.429  1.00  0.00    -0.145 C  
HETATM   42  C   UNL     1      -8.144   3.281  72.804  1.00  0.00    -0.072 C  
HETATM   43  O   UNL     1      -9.276   6.910  73.593  1.00  0.00    -0.139 OA 
HETATM   44  C   UNL     1      -7.229   2.252  71.645  1.00  0.00    -0.035 C  
HETATM   45  N   UNL     1      -6.112   2.905  70.923  1.00  0.00    -0.018 NA 
BRANCH  45  46
HETATM   46  C   UNL     1      -6.012   2.911  69.474  1.00  0.00    -0.024 C  
BRANCH  46  47
HETATM   47  C   UNL     1      -5.139   3.982  68.909  1.00  0.00    -0.004 C  
HETATM   48  C   UNL     1      -5.342   4.532  67.708  1.00  0.00    -0.012 C  
ENDBRANCH  46  47
ENDBRANCH  45  46
ENDBRANCH  23  24
ENDBRANCH  22  23
ENDBRANCH  21  22
ENDBRANCH  20  21
ENDBRANCH  19  20
ENDBRANCH  18  19
ENDBRANCH  17  18
ENDBRANCH  16  17
ENDBRANCH  15  16
ENDBRANCH  14  15
ENDBRANCH  13  14
ENDBRANCH  12  13
ENDBRANCH  11  12
ENDBRANCH  10  11
ENDBRANCH   9  10
ENDBRANCH   8   9
ENDBRANCH   7   8
ENDBRANCH   6   7
ENDBRANCH   5   6
ENDBRANCH   4   5
ENDBRANCH   3   4
ENDBRANCH   2   3
TORSDOF 24
ENDMDL
MODEL      154
REMARK 921   NORMALIZED FREE ENERGY PREDICTED BY IDOCK:   -2.31 KCAL/MOL
REMARK 922        TOTAL FREE ENERGY PREDICTED BY IDOCK:   -7.84 KCAL/MOL
REMARK 923 INTER-LIGAND FREE ENERGY PREDICTED BY IDOCK:   -6.83 KCAL/MOL
REMARK 924 INTRA-LIGAND FREE ENERGY PREDICTED BY IDOCK:   -1.01 KCAL/MOL
REMARK 927      BINDING AFFINITY PREDICTED BY RF-SCORE:    0.00 PKD
ROOT
HETATM    1  C   UNL     1     -10.668   2.680  63.697  1.00  0.00    -0.149 C  
HETATM    2  O   UNL     1     -10.418   3.894  64.392  1.00  0.00    -0.244 OA 
ENDROOT
BRANCH   2   3
HETATM    3  C   UNL     1      -9.213   3.818  65.150  1.00  0.00    -0.150 C  
BRANCH   3   4
HETATM    4  C   UNL     1      -9.067   2.417  65.725  1.00  0.00    -0.088 C  
BRANCH   4   5
HETATM    5  O   UNL     1      -9.156   2.486  67.147  1.00  0.00    -0.148 OA 
BRANCH   5   6
HETATM    6  C   UNL     1      -7.903   2.846  67.720  1.00  0.00    -0.064 C  
BRANCH   6   7
HETATM    7  C   UNL     1      -8.137   3.704  68.953  1.00  0.00    -0.061 C  
BRANCH   7   8
HETATM    8  O   UNL     1      -7.524   3.063  70.069  1.00  0.00    -0.044 OA 
BRANCH   8   9
HETATM    9  C   UNL     1      -8.495   2.467  70.921  1.00  0.00    -0.054 C  
BRANCH   9  10
HETATM   10  C   UNL     1      -8.458   3.163  72.271  1.00  0.00    -0.075 C  
BRANCH  10  11
HETATM   11  O   UNL     1      -9.787   3.514  72.633  1.00  0.00    -0.134 OA 
BRANCH  11  12
HETATM   12  C   UNL     1     -10.197   4.718  71.995  1.00  0.00    -0.195 C  
BRANCH  12  13
HETATM   13  C   UNL     1     -10.447   5.770  73.061  1.00  0.00    -0.221 C  
BRANCH  13  14
HETATM   14  O   UNL     1     -11.209   6.832  72.505  1.00  0.00    -0.256 OA 
BRANCH  14  15
HETATM   15  C   UNL     1     -10.482   7.470  71.462  1.00  0.00    -0.204 C  
BRANCH  15  16
HETATM   16  C   UNL     1     -10.253   8.933  71.803  1.00  0.00    -0.344 C  
BRANCH  16  17
HETATM   17  O   UNL     1      -8.848   9.153  71.821  1.00  0.00    -0.341 OA 
BRANCH  17  18
HETATM   18  C   UNL     1      -8.160   8.333  70.890  1.00  0.00    -0.102 C  
BRANCH  18  19
HETATM   19  C   UNL     1      -6.791   8.944  70.661  1.00  0.00    -0.057 C  
BRANCH  19  20
HETATM   20  O   UNL     1      -6.763  10.268  71.176  1.00  0.00    -0.312 OA 
BRANCH  20  21
HETATM   21  C   UNL     1      -5.458  10.841  71.101  1.00  0.00    -0.051 C  
BRANCH  21  22
HETATM   22  C   UNL     1      -5.187  11.406  69.702  1.00  0.00    -0.057 C  
BRANCH  22  23
HETATM   23  O   UNL     1      -5.697  12.741  69.455  1.00  0.00    -0.079 OA 
BRANCH  23  24
HETATM   24  C   UNL     1      -6.389  12.899  68.192  1.00  0.00    -0.096 C  
HETATM   25  C   UNL     1      -7.128  11.639  67.842  1.00  0.00    -0.081 C  
HETATM   26  C   UNL     1      -8.675  11.582  68.375  1.00  0.00    -0.160 C  
HETATM   27  C   UNL     1      -9.675  12.866  68.117  1.00  0.00    -0.227 C  
HETATM   28  C   UNL     1     -10.980  13.143  67.117  1.00  0.00    -0.268 C  
HETATM   29  O   UNL     1      -9.988  13.332  69.437  1.00  0.00    -0.192 OA 
HETATM   30  C   UNL     1     -11.726  14.474  67.247  1.00  0.00    -0.429 C  
HETATM   31  H   UNL     1     -10.565  14.073  69.288  1.00  0.00     0.000 HD 
HETATM   32  C   UNL     1     -10.631  15.512  67.197  1.00  0.00    -0.300 A  
HETATM   33  C   UNL     1     -10.893  16.861  67.336  1.00  0.00    -0.166 A  
HETATM   34  C   UNL     1      -9.878  17.761  67.624  1.00  0.00    -0.299 A  
HETATM   35  C   UNL     1      -8.543  17.305  67.811  1.00  0.00    -0.225 A  
HETATM   36  O   UNL     1      -7.612  18.150  68.330  1.00  0.00    -0.255 OA 
HETATM   37  C   UNL     1      -8.249  15.968  67.553  1.00  0.00    -0.152 A  
HETATM   38  H   UNL     1      -6.721  17.845  68.455  1.00  0.00     0.000 HD 
HETATM   39  C   UNL     1      -9.253  15.057  67.197  1.00  0.00    -0.229 A  
HETATM   40  C   UNL     1      -8.751  13.640  67.262  1.00  0.00    -0.223 C  
HETATM   41  C   UNL     1      -7.476  13.996  68.161  1.00  0.00    -0.131 C  
HETATM   42  C   UNL     1      -8.897  12.537  65.841  1.00  0.00     0.361 C  
HETATM   43  O   UNL     1      -7.041  15.334  67.793  1.00  0.00    -0.127 OA 
HETATM   44  C   UNL     1     -10.334  11.455  65.846  1.00  0.00    -0.250 C  
HETATM   45  N   UNL     1     -11.542  11.966  66.536  1.00  0.00    -0.519 NA 
BRANCH  45  46
HETATM   46  C   UNL     1     -12.211  11.230  67.594  1.00  0.00     0.813 C  
BRANCH  46  47
HETATM   47  C   UNL     1     -11.336  10.290  68.354  1.00  0.00    -0.244 C  
HETATM   48  C   UNL     1     -11.003   9.075  67.904  1.00  0.00    -0.001 C  
ENDBRANCH  46  47
ENDBRANCH  45  46
ENDBRANCH  23  24
ENDBRANCH  22  23
ENDBRANCH  21  22
ENDBRANCH  20  21
ENDBRANCH  19  20
ENDBRANCH  18  19
ENDBRANCH  17  18
ENDBRANCH  16  17
ENDBRANCH  15  16
ENDBRANCH  14  15
ENDBRANCH  13  14
ENDBRANCH  12  13
ENDBRANCH  11  12
ENDBRANCH  10  11
ENDBRANCH   9  10
ENDBRANCH   8   9
ENDBRANCH   7   8
ENDBRANCH   6   7
ENDBRANCH   5   6
ENDBRANCH   4   5
ENDBRANCH   3   4
ENDBRANCH   2   3
TORSDOF 24
ENDMDL
MODEL      155
REMARK 921   NORMALIZED FREE ENERGY PREDICTED BY IDOCK:   -2.28 KCAL/MOL
REMARK 922        TOTAL FREE ENERGY PREDICTED BY IDOCK:   -7.78 KCAL/MOL
REMARK 923 INTER-LIGAND FREE ENERGY PREDICTED BY IDOCK:   -6.87 KCAL/MOL
REMARK 924 INTRA-LIGAND FREE ENERGY PREDICTED BY IDOCK:   -0.91 KCAL/MOL
REMARK 927      BINDING AFFINITY PREDICTED BY RF-SCORE:    0.00 PKD
ROOT
HETATM    1  C   UNL     1      -8.179   1.558  66.018  1.00  0.00    -0.084 C  
HETATM    2  O   UNL     1      -8.039   2.195  64.755  1.00  0.00    -0.076 OA 
ENDROOT
BRANCH   2   3
HETATM    3  C   UNL     1      -8.462   3.556  64.812  1.00  0.00    -0.100 C  
BRANCH   3   4
HETATM    4  C   UNL     1      -7.875   4.214  66.052  1.00  0.00    -0.094 C  
BRANCH   4   5
HETATM    5  O   UNL     1      -8.622   5.393  66.350  1.00  0.00    -0.116 OA 
BRANCH   5   6
HETATM    6  C   UNL     1      -9.894   5.064  66.900  1.00  0.00    -0.188 C  
BRANCH   6   7
HETATM    7  C   UNL     1     -10.678   6.340  67.163  1.00  0.00    -0.359 C  
BRANCH   7   8
HETATM    8  O   UNL     1     -11.337   6.212  68.420  1.00  0.00    -0.271 OA 
BRANCH   8   9
HETATM    9  C   UNL     1     -10.571   6.794  69.469  1.00  0.00    -0.232 C  
BRANCH   9  10
HETATM   10  C   UNL     1      -9.381   7.518  68.864  1.00  0.00    -0.142 C  
BRANCH  10  11
HETATM   11  O   UNL     1      -8.222   7.188  69.619  1.00  0.00    -0.127 OA 
BRANCH  11  12
HETATM   12  C   UNL     1      -8.547   6.938  70.981  1.00  0.00    -0.135 C  
BRANCH  12  13
HETATM   13  C   UNL     1      -7.911   8.020  71.836  1.00  0.00    -0.106 C  
BRANCH  13  14
HETATM   14  O   UNL     1      -7.355   9.020  70.994  1.00  0.00    -0.099 OA 
BRANCH  14  15
HETATM   15  C   UNL     1      -5.956   9.139  71.222  1.00  0.00    -0.067 C  
BRANCH  15  16
HETATM   16  C   UNL     1      -5.653  10.441  71.944  1.00  0.00     0.265 C  
BRANCH  16  17
HETATM   17  O   UNL     1      -5.658  11.479  70.973  1.00  0.00    -0.292 OA 
BRANCH  17  18
HETATM   18  C   UNL     1      -5.159  11.049  69.717  1.00  0.00    -0.042 C  
BRANCH  18  19
HETATM   19  C   UNL     1      -5.914  11.802  68.638  1.00  0.00    -0.050 C  
BRANCH  19  20
HETATM   20  O   UNL     1      -5.195  12.974  68.278  1.00  0.00    -0.069 OA 
BRANCH  20  21
HETATM   21  C   UNL     1      -6.068  14.037  67.896  1.00  0.00    -0.148 C  
BRANCH  21  22
HETATM   22  C   UNL     1      -6.668  14.721  69.129  1.00  0.00    -0.123 C  
BRANCH  22  23
HETATM   23  O   UNL     1      -7.870  14.110  69.664  1.00  0.00     0.229 OA 
BRANCH  23  24
HETATM   24  C   UNL     1      -9.080  14.881  69.464  1.00  0.00     0.026 C  
HETATM   25  C   UNL     1      -8.785  16.351  69.571  1.00  0.00     0.177 C  
HETATM   26  C   UNL     1      -8.409  17.078  68.154  1.00  0.00    -0.222 C  
HETATM   27  C   UNL     1      -9.358  16.828  66.831  1.00  0.00    -0.236 C  
HETATM   28  C   UNL     1     -10.447  17.766  65.985  1.00  0.00    -0.286 C  
HETATM   29  O   UNL     1      -8.490  16.165  65.901  1.00  0.00    -0.261 OA 
HETATM   30  C   UNL     1     -11.070  17.186  64.712  1.00  0.00     0.393 C  
HETATM   31  H   UNL     1      -9.037  16.021  65.137  1.00  0.00     0.000 HD 
HETATM   32  C   UNL     1     -11.569  15.827  65.137  1.00  0.00     0.068 A  
HETATM   33  C   UNL     1     -12.160  14.952  64.246  1.00  0.00    -0.373 A  
HETATM   34  C   UNL     1     -12.304  13.607  64.553  1.00  0.00    -0.402 A  
HETATM   35  C   UNL     1     -11.817  13.094  65.789  1.00  0.00    -0.397 A  
HETATM   36  O   UNL     1     -11.741  11.749  65.973  1.00  0.00    -0.433 OA 
HETATM   37  C   UNL     1     -11.331  13.988  66.740  1.00  0.00    -0.334 A  
HETATM   38  H   UNL     1     -11.415  11.407  66.797  1.00  0.00     0.000 HD 
HETATM   39  C   UNL     1     -11.239  15.360  66.471  1.00  0.00    -0.162 A  
HETATM   40  C   UNL     1     -10.422  16.067  67.517  1.00  0.00    -0.297 C  
HETATM   41  C   UNL     1      -9.746  14.729  68.079  1.00  0.00    -0.213 C  
HETATM   42  C   UNL     1     -11.081  17.493  68.405  1.00  0.00     0.103 C  
HETATM   43  O   UNL     1     -10.716  13.656  67.937  1.00  0.00    -0.240 OA 
HETATM   44  C   UNL     1     -10.623  19.100  67.738  1.00  0.00    -0.403 C  
HETATM   45  N   UNL     1     -10.380  19.162  66.277  1.00  0.00    -0.444 NA 
BRANCH  45  46
HETATM   46  C   UNL     1      -9.144  19.671  65.709  1.00  0.00     0.075 C  
BRANCH  46  47
HETATM   47  C   UNL     1      -8.186  20.243  66.701  1.00  0.00    -0.294 C  
HETATM   48  C   UNL     1      -6.928  20.575  66.395  1.00  0.00    -0.284 C  
ENDBRANCH  46  47
ENDBRANCH  45  46
ENDBRANCH  23  24
ENDBRANCH  22  23
ENDBRANCH  21  22
ENDBRANCH  20  21
ENDBRANCH  19  20
ENDBRANCH  18  19
ENDBRANCH  17  18
ENDBRANCH  16  17
ENDBRANCH  15  16
ENDBRANCH  14  15
ENDBRANCH  13  14
ENDBRANCH  12  13
ENDBRANCH  11  12
ENDBRANCH  10  11
ENDBRANCH   9  10
ENDBRANCH   8   9
ENDBRANCH   7   8
ENDBRANCH   6   7
ENDBRANCH   5   6
ENDBRANCH   4   5
ENDBRANCH   3   4
ENDBRANCH   2   3
TORSDOF 24
ENDMDL
MODEL      156
REMARK 921   NORMALIZED FREE ENERGY PREDICTED BY IDOCK:   -2.25 KCAL/MOL
REMARK 922        TOTAL FREE ENERGY PREDICTED BY IDOCK:   -7.69 KCAL/MOL
REMARK 923 INTER-LIGAND FREE ENERGY PREDICTED BY IDOCK:   -6.29 KCAL/MOL
REMARK 924 INTRA-LIGAND FREE ENERGY PREDICTED BY IDOCK:   -1.40 KCAL/MOL
REMARK 927      BINDING AFFINITY PREDICTED BY RF-SCORE:    0.00 PKD
ROOT
HETATM    1  C   UNL     1     -11.980   8.553  72.952  1.00  0.00     0.143 C  
HETATM    2  O   UNL     1     -10.823   7.810  72.591  1.00  0.00    -0.292 OA 
ENDROOT
BRANCH   2   3
HETATM    3  C   UNL     1      -9.684   8.658  72.457  1.00  0.00    -0.188 C  
BRANCH   3   4
HETATM    4  C   UNL     1      -8.531   8.082  73.267  1.00  0.00    -0.224 C  
BRANCH   4   5
HETATM    5  O   UNL     1      -7.809   7.157  72.455  1.00  0.00    -0.091 OA 
BRANCH   5   6
HETATM    6  C   UNL     1      -7.818   5.855  73.035  1.00  0.00    -0.103 C  
BRANCH   6   7
HETATM    7  C   UNL     1      -8.743   4.952  72.236  1.00  0.00    -0.124 C  
BRANCH   7   8
HETATM    8  O   UNL     1      -9.425   5.747  71.270  1.00  0.00    -0.152 OA 
BRANCH   8   9
HETATM    9  C   UNL     1      -9.060   5.380  69.945  1.00  0.00    -0.135 C  
BRANCH   9  10
HETATM   10  C   UNL     1      -7.564   5.579  69.776  1.00  0.00    -0.074 C  
BRANCH  10  11
HETATM   11  O   UNL     1      -7.351   6.697  68.924  1.00  0.00    -0.088 OA 
BRANCH  11  12
HETATM   12  C   UNL     1      -6.582   7.703  69.573  1.00  0.00    -0.036 C  
BRANCH  12  13
HETATM   13  C   UNL     1      -6.446   8.889  68.634  1.00  0.00    -0.054 C  
BRANCH  13  14
HETATM   14  O   UNL     1      -5.925  10.000  69.351  1.00  0.00    -0.037 OA 
BRANCH  14  15
HETATM   15  C   UNL     1      -6.396  11.218  68.788  1.00  0.00    -0.051 C  
BRANCH  15  16
HETATM   16  C   UNL     1      -7.714  10.986  68.069  1.00  0.00    -0.106 C  
BRANCH  16  17
HETATM   17  O   UNL     1      -8.711  11.738  68.750  1.00  0.00    -0.099 OA 
BRANCH  17  18
HETATM   18  C   UNL     1     -10.018  11.455  68.280  1.00  0.00    -0.198 C  
BRANCH  18  19
HETATM   19  C   UNL     1     -10.735  10.665  69.359  1.00  0.00    -0.244 C  
BRANCH  19  20
HETATM   20  O   UNL     1     -12.131  10.922  69.296  1.00  0.00    -0.332 OA 
BRANCH  20  21
HETATM   21  C   UNL     1     -12.605  11.579  70.470  1.00  0.00    -0.201 C  
BRANCH  21  22
HETATM   22  C   UNL     1     -11.872  12.907  70.689  1.00  0.00     0.045 C  
BRANCH  22  23
HETATM   23  O   UNL     1     -12.716  14.050  70.980  1.00  0.00    -0.327 OA 
BRANCH  23  24
HETATM   24  C   UNL     1     -12.725  15.071  69.953  1.00  0.00    -0.090 C  
HETATM   25  C   UNL     1     -12.075  16.328  70.461  1.00  0.00     0.143 C  
HETATM   26  C   UNL     1     -10.468  16.431  70.172  1.00  0.00    -0.030 C  
HETATM   27  C   UNL     1      -9.888  16.114  68.663  1.00  0.00    -0.226 C  
HETATM   28  C   UNL     1      -9.254  17.051  67.437  1.00  0.00    -0.234 C  
HETATM   29  O   UNL     1      -9.057  14.959  68.846  1.00  0.00    -0.189 OA 
HETATM   30  C   UNL     1      -8.720  16.347  66.186  1.00  0.00    -0.347 C  
HETATM   31  H   UNL     1      -8.723  14.775  67.975  1.00  0.00     0.000 HD 
HETATM   32  C   UNL     1      -9.838  15.416  65.787  1.00  0.00    -0.399 A  
HETATM   33  C   UNL     1      -9.725  14.553  64.714  1.00  0.00     0.521 A  
HETATM   34  C   UNL     1     -10.596  13.485  64.560  1.00  0.00    -0.439 A  
HETATM   35  C   UNL     1     -11.613  13.240  65.526  1.00  0.00    -0.326 A  
HETATM   36  O   UNL     1     -12.295  12.064  65.498  1.00  0.00    -0.460 OA 
HETATM   37  C   UNL     1     -11.812  14.173  66.541  1.00  0.00    -0.419 A  
HETATM   38  H   UNL     1     -12.974  11.901  66.142  1.00  0.00     0.000 HD 
HETATM   39  C   UNL     1     -10.980  15.293  66.674  1.00  0.00    -0.297 A  
HETATM   40  C   UNL     1     -11.199  15.980  67.994  1.00  0.00    -0.303 C  
HETATM   41  C   UNL     1     -11.938  14.731  68.668  1.00  0.00    -0.257 C  
HETATM   42  C   UNL     1     -11.591  17.740  68.073  1.00  0.00     1.137 C  
HETATM   43  O   UNL     1     -12.669  14.038  67.621  1.00  0.00     0.226 OA 
HETATM   44  C   UNL     1     -10.189  18.833  68.350  1.00  0.00    -0.361 C  
HETATM   45  N   UNL     1      -8.879  18.370  67.833  1.00  0.00    -0.275 NA 
BRANCH  45  46
HETATM   46  C   UNL     1      -7.700  18.258  68.674  1.00  0.00    -0.302 C  
BRANCH  46  47
HETATM   47  C   UNL     1      -6.448  18.808  68.077  1.00  0.00    -0.227 C  
HETATM   48  C   UNL     1      -5.236  18.299  68.322  1.00  0.00    -0.167 C  
ENDBRANCH  46  47
ENDBRANCH  45  46
ENDBRANCH  23  24
ENDBRANCH  22  23
ENDBRANCH  21  22
ENDBRANCH  20  21
ENDBRANCH  19  20
ENDBRANCH  18  19
ENDBRANCH  17  18
ENDBRANCH  16  17
ENDBRANCH  15  16
ENDBRANCH  14  15
ENDBRANCH  13  14
ENDBRANCH  12  13
ENDBRANCH  11  12
ENDBRANCH  10  11
ENDBRANCH   9  10
ENDBRANCH   8   9
ENDBRANCH   7   8
ENDBRANCH   6   7
ENDBRANCH   5   6
ENDBRANCH   4   5
ENDBRANCH   3   4
ENDBRANCH   2   3
TORSDOF 24
ENDMDL
MODEL      157
REMARK 921   NORMALIZED FREE ENERGY PREDICTED BY IDOCK:   -2.15 KCAL/MOL
REMARK 922        TOTAL FREE ENERGY PREDICTED BY IDOCK:   -7.45 KCAL/MOL
REMARK 923 INTER-LIGAND FREE ENERGY PREDICTED BY IDOCK:   -7.48 KCAL/MOL
REMARK 924 INTRA-LIGAND FREE ENERGY PREDICTED BY IDOCK:    0.03 KCAL/MOL
REMARK 927      BINDING AFFINITY PREDICTED BY RF-SCORE:    0.00 PKD
ROOT
HETATM    1  C   UNL     1     -12.259  15.949  72.467  1.00  0.00    -0.500 C  
HETATM    2  O   UNL     1     -11.836  16.465  71.212  1.00  0.00    -0.372 OA 
ENDROOT
BRANCH   2   3
HETATM    3  C   UNL     1     -11.395  15.421  70.345  1.00  0.00    -0.327 C  
BRANCH   3   4
HETATM    4  C   UNL     1     -10.477  16.006  69.282  1.00  0.00    -0.257 C  
BRANCH   4   5
HETATM    5  O   UNL     1      -9.213  15.348  69.347  1.00  0.00    -0.255 OA 
BRANCH   5   6
HETATM    6  C   UNL     1      -9.295  14.029  68.813  1.00  0.00    -0.059 C  
BRANCH   6   7
HETATM    7  C   UNL     1      -8.148  13.192  69.352  1.00  0.00     0.875 C  
BRANCH   7   8
HETATM    8  O   UNL     1      -6.935  13.918  69.166  1.00  0.00    -0.111 OA 
BRANCH   8   9
HETATM    9  C   UNL     1      -5.798  13.106  69.435  1.00  0.00    -0.095 C  
BRANCH   9  10
HETATM   10  C   UNL     1      -5.623  12.114  68.299  1.00  0.00    -0.056 C  
BRANCH  10  11
HETATM   11  O   UNL     1      -6.060  12.728  67.093  1.00  0.00    -0.289 OA 
BRANCH  11  12
HETATM   12  C   UNL     1      -6.812  11.822  66.294  1.00  0.00     0.380 C  
BRANCH  12  13
HETATM   13  C   UNL     1      -6.129  10.466  66.327  1.00  0.00    -0.090 C  
BRANCH  13  14
HETATM   14  O   UNL     1      -5.837  10.053  64.999  1.00  0.00    -0.085 OA 
BRANCH  14  15
HETATM   15  C   UNL     1      -6.446   8.797  64.726  1.00  0.00    -0.066 C  
BRANCH  15  16
HETATM   16  C   UNL     1      -7.631   8.982  63.794  1.00  0.00    -0.115 C  
BRANCH  16  17
HETATM   17  O   UNL     1      -7.537  10.286  63.236  1.00  0.00    -0.149 OA 
BRANCH  17  18
HETATM   18  C   UNL     1      -8.603  10.573  62.346  1.00  0.00    -0.233 C  
BRANCH  18  19
HETATM   19  C   UNL     1      -9.609  11.430  63.091  1.00  0.00    -0.380 C  
BRANCH  19  20
HETATM   20  O   UNL     1     -10.437  10.606  63.900  1.00  0.00    -0.280 OA 
BRANCH  20  21
HETATM   21  C   UNL     1     -10.800  11.251  65.120  1.00  0.00    -0.200 C  
BRANCH  21  22
HETATM   22  C   UNL     1      -9.894  10.797  66.270  1.00  0.00    -0.215 C  
BRANCH  22  23
HETATM   23  O   UNL     1     -10.574  10.436  67.500  1.00  0.00    -0.223 OA 
BRANCH  23  24
HETATM   24  C   UNL     1      -9.733   9.789  68.486  1.00  0.00    -0.154 C  
HETATM   25  C   UNL     1     -10.333   9.931  69.857  1.00  0.00    -0.298 C  
HETATM   26  C   UNL     1     -11.329   8.710  70.297  1.00  0.00    -0.146 C  
HETATM   27  C   UNL     1     -10.845   7.148  70.097  1.00  0.00    -0.257 C  
HETATM   28  C   UNL     1     -10.370   5.933  71.135  1.00  0.00    -0.221 C  
HETATM   29  O   UNL     1     -11.777   6.614  69.146  1.00  0.00    -0.629 OA 
HETATM   30  C   UNL     1     -10.082   4.547  70.551  1.00  0.00    -0.233 C  
HETATM   31  H   UNL     1     -11.497   5.713  69.031  1.00  0.00     0.000 HD 
HETATM   32  C   UNL     1      -9.148   4.825  69.399  1.00  0.00    -0.152 A  
HETATM   33  C   UNL     1      -8.687   3.821  68.570  1.00  0.00    -0.134 A  
HETATM   34  C   UNL     1      -8.117   4.113  67.339  1.00  0.00    -0.099 A  
HETATM   35  C   UNL     1      -8.022   5.462  66.893  1.00  0.00    -0.101 A  
HETATM   36  O   UNL     1      -7.693   5.717  65.598  1.00  0.00    -0.087 OA 
HETATM   37  C   UNL     1      -8.369   6.485  67.771  1.00  0.00    -0.119 A  
HETATM   38  H   UNL     1      -7.629   6.618  65.300  1.00  0.00     0.000 HD 
HETATM   39  C   UNL     1      -8.887   6.208  69.044  1.00  0.00    -0.123 A  
HETATM   40  C   UNL     1      -9.458   7.445  69.681  1.00  0.00    -0.156 C  
HETATM   41  C   UNL     1      -9.551   8.265  68.310  1.00  0.00    -0.147 C  
HETATM   42  C   UNL     1      -8.919   7.982  71.318  1.00  0.00    -0.166 C  
HETATM   43  O   UNL     1      -8.448   7.835  67.467  1.00  0.00    -0.119 OA 
HETATM   44  C   UNL     1      -9.960   7.453  72.686  1.00  0.00    -0.194 C  
HETATM   45  N   UNL     1     -10.683   6.171  72.508  1.00  0.00    -0.213 NA 
BRANCH  45  46
HETATM   46  C   UNL     1     -12.123   6.056  72.657  1.00  0.00     0.020 C  
BRANCH  46  47
HETATM   47  C   UNL     1     -12.920   6.924  71.740  1.00  0.00    -0.326 C  
HETATM   48  C   UNL     1     -14.110   7.437  72.070  1.00  0.00    -0.327 C  
ENDBRANCH  46  47
ENDBRANCH  45  46
ENDBRANCH  23  24
ENDBRANCH  22  23
ENDBRANCH  21  22
ENDBRANCH  20  21
ENDBRANCH  19  20
ENDBRANCH  18  19
ENDBRANCH  17  18
ENDBRANCH  16  17
ENDBRANCH  15  16
ENDBRANCH  14  15
ENDBRANCH  13  14
ENDBRANCH  12  13
ENDBRANCH  11  12
ENDBRANCH  10  11
ENDBRANCH   9  10
ENDBRANCH   8   9
ENDBRANCH   7   8
ENDBRANCH   6   7
ENDBRANCH   5   6
ENDBRANCH   4   5
ENDBRANCH   3   4
ENDBRANCH   2   3
TORSDOF 24
ENDMDL
MODEL      158
REMARK 921   NORMALIZED FREE ENERGY PREDICTED BY IDOCK:   -2.00 KCAL/MOL
REMARK 922        TOTAL FREE ENERGY PREDICTED BY IDOCK:   -7.11 KCAL/MOL
REMARK 923 INTER-LIGAND FREE ENERGY PREDICTED BY IDOCK:   -7.35 KCAL/MOL
REMARK 924 INTRA-LIGAND FREE ENERGY PREDICTED BY IDOCK:    0.24 KCAL/MOL
REMARK 927      BINDING AFFINITY PREDICTED BY RF-SCORE:    0.00 PKD
ROOT
HETATM    1  C   UNL     1     -12.115  11.974  69.676  1.00  0.00    -0.230 C  
HETATM    2  O   UNL     1     -12.865  13.161  69.458  1.00  0.00     0.365 OA 
ENDROOT
BRANCH   2   3
HETATM    3  C   UNL     1     -12.041  14.321  69.558  1.00  0.00    -0.330 C  
BRANCH   3   4
HETATM    4  C   UNL     1     -11.427  14.620  68.198  1.00  0.00    -0.323 C  
BRANCH   4   5
HETATM    5  O   UNL     1     -10.285  15.457  68.378  1.00  0.00    -0.217 OA 
BRANCH   5   6
HETATM    6  C   UNL     1     -10.497  16.388  69.436  1.00  0.00    -0.309 C  
BRANCH   6   7
HETATM    7  C   UNL     1     -10.373  17.804  68.898  1.00  0.00    -0.300 C  
BRANCH   7   8
HETATM    8  O   UNL     1     -11.021  17.861  67.629  1.00  0.00    -0.310 OA 
BRANCH   8   9
HETATM    9  C   UNL     1     -10.081  18.037  66.575  1.00  0.00    -0.379 C  
BRANCH   9  10
HETATM   10  C   UNL     1     -10.104  19.490  66.135  1.00  0.00    -0.469 C  
BRANCH  10  11
HETATM   11  O   UNL     1      -8.787  19.867  65.756  1.00  0.00    -0.330 OA 
BRANCH  11  12
HETATM   12  C   UNL     1      -8.094  20.481  66.836  1.00  0.00    -0.219 C  
BRANCH  12  13
HETATM   13  C   UNL     1      -7.562  19.391  67.750  1.00  0.00    -0.267 C  
BRANCH  13  14
HETATM   14  O   UNL     1      -6.850  18.434  66.978  1.00  0.00    -0.187 OA 
BRANCH  14  15
HETATM   15  C   UNL     1      -6.504  17.310  67.778  1.00  0.00    -0.152 C  
BRANCH  15  16
HETATM   16  C   UNL     1      -5.633  17.746  68.944  1.00  0.00    -0.180 C  
BRANCH  16  17
HETATM   17  O   UNL     1      -5.794  16.787  69.981  1.00  0.00    -0.215 OA 
BRANCH  17  18
HETATM   18  C   UNL     1      -6.913  15.941  69.767  1.00  0.00    -0.072 C  
BRANCH  18  19
HETATM   19  C   UNL     1      -6.433  14.728  68.992  1.00  0.00    -0.096 C  
BRANCH  19  20
HETATM   20  O   UNL     1      -5.437  14.044  69.738  1.00  0.00    -0.092 OA 
BRANCH  20  21
HETATM   21  C   UNL     1      -5.999  13.291  70.812  1.00  0.00    -0.049 C  
BRANCH  21  22
HETATM   22  C   UNL     1      -5.976  11.791  70.499  1.00  0.00    -0.066 C  
BRANCH  22  23
HETATM   23  O   UNL     1      -6.478  11.415  69.190  1.00  0.00    -0.068 OA 
BRANCH  23  24
HETATM   24  C   UNL     1      -7.722  10.673  69.211  1.00  0.00    -0.142 C  
HETATM   25  C   UNL     1      -8.217  10.446  67.810  1.00  0.00    -0.110 C  
HETATM   26  C   UNL     1      -7.708   9.051  67.123  1.00  0.00    -0.099 C  
HETATM   27  C   UNL     1      -7.831   7.636  67.958  1.00  0.00    -0.121 C  
HETATM   28  C   UNL     1      -8.806   6.289  67.831  1.00  0.00    -0.112 C  
HETATM   29  O   UNL     1      -6.471   7.214  68.130  1.00  0.00    -0.041 OA 
HETATM   30  C   UNL     1      -8.536   5.105  68.764  1.00  0.00    -0.089 C  
HETATM   31  H   UNL     1      -6.542   6.398  68.612  1.00  0.00     0.000 HD 
HETATM   32  C   UNL     1      -8.461   5.732  70.135  1.00  0.00    -0.121 A  
HETATM   33  C   UNL     1      -8.176   4.990  71.265  1.00  0.00    -0.116 A  
HETATM   34  C   UNL     1      -7.780   5.604  72.444  1.00  0.00    -0.102 A  
HETATM   35  C   UNL     1      -7.632   7.019  72.503  1.00  0.00    -0.089 A  
HETATM   36  O   UNL     1      -7.014   7.584  73.575  1.00  0.00    -0.077 OA 
HETATM   37  C   UNL     1      -8.034   7.782  71.409  1.00  0.00    -0.095 A  
HETATM   38  H   UNL     1      -6.915   8.528  73.614  1.00  0.00     0.000 HD 
HETATM   39  C   UNL     1      -8.498   7.179  70.232  1.00  0.00    -0.138 A  
HETATM   40  C   UNL     1      -8.586   8.175  69.108  1.00  0.00    -0.136 C  
HETATM   41  C   UNL     1      -7.641   9.254  69.818  1.00  0.00    -0.082 C  
HETATM   42  C   UNL     1     -10.122   8.405  68.188  1.00  0.00    -0.239 C  
HETATM   43  O   UNL     1      -7.854   9.147  71.252  1.00  0.00    -0.276 OA 
HETATM   44  C   UNL     1     -10.250   7.476  66.653  1.00  0.00    -0.190 C  
HETATM   45  N   UNL     1      -9.520   6.188  66.598  1.00  0.00    -0.148 NA 
BRANCH  45  46
HETATM   46  C   UNL     1      -8.556   5.877  65.557  1.00  0.00    -0.150 C  
BRANCH  46  47
HETATM   47  C   UNL     1      -7.955   7.066  64.883  1.00  0.00    -0.127 C  
HETATM   48  C   UNL     1      -6.960   6.977  63.995  1.00  0.00    -0.056 C  
ENDBRANCH  46  47
ENDBRANCH  45  46
ENDBRANCH  23  24
ENDBRANCH  22  23
ENDBRANCH  21  22
ENDBRANCH  20  21
ENDBRANCH  19  20
ENDBRANCH  18  19
ENDBRANCH  17  18
ENDBRANCH  16  17
ENDBRANCH  15  16
ENDBRANCH  14  15
ENDBRANCH  13  14
ENDBRANCH  12  13
ENDBRANCH  11  12
ENDBRANCH  10  11
ENDBRANCH   9  10
ENDBRANCH   8   9
ENDBRANCH   7   8
ENDBRANCH   6   7
ENDBRANCH   5   6
ENDBRANCH   4   5
ENDBRANCH   3   4
ENDBRANCH   2   3
TORSDOF 24
ENDMDL
MODEL      159
REMARK 921   NORMALIZED FREE ENERGY PREDICTED BY IDOCK:   -1.93 KCAL/MOL
REMARK 922        TOTAL FREE ENERGY PREDICTED BY IDOCK:   -6.94 KCAL/MOL
REMARK 923 INTER-LIGAND FREE ENERGY PREDICTED BY IDOCK:   -5.64 KCAL/MOL
REMARK 924 INTRA-LIGAND FREE ENERGY PREDICTED BY IDOCK:   -1.29 KCAL/MOL
REMARK 927      BINDING AFFINITY PREDICTED BY RF-SCORE:    0.00 PKD
ROOT
HETATM    1  C   UNL     1     -11.298  15.928  64.731  1.00  0.00    -0.309 C  
HETATM    2  O   UNL     1     -11.094  17.330  64.615  1.00  0.00    -1.052 OA 
ENDROOT
BRANCH   2   3
HETATM    3  C   UNL     1     -10.533  17.872  65.809  1.00  0.00    -0.196 C  
BRANCH   3   4
HETATM    4  C   UNL     1     -10.835  19.362  65.876  1.00  0.00    -0.306 C  
BRANCH   4   5
HETATM    5  O   UNL     1     -10.285  19.895  67.080  1.00  0.00    -0.402 OA 
BRANCH   5   6
HETATM    6  C   UNL     1      -8.959  20.371  66.867  1.00  0.00    -0.266 C  
BRANCH   6   7
HETATM    7  C   UNL     1      -8.082  19.970  68.042  1.00  0.00    -0.235 C  
BRANCH   7   8
HETATM    8  O   UNL     1      -6.992  20.885  68.122  1.00  0.00    -0.205 OA 
BRANCH   8   9
HETATM    9  C   UNL     1      -5.745  20.202  68.182  1.00  0.00    -0.226 C  
BRANCH   9  10
HETATM   10  C   UNL     1      -5.920  18.932  68.997  1.00  0.00    -0.225 C  
BRANCH  10  11
HETATM   11  O   UNL     1      -5.608  17.819  68.170  1.00  0.00    -0.149 OA 
BRANCH  11  12
HETATM   12  C   UNL     1      -6.645  16.846  68.200  1.00  0.00    -0.145 C  
BRANCH  12  13
HETATM   13  C   UNL     1      -7.111  16.680  69.636  1.00  0.00     0.072 C  
BRANCH  13  14
HETATM   14  O   UNL     1      -8.524  16.816  69.691  1.00  0.00     0.257 OA 
BRANCH  14  15
HETATM   15  C   UNL     1      -9.151  15.801  68.916  1.00  0.00    -0.225 C  
BRANCH  15  16
HETATM   16  C   UNL     1     -10.416  15.322  69.607  1.00  0.00    -0.270 C  
BRANCH  16  17
HETATM   17  O   UNL     1     -10.304  15.657  70.984  1.00  0.00     0.113 OA 
BRANCH  17  18
HETATM   18  C   UNL     1     -11.029  14.769  71.818  1.00  0.00     0.696 C  
BRANCH  18  19
HETATM   19  C   UNL     1     -11.409  13.559  70.985  1.00  0.00     1.333 C  
BRANCH  19  20
HETATM   20  O   UNL     1     -12.434  12.826  71.641  1.00  0.00    -0.143 OA 
BRANCH  20  21
HETATM   21  C   UNL     1     -12.695  11.581  70.995  1.00  0.00    -0.328 C  
BRANCH  21  22
HETATM   22  C   UNL     1     -11.588  11.244  69.990  1.00  0.00    -0.321 C  
BRANCH  22  23
HETATM   23  O   UNL     1     -10.848  10.024  70.255  1.00  0.00    -0.272 OA 
BRANCH  23  24
HETATM   24  C   UNL     1     -11.050   8.972  69.281  1.00  0.00     0.060 C  
HETATM   25  C   UNL     1     -10.466   9.369  67.955  1.00  0.00    -0.296 C  
HETATM   26  C   UNL     1      -8.911   8.912  67.728  1.00  0.00    -0.140 C  
HETATM   27  C   UNL     1      -8.459   7.363  68.056  1.00  0.00    -0.123 C  
HETATM   28  C   UNL     1      -8.036   6.049  67.120  1.00  0.00    -0.106 C  
HETATM   29  O   UNL     1      -7.516   7.496  69.129  1.00  0.00    -0.093 OA 
HETATM   30  C   UNL     1      -7.570   4.772  67.826  1.00  0.00    -0.082 C  
HETATM   31  H   UNL     1      -7.255   6.602  69.318  1.00  0.00     0.000 HD 
HETATM   32  C   UNL     1      -8.636   4.521  68.864  1.00  0.00    -0.101 A  
HETATM   33  C   UNL     1      -8.555   3.470  69.758  1.00  0.00    -0.107 A  
HETATM   34  C   UNL     1      -9.340   3.441  70.901  1.00  0.00    -0.219 A  
HETATM   35  C   UNL     1     -10.229   4.514  71.191  1.00  0.00    -0.092 A  
HETATM   36  O   UNL     1     -10.805   4.594  72.421  1.00  0.00    -0.162 OA 
HETATM   37  C   UNL     1     -10.407   5.514  70.238  1.00  0.00    -0.279 A  
HETATM   38  H   UNL     1     -11.398   5.310  72.614  1.00  0.00     0.000 HD 
HETATM   39  C   UNL     1      -9.668   5.524  69.047  1.00  0.00    -0.195 A  
HETATM   40  C   UNL     1      -9.813   6.837  68.327  1.00  0.00    -0.144 C  
HETATM   41  C   UNL     1     -10.368   7.624  69.606  1.00  0.00    -0.213 C  
HETATM   42  C   UNL     1     -10.349   6.900  66.605  1.00  0.00    -0.214 C  
HETATM   43  O   UNL     1     -11.137   6.680  70.401  1.00  0.00    -0.273 OA 
HETATM   44  C   UNL     1      -9.028   6.996  65.387  1.00  0.00     0.214 C  
HETATM   45  N   UNL     1      -7.741   6.362  65.758  1.00  0.00    -0.088 NA 
BRANCH  45  46
HETATM   46  C   UNL     1      -6.479   7.080  65.737  1.00  0.00    -0.051 C  
BRANCH  46  47
HETATM   47  C   UNL     1      -6.485   8.336  64.930  1.00  0.00    -0.056 C  
HETATM   48  C   UNL     1      -6.490   8.346  63.593  1.00  0.00    -0.076 C  
ENDBRANCH  46  47
ENDBRANCH  45  46
ENDBRANCH  23  24
ENDBRANCH  22  23
ENDBRANCH  21  22
ENDBRANCH  20  21
ENDBRANCH  19  20
ENDBRANCH  18  19
ENDBRANCH  17  18
ENDBRANCH  16  17
ENDBRANCH  15  16
ENDBRANCH  14  15
ENDBRANCH  13  14
ENDBRANCH  12  13
ENDBRANCH  11  12
ENDBRANCH  10  11
ENDBRANCH   9  10
ENDBRANCH   8   9
ENDBRANCH   7   8
ENDBRANCH   6   7
ENDBRANCH   5   6
ENDBRANCH   4   5
ENDBRANCH   3   4
ENDBRANCH   2   3
TORSDOF 24
ENDMDL
MODEL      160
REMARK 921   NORMALIZED FREE ENERGY PREDICTED BY IDOCK:   -1.90 KCAL/MOL
REMARK 922        TOTAL FREE ENERGY PREDICTED BY IDOCK:   -6.86 KCAL/MOL
REMARK 923 INTER-LIGAND FREE ENERGY PREDICTED BY IDOCK:   -5.25 KCAL/MOL
REMARK 924 INTRA-LIGAND FREE ENERGY PREDICTED BY IDOCK:   -1.61 KCAL/MOL
REMARK 927      BINDING AFFINITY PREDICTED BY RF-SCORE:    0.00 PKD
ROOT
HETATM    1  C   UNL     1     -11.155   4.816  73.448  1.00  0.00    -0.344 C  
HETATM    2  O   UNL     1     -10.090   4.088  72.852  1.00  0.00    -0.141 OA 
ENDROOT
BRANCH   2   3
HETATM    3  C   UNL     1      -9.458   3.227  73.798  1.00  0.00    -0.095 C  
BRANCH   3   4
HETATM    4  C   UNL     1      -7.959   3.485  73.789  1.00  0.00    -0.074 C  
BRANCH   4   5
HETATM    5  O   UNL     1      -7.650   4.399  72.737  1.00  0.00    -0.077 OA 
BRANCH   5   6
HETATM    6  C   UNL     1      -6.527   3.949  71.984  1.00  0.00    -0.015 C  
BRANCH   6   7
HETATM    7  C   UNL     1      -6.829   2.582  71.393  1.00  0.00    -0.031 C  
BRANCH   7   8
HETATM    8  O   UNL     1      -7.733   2.752  70.304  1.00  0.00    -0.043 OA 
BRANCH   8   9
HETATM    9  C   UNL     1      -8.088   1.502  69.724  1.00  0.00    -0.041 C  
BRANCH   9  10
HETATM   10  C   UNL     1      -8.431   1.720  68.261  1.00  0.00    -0.061 C  
BRANCH  10  11
HETATM   11  O   UNL     1      -9.647   2.452  68.187  1.00  0.00    -0.207 OA 
BRANCH  11  12
HETATM   12  C   UNL     1      -9.719   3.215  66.988  1.00  0.00     0.170 C  
BRANCH  12  13
HETATM   13  C   UNL     1      -8.453   2.974  66.184  1.00  0.00    -0.107 C  
BRANCH  13  14
HETATM   14  O   UNL     1      -8.426   3.855  65.070  1.00  0.00    -0.107 OA 
BRANCH  14  15
HETATM   15  C   UNL     1      -7.586   4.970  65.341  1.00  0.00    -0.085 C  
BRANCH  15  16
HETATM   16  C   UNL     1      -8.313   6.264  65.017  1.00  0.00    -0.099 C  
BRANCH  16  17
HETATM   17  O   UNL     1      -7.328   7.246  64.724  1.00  0.00    -0.071 OA 
BRANCH  17  18
HETATM   18  C   UNL     1      -7.831   8.290  63.906  1.00  0.00    -0.147 C  
BRANCH  18  19
HETATM   19  C   UNL     1      -7.083   9.560  64.264  1.00  0.00    -0.108 C  
BRANCH  19  20
HETATM   20  O   UNL     1      -7.937  10.684  64.102  1.00  0.00    -0.054 OA 
BRANCH  20  21
HETATM   21  C   UNL     1      -9.270  10.405  64.526  1.00  0.00    -0.246 C  
BRANCH  21  22
HETATM   22  C   UNL     1      -9.824  11.553  65.377  1.00  0.00    -0.235 C  
BRANCH  22  23
HETATM   23  O   UNL     1     -11.012  11.245  66.151  1.00  0.00    -0.266 OA 
BRANCH  23  24
HETATM   24  C   UNL     1     -10.820  11.268  67.587  1.00  0.00    -0.238 C  
HETATM   25  C   UNL     1     -11.399  10.029  68.210  1.00  0.00    -0.117 C  
HETATM   26  C   UNL     1     -10.349   8.784  68.360  1.00  0.00    -0.242 C  
HETATM   27  C   UNL     1      -8.856   9.047  69.006  1.00  0.00    -0.136 C  
HETATM   28  C   UNL     1      -8.128   8.655  70.454  1.00  0.00    -0.107 C  
HETATM   29  O   UNL     1      -7.955   8.745  67.932  1.00  0.00    -0.105 OA 
HETATM   30  C   UNL     1      -6.649   9.003  70.642  1.00  0.00    -0.060 C  
HETATM   31  H   UNL     1      -7.093   8.897  68.305  1.00  0.00     0.000 HD 
HETATM   32  C   UNL     1      -6.562  10.454  70.238  1.00  0.00    -0.141 A  
HETATM   33  C   UNL     1      -5.363  11.140  70.219  1.00  0.00    -0.092 A  
HETATM   34  C   UNL     1      -5.236  12.342  69.539  1.00  0.00    -0.072 A  
HETATM   35  C   UNL     1      -6.340  12.882  68.819  1.00  0.00    -0.080 A  
HETATM   36  O   UNL     1      -6.139  13.920  67.964  1.00  0.00    -0.114 OA 
HETATM   37  C   UNL     1      -7.582  12.263  68.934  1.00  0.00     0.021 A  
HETATM   38  H   UNL     1      -6.875  14.280  67.483  1.00  0.00     0.000 HD 
HETATM   39  C   UNL     1      -7.742  11.081  69.671  1.00  0.00     0.139 A  
HETATM   40  C   UNL     1      -9.082  10.451  69.406  1.00  0.00    -0.170 C  
HETATM   41  C   UNL     1      -9.350  11.278  68.062  1.00  0.00    -0.166 C  
HETATM   42  C   UNL     1     -10.203  10.046  70.761  1.00  0.00     0.024 C  
HETATM   43  O   UNL     1      -8.725  12.581  68.218  1.00  0.00    -0.183 OA 
HETATM   44  C   UNL     1     -10.126   8.347  71.347  1.00  0.00    -0.215 C  
HETATM   45  N   UNL     1      -8.818   7.663  71.215  1.00  0.00    -0.132 NA 
BRANCH  45  46
HETATM   46  C   UNL     1      -8.663   6.394  70.526  1.00  0.00    -0.144 C  
BRANCH  46  47
HETATM   47  C   UNL     1      -9.650   6.150  69.433  1.00  0.00    -0.159 C  
HETATM   48  C   UNL     1     -10.819   5.530  69.629  1.00  0.00    -0.279 C  
ENDBRANCH  46  47
ENDBRANCH  45  46
ENDBRANCH  23  24
ENDBRANCH  22  23
ENDBRANCH  21  22
ENDBRANCH  20  21
ENDBRANCH  19  20
ENDBRANCH  18  19
ENDBRANCH  17  18
ENDBRANCH  16  17
ENDBRANCH  15  16
ENDBRANCH  14  15
ENDBRANCH  13  14
ENDBRANCH  12  13
ENDBRANCH  11  12
ENDBRANCH  10  11
ENDBRANCH   9  10
ENDBRANCH   8   9
ENDBRANCH   7   8
ENDBRANCH   6   7
ENDBRANCH   5   6
ENDBRANCH   4   5
ENDBRANCH   3   4
ENDBRANCH   2   3
TORSDOF 24
ENDMDL
MODEL      161
REMARK 921   NORMALIZED FREE ENERGY PREDICTED BY IDOCK:   -1.88 KCAL/MOL
REMARK 922        TOTAL FREE ENERGY PREDICTED BY IDOCK:   -6.80 KCAL/MOL
REMARK 923 INTER-LIGAND FREE ENERGY PREDICTED BY IDOCK:   -7.55 KCAL/MOL
REMARK 924 INTRA-LIGAND FREE ENERGY PREDICTED BY IDOCK:    0.75 KCAL/MOL
REMARK 927      BINDING AFFINITY PREDICTED BY RF-SCORE:    0.00 PKD
ROOT
HETATM    1  C   UNL     1     -11.612  14.851  65.761  1.00  0.00    -0.234 C  
HETATM    2  O   UNL     1     -12.446  14.082  66.617  1.00  0.00    -0.420 OA 
ENDROOT
BRANCH   2   3
HETATM    3  C   UNL     1     -11.800  13.807  67.859  1.00  0.00    -0.378 C  
BRANCH   3   4
HETATM    4  C   UNL     1     -11.878  15.039  68.749  1.00  0.00    -0.301 C  
BRANCH   4   5
HETATM    5  O   UNL     1     -10.763  15.885  68.471  1.00  0.00    -0.249 OA 
BRANCH   5   6
HETATM    6  C   UNL     1     -10.309  16.536  69.655  1.00  0.00    -0.221 C  
BRANCH   6   7
HETATM    7  C   UNL     1      -8.848  16.192  69.894  1.00  0.00     0.607 C  
BRANCH   7   8
HETATM    8  O   UNL     1      -8.564  14.956  69.241  1.00  0.00    -0.175 OA 
BRANCH   8   9
HETATM    9  C   UNL     1      -7.771  15.155  68.077  1.00  0.00    -0.124 C  
BRANCH   9  10
HETATM   10  C   UNL     1      -7.201  13.818  67.637  1.00  0.00    -0.173 C  
BRANCH  10  11
HETATM   11  O   UNL     1      -7.371  12.885  68.696  1.00  0.00    -0.107 OA 
BRANCH  11  12
HETATM   12  C   UNL     1      -6.226  12.846  69.540  1.00  0.00    -0.118 C  
BRANCH  12  13
HETATM   13  C   UNL     1      -6.005  11.412  69.989  1.00  0.00    -0.135 C  
BRANCH  13  14
HETATM   14  O   UNL     1      -5.148  10.756  69.065  1.00  0.00    -0.042 OA 
BRANCH  14  15
HETATM   15  C   UNL     1      -5.879  10.350  67.914  1.00  0.00    -0.044 C  
BRANCH  15  16
HETATM   16  C   UNL     1      -5.242  10.925  66.661  1.00  0.00    -0.075 C  
BRANCH  16  17
HETATM   17  O   UNL     1      -5.958  10.413  65.544  1.00  0.00    -0.100 OA 
BRANCH  17  18
HETATM   18  C   UNL     1      -7.159  11.126  65.299  1.00  0.00     0.547 C  
BRANCH  18  19
HETATM   19  C   UNL     1      -8.294  10.119  65.261  1.00  0.00    -0.159 C  
BRANCH  19  20
HETATM   20  O   UNL     1      -9.522  10.788  65.008  1.00  0.00    -0.210 OA 
BRANCH  20  21
HETATM   21  C   UNL     1     -10.185  11.158  66.215  1.00  0.00    -0.239 C  
BRANCH  21  22
HETATM   22  C   UNL     1      -9.244  11.031  67.418  1.00  0.00    -0.151 C  
BRANCH  22  23
HETATM   23  O   UNL     1      -9.807  10.390  68.591  1.00  0.00    -0.163 OA 
BRANCH  23  24
HETATM   24  C   UNL     1     -10.529   9.164  68.322  1.00  0.00    -0.208 C  
HETATM   25  C   UNL     1      -9.933   8.457  67.137  1.00  0.00    -0.304 C  
HETATM   26  C   UNL     1      -8.765   7.371  67.506  1.00  0.00    -0.124 C  
HETATM   27  C   UNL     1      -9.024   6.266  68.700  1.00  0.00    -0.127 C  
HETATM   28  C   UNL     1      -9.302   4.622  68.726  1.00  0.00    -0.140 C  
HETATM   29  O   UNL     1      -8.041   6.590  69.693  1.00  0.00    -0.120 OA 
HETATM   30  C   UNL     1      -9.399   3.922  70.085  1.00  0.00    -0.241 C  
HETATM   31  H   UNL     1      -8.191   5.953  70.382  1.00  0.00     0.000 HD 
HETATM   32  C   UNL     1     -10.383   4.764  70.859  1.00  0.00    -0.187 A  
HETATM   33  C   UNL     1     -10.708   4.488  72.173  1.00  0.00    -0.067 A  
HETATM   34  C   UNL     1     -11.334   5.436  72.969  1.00  0.00    -0.355 A  
HETATM   35  C   UNL     1     -11.630   6.729  72.452  1.00  0.00    -0.245 A  
HETATM   36  O   UNL     1     -12.013   7.720  73.301  1.00  0.00    -0.602 OA 
HETATM   37  C   UNL     1     -11.417   6.974  71.097  1.00  0.00    -0.294 A  
HETATM   38  H   UNL     1     -12.210   8.583  72.956  1.00  0.00     0.000 HD 
HETATM   39  C   UNL     1     -10.844   6.004  70.263  1.00  0.00    -0.398 A  
HETATM   40  C   UNL     1     -10.446   6.593  68.937  1.00  0.00    -0.239 C  
HETATM   41  C   UNL     1     -10.494   8.108  69.449  1.00  0.00    -0.220 C  
HETATM   42  C   UNL     1     -11.029   5.874  67.388  1.00  0.00    -0.258 C  
HETATM   43  O   UNL     1     -11.538   8.197  70.457  1.00  0.00    -0.238 OA 
HETATM   44  C   UNL     1      -9.900   4.715  66.601  1.00  0.00    -0.221 C  
HETATM   45  N   UNL     1      -9.004   3.951  67.501  1.00  0.00    -0.123 NA 
BRANCH  45  46
HETATM   46  C   UNL     1      -7.560   3.941  67.346  1.00  0.00    -0.072 C  
BRANCH  46  47
HETATM   47  C   UNL     1      -7.071   4.362  66.000  1.00  0.00    -0.071 C  
HETATM   48  C   UNL     1      -6.072   5.234  65.825  1.00  0.00    -0.033 C  
ENDBRANCH  46  47
ENDBRANCH  45  46
ENDBRANCH  23  24
ENDBRANCH  22  23
ENDBRANCH  21  22
ENDBRANCH  20  21
ENDBRANCH  19  20
ENDBRANCH  18  19
ENDBRANCH  17  18
ENDBRANCH  16  17
ENDBRANCH  15  16
ENDBRANCH  14  15
ENDBRANCH  13  14
ENDBRANCH  12  13
ENDBRANCH  11  12
ENDBRANCH  10  11
ENDBRANCH   9  10
ENDBRANCH   8   9
ENDBRANCH   7   8
ENDBRANCH   6   7
ENDBRANCH   5   6
ENDBRANCH   4   5
ENDBRANCH   3   4
ENDBRANCH   2   3
TORSDOF 24
ENDMDL
MODEL      162
REMARK 921   NORMALIZED FREE ENERGY PREDICTED BY IDOCK:   -1.70 KCAL/MOL
REMARK 922        TOTAL FREE ENERGY PREDICTED BY IDOCK:   -6.38 KCAL/MOL
REMARK 923 INTER-LIGAND FREE ENERGY PREDICTED BY IDOCK:   -7.21 KCAL/MOL
REMARK 924 INTRA-LIGAND FREE ENERGY PREDICTED BY IDOCK:    0.83 KCAL/MOL
REMARK 927      BINDING AFFINITY PREDICTED BY RF-SCORE:    0.00 PKD
ROOT
HETATM    1  C   UNL     1     -11.753  15.401  64.486  1.00  0.00    -0.277 C  
HETATM    2  O   UNL     1     -12.061  14.754  65.713  1.00  0.00    -0.247 OA 
ENDROOT
BRANCH   2   3
HETATM    3  C   UNL     1     -10.997  14.893  66.653  1.00  0.00    -0.325 C  
BRANCH   3   4
HETATM    4  C   UNL     1     -11.358  15.968  67.667  1.00  0.00    -0.109 C  
BRANCH   4   5
HETATM    5  O   UNL     1     -10.519  17.104  67.459  1.00  0.00    -0.337 OA 
BRANCH   5   6
HETATM    6  C   UNL     1      -9.798  17.429  68.644  1.00  0.00    -0.322 C  
BRANCH   6   7
HETATM    7  C   UNL     1      -8.323  17.589  68.311  1.00  0.00    -0.265 C  
BRANCH   7   8
HETATM    8  O   UNL     1      -8.058  16.889  67.098  1.00  0.00    -0.173 OA 
BRANCH   8   9
HETATM    9  C   UNL     1      -7.485  15.611  67.350  1.00  0.00    -0.205 C  
BRANCH   9  10
HETATM   10  C   UNL     1      -7.553  15.329  68.841  1.00  0.00    -0.152 C  
BRANCH  10  11
HETATM   11  O   UNL     1      -6.542  14.385  69.167  1.00  0.00    -0.099 OA 
BRANCH  11  12
HETATM   12  C   UNL     1      -5.391  14.555  68.348  1.00  0.00    -0.109 C  
BRANCH  12  13
HETATM   13  C   UNL     1      -5.246  13.333  67.458  1.00  0.00     0.054 C  
BRANCH  13  14
HETATM   14  O   UNL     1      -6.041  12.276  67.976  1.00  0.00    -0.057 OA 
BRANCH  14  15
HETATM   15  C   UNL     1      -5.871  11.099  67.195  1.00  0.00    -0.072 C  
BRANCH  15  16
HETATM   16  C   UNL     1      -6.892  11.067  66.070  1.00  0.00    -0.017 C  
BRANCH  16  17
HETATM   17  O   UNL     1      -8.183  11.121  66.663  1.00  0.00    -0.147 OA 
BRANCH  17  18
HETATM   18  C   UNL     1      -8.979  12.168  66.132  1.00  0.00    -0.043 C  
BRANCH  18  19
HETATM   19  C   UNL     1     -10.302  11.566  65.695  1.00  0.00    -0.261 C  
BRANCH  19  20
HETATM   20  O   UNL     1     -10.462  10.281  66.280  1.00  0.00    -0.215 OA 
BRANCH  20  21
HETATM   21  C   UNL     1     -11.076  10.354  67.565  1.00  0.00    -0.267 C  
BRANCH  21  22
HETATM   22  C   UNL     1     -10.322   9.489  68.582  1.00  0.00    -0.205 C  
BRANCH  22  23
HETATM   23  O   UNL     1      -9.424   8.498  68.020  1.00  0.00    -0.139 OA 
BRANCH  23  24
HETATM   24  C   UNL     1      -9.940   7.145  68.022  1.00  0.00    -0.158 C  
HETATM   25  C   UNL     1      -9.014   6.232  67.269  1.00  0.00    -0.113 C  
HETATM   26  C   UNL     1      -7.869   5.510  68.187  1.00  0.00    -0.092 C  
HETATM   27  C   UNL     1      -8.297   4.774  69.598  1.00  0.00    -0.078 C  
HETATM   28  C   UNL     1      -8.414   3.187  70.096  1.00  0.00    -0.053 C  
HETATM   29  O   UNL     1      -7.613   5.532  70.606  1.00  0.00    -0.084 OA 
HETATM   30  C   UNL     1      -8.763   2.907  71.560  1.00  0.00    -0.112 C  
HETATM   31  H   UNL     1      -7.861   5.107  71.420  1.00  0.00     0.000 HD 
HETATM   32  C   UNL     1      -9.979   3.764  71.814  1.00  0.00    -0.227 A  
HETATM   33  C   UNL     1     -10.579   3.833  73.057  1.00  0.00    -0.253 A  
HETATM   34  C   UNL     1     -11.465   4.855  73.367  1.00  0.00    -0.306 A  
HETATM   35  C   UNL     1     -11.752   5.873  72.415  1.00  0.00    -0.253 A  
HETATM   36  O   UNL     1     -12.420   6.990  72.809  1.00  0.00    -0.315 OA 
HETATM   37  C   UNL     1     -11.248   5.743  71.123  1.00  0.00    -0.141 A  
HETATM   38  H   UNL     1     -12.611   7.670  72.173  1.00  0.00     0.000 HD 
HETATM   39  C   UNL     1     -10.403   4.682  70.773  1.00  0.00    -0.126 A  
HETATM   40  C   UNL     1      -9.759   4.916  69.434  1.00  0.00    -0.261 C  
HETATM   41  C   UNL     1     -10.073   6.485  69.413  1.00  0.00    -0.172 C  
HETATM   42  C   UNL     1      -9.884   3.690  68.115  1.00  0.00     0.027 C  
HETATM   43  O   UNL     1     -11.330   6.689  70.113  1.00  0.00    -0.327 OA 
HETATM   44  C   UNL     1      -8.495   2.555  67.979  1.00  0.00    -0.076 C  
HETATM   45  N   UNL     1      -7.769   2.247  69.234  1.00  0.00    -0.043 NA 
BRANCH  45  46
HETATM   46  C   UNL     1      -6.336   2.431  69.377  1.00  0.00    -0.029 C  
BRANCH  46  47
HETATM   47  C   UNL     1      -5.873   2.696  70.771  1.00  0.00    -0.017 C  
HETATM   48  C   UNL     1      -6.151   1.888  71.799  1.00  0.00    -0.014 C  
ENDBRANCH  46  47
ENDBRANCH  45  46
ENDBRANCH  23  24
ENDBRANCH  22  23
ENDBRANCH  21  22
ENDBRANCH  20  21
ENDBRANCH  19  20
ENDBRANCH  18  19
ENDBRANCH  17  18
ENDBRANCH  16  17
ENDBRANCH  15  16
ENDBRANCH  14  15
ENDBRANCH  13  14
ENDBRANCH  12  13
ENDBRANCH  11  12
ENDBRANCH  10  11
ENDBRANCH   9  10
ENDBRANCH   8   9
ENDBRANCH   7   8
ENDBRANCH   6   7
ENDBRANCH   5   6
ENDBRANCH   4   5
ENDBRANCH   3   4
ENDBRANCH   2   3
TORSDOF 24
ENDMDL
MODEL      163
REMARK 921   NORMALIZED FREE ENERGY PREDICTED BY IDOCK:   -1.68 KCAL/MOL
REMARK 922        TOTAL FREE ENERGY PREDICTED BY IDOCK:   -6.33 KCAL/MOL
REMARK 923 INTER-LIGAND FREE ENERGY PREDICTED BY IDOCK:   -7.17 KCAL/MOL
REMARK 924 INTRA-LIGAND FREE ENERGY PREDICTED BY IDOCK:    0.84 KCAL/MOL
REMARK 927      BINDING AFFINITY PREDICTED BY RF-SCORE:    0.00 PKD
ROOT
HETATM    1  C   UNL     1      -6.075  15.126  68.783  1.00  0.00    -0.087 C  
HETATM    2  O   UNL     1      -6.322  13.834  68.246  1.00  0.00    -0.086 OA 
ENDROOT
BRANCH   2   3
HETATM    3  C   UNL     1      -5.130  13.052  68.208  1.00  0.00    -0.079 C  
BRANCH   3   4
HETATM    4  C   UNL     1      -5.275  11.869  69.154  1.00  0.00    -0.051 C  
BRANCH   4   5
HETATM    5  O   UNL     1      -6.511  11.984  69.857  1.00  0.00    -0.121 OA 
BRANCH   5   6
HETATM    6  C   UNL     1      -7.395  10.920  69.513  1.00  0.00    -0.093 C  
BRANCH   6   7
HETATM    7  C   UNL     1      -8.509  11.453  68.627  1.00  0.00    -0.131 C  
BRANCH   7   8
HETATM    8  O   UNL     1      -9.757  11.020  69.164  1.00  0.00    -0.173 OA 
BRANCH   8   9
HETATM    9  C   UNL     1     -10.849  11.499  68.389  1.00  0.00    -0.211 C  
BRANCH   9  10
HETATM   10  C   UNL     1     -11.778  12.295  69.289  1.00  0.00    -0.330 C  
BRANCH  10  11
HETATM   11  O   UNL     1     -11.457  13.674  69.159  1.00  0.00    -0.261 OA 
BRANCH  11  12
HETATM   12  C   UNL     1     -12.284  14.309  68.190  1.00  0.00    -0.129 C  
BRANCH  12  13
HETATM   13  C   UNL     1     -11.734  14.000  66.809  1.00  0.00    -0.407 C  
BRANCH  13  14
HETATM   14  O   UNL     1     -12.738  13.358  66.035  1.00  0.00    -0.354 OA 
BRANCH  14  15
HETATM   15  C   UNL     1     -12.156  12.380  65.181  1.00  0.00    -0.405 C  
BRANCH  15  16
HETATM   16  C   UNL     1     -11.684  13.027  63.891  1.00  0.00    -0.468 C  
BRANCH  16  17
HETATM   17  O   UNL     1     -10.311  13.360  64.056  1.00  0.00    -0.336 OA 
BRANCH  17  18
HETATM   18  C   UNL     1      -9.473  12.216  64.050  1.00  0.00     0.165 C  
BRANCH  18  19
HETATM   19  C   UNL     1     -10.326  11.016  64.416  1.00  0.00    -0.358 C  
BRANCH  19  20
HETATM   20  O   UNL     1      -9.637   9.818  64.085  1.00  0.00    -0.213 OA 
BRANCH  20  21
HETATM   21  C   UNL     1      -9.393   9.009  65.235  1.00  0.00    -0.088 C  
BRANCH  21  22
HETATM   22  C   UNL     1      -8.829   7.642  64.833  1.00  0.00     0.356 C  
BRANCH  22  23
HETATM   23  O   UNL     1      -7.395   7.485  64.985  1.00  0.00    -0.070 OA 
BRANCH  23  24
HETATM   24  C   UNL     1      -6.972   7.033  66.294  1.00  0.00    -0.069 C  
HETATM   25  C   UNL     1      -7.248   8.091  67.325  1.00  0.00    -0.087 C  
HETATM   26  C   UNL     1      -8.709   7.972  68.053  1.00  0.00    -0.125 C  
HETATM   27  C   UNL     1      -9.210   6.518  68.645  1.00  0.00    -0.127 C  
HETATM   28  C   UNL     1      -9.402   5.888  70.177  1.00  0.00    -0.156 C  
HETATM   29  O   UNL     1     -10.370   6.205  67.861  1.00  0.00    -0.159 OA 
HETATM   30  C   UNL     1     -10.004   4.486  70.317  1.00  0.00    -0.288 C  
HETATM   31  H   UNL     1     -10.659   5.366  68.203  1.00  0.00     0.000 HD 
HETATM   32  C   UNL     1      -9.194   3.646  69.360  1.00  0.00    -0.225 A  
HETATM   33  C   UNL     1      -9.464   2.307  69.153  1.00  0.00    -0.143 A  
HETATM   34  C   UNL     1      -8.954   1.636  68.050  1.00  0.00    -0.168 A  
HETATM   35  C   UNL     1      -8.161   2.328  67.091  1.00  0.00    -0.072 A  
HETATM   36  O   UNL     1      -7.875   1.731  65.903  1.00  0.00    -0.069 OA 
HETATM   37  C   UNL     1      -7.783   3.642  67.356  1.00  0.00    -0.078 A  
HETATM   38  H   UNL     1      -7.346   2.192  65.263  1.00  0.00     0.000 HD 
HETATM   39  C   UNL     1      -8.237   4.315  68.498  1.00  0.00    -0.087 A  
HETATM   40  C   UNL     1      -7.946   5.788  68.414  1.00  0.00    -0.104 C  
HETATM   41  C   UNL     1      -7.697   5.781  66.834  1.00  0.00    -0.101 C  
HETATM   42  C   UNL     1      -7.040   6.633  69.727  1.00  0.00    -0.068 C  
HETATM   43  O   UNL     1      -7.118   4.493  66.488  1.00  0.00    -0.071 OA 
HETATM   44  C   UNL     1      -8.057   7.455  70.963  1.00  0.00    -0.101 C  
HETATM   45  N   UNL     1      -9.389   6.859  71.224  1.00  0.00    -0.164 NA 
BRANCH  45  46
HETATM   46  C   UNL     1     -10.620   7.623  71.130  1.00  0.00    -0.221 C  
BRANCH  46  47
HETATM   47  C   UNL     1     -11.695   7.200  72.074  1.00  0.00    -0.326 C  
HETATM   48  C   UNL     1     -12.836   6.628  71.675  1.00  0.00    -0.234 C  
ENDBRANCH  46  47
ENDBRANCH  45  46
ENDBRANCH  23  24
ENDBRANCH  22  23
ENDBRANCH  21  22
ENDBRANCH  20  21
ENDBRANCH  19  20
ENDBRANCH  18  19
ENDBRANCH  17  18
ENDBRANCH  16  17
ENDBRANCH  15  16
ENDBRANCH  14  15
ENDBRANCH  13  14
ENDBRANCH  12  13
ENDBRANCH  11  12
ENDBRANCH  10  11
ENDBRANCH   9  10
ENDBRANCH   8   9
ENDBRANCH   7   8
ENDBRANCH   6   7
ENDBRANCH   5   6
ENDBRANCH   4   5
ENDBRANCH   3   4
ENDBRANCH   2   3
TORSDOF 24
ENDMDL
MODEL      164
REMARK 921   NORMALIZED FREE ENERGY PREDICTED BY IDOCK:   -1.64 KCAL/MOL
REMARK 922        TOTAL FREE ENERGY PREDICTED BY IDOCK:   -6.24 KCAL/MOL
REMARK 923 INTER-LIGAND FREE ENERGY PREDICTED BY IDOCK:   -6.34 KCAL/MOL
REMARK 924 INTRA-LIGAND FREE ENERGY PREDICTED BY IDOCK:    0.09 KCAL/MOL
REMARK 927      BINDING AFFINITY PREDICTED BY RF-SCORE:    0.00 PKD
ROOT
HETATM    1  C   UNL     1     -11.927  14.577  66.679  1.00  0.00    -0.338 C  
HETATM    2  O   UNL     1     -11.574  15.648  67.544  1.00  0.00    -0.206 OA 
ENDROOT
BRANCH   2   3
HETATM    3  C   UNL     1     -10.228  16.068  67.326  1.00  0.00    -0.277 C  
BRANCH   3   4
HETATM    4  C   UNL     1      -9.496  16.124  68.659  1.00  0.00    -0.227 C  
BRANCH   4   5
HETATM    5  O   UNL     1      -8.546  15.061  68.712  1.00  0.00    -0.164 OA 
BRANCH   5   6
HETATM    6  C   UNL     1      -8.041  14.762  67.413  1.00  0.00    -0.198 C  
BRANCH   6   7
HETATM    7  C   UNL     1      -7.220  13.485  67.470  1.00  0.00    -0.154 C  
BRANCH   7   8
HETATM    8  O   UNL     1      -8.016  12.464  68.066  1.00  0.00    -0.134 OA 
BRANCH   8   9
HETATM    9  C   UNL     1      -9.380  12.575  67.676  1.00  0.00    -0.189 C  
BRANCH   9  10
HETATM   10  C   UNL     1      -9.656  11.575  66.567  1.00  0.00    -0.205 C  
BRANCH  10  11
HETATM   11  O   UNL     1      -9.682  10.271  67.132  1.00  0.00    -0.164 OA 
BRANCH  11  12
HETATM   12  C   UNL     1      -9.322   9.284  66.173  1.00  0.00    -0.212 C  
BRANCH  12  13
HETATM   13  C   UNL     1      -8.433   8.255  66.848  1.00  0.00    -0.118 C  
BRANCH  13  14
HETATM   14  O   UNL     1      -7.074   8.532  66.540  1.00  0.00    -0.077 OA 
BRANCH  14  15
HETATM   15  C   UNL     1      -6.332   8.758  67.732  1.00  0.00    -0.057 C  
BRANCH  15  16
HETATM   16  C   UNL     1      -6.803   7.818  68.828  1.00  0.00    -0.059 C  
BRANCH  16  17
HETATM   17  O   UNL     1      -6.656   6.489  68.343  1.00  0.00    -0.053 OA 
BRANCH  17  18
HETATM   18  C   UNL     1      -5.758   6.409  67.248  1.00  0.00    -0.013 C  
BRANCH  18  19
HETATM   19  C   UNL     1      -6.071   5.134  66.487  1.00  0.00    -0.030 C  
BRANCH  19  20
HETATM   20  O   UNL     1      -5.378   4.041  67.075  1.00  0.00    -0.011 OA 
BRANCH  20  21
HETATM   21  C   UNL     1      -6.171   3.373  68.055  1.00  0.00    -0.032 C  
BRANCH  21  22
HETATM   22  C   UNL     1      -7.561   3.042  67.500  1.00  0.00    -0.065 C  
BRANCH  22  23
HETATM   23  O   UNL     1      -8.190   1.855  68.049  1.00  0.00    -0.058 OA 
BRANCH  23  24
HETATM   24  C   UNL     1      -9.061   2.101  69.179  1.00  0.00    -0.121 C  
HETATM   25  C   UNL     1      -8.474   1.508  70.429  1.00  0.00    -0.071 C  
HETATM   26  C   UNL     1      -7.521   2.525  71.286  1.00  0.00    -0.033 C  
HETATM   27  C   UNL     1      -8.049   4.048  71.627  1.00  0.00    -0.078 C  
HETATM   28  C   UNL     1      -8.571   4.818  73.010  1.00  0.00    -0.114 C  
HETATM   29  O   UNL     1      -7.120   4.899  70.940  1.00  0.00    -0.048 OA 
HETATM   30  C   UNL     1      -8.893   6.313  72.934  1.00  0.00    -0.124 C  
HETATM   31  H   UNL     1      -7.425   5.778  71.136  1.00  0.00     0.000 HD 
HETATM   32  C   UNL     1      -9.805   6.428  71.737  1.00  0.00    -0.178 A  
HETATM   33  C   UNL     1     -10.284   7.646  71.296  1.00  0.00    -0.204 A  
HETATM   34  C   UNL     1     -10.830   7.784  70.028  1.00  0.00    -0.243 A  
HETATM   35  C   UNL     1     -10.880   6.671  69.141  1.00  0.00    -0.283 A  
HETATM   36  O   UNL     1     -11.185   6.871  67.831  1.00  0.00    -0.525 OA 
HETATM   37  C   UNL     1     -10.513   5.416  69.620  1.00  0.00    -0.291 A  
HETATM   38  H   UNL     1     -11.219   6.129  67.239  1.00  0.00     0.000 HD 
HETATM   39  C   UNL     1     -10.020   5.248  70.921  1.00  0.00    -0.274 A  
HETATM   40  C   UNL     1      -9.421   3.880  71.104  1.00  0.00    -0.233 C  
HETATM   41  C   UNL     1      -9.286   3.588  69.536  1.00  0.00    -0.173 C  
HETATM   42  C   UNL     1      -9.963   2.798  72.442  1.00  0.00    -0.235 C  
HETATM   43  O   UNL     1     -10.391   4.257  68.870  1.00  0.00     0.181 OA 
HETATM   44  C   UNL     1      -8.955   2.846  73.932  1.00  0.00    -0.075 C  
HETATM   45  N   UNL     1      -8.269   4.127  74.223  1.00  0.00    -0.091 NA 
BRANCH  45  46
HETATM   46  C   UNL     1      -6.834   4.217  74.434  1.00  0.00    -0.063 C  
BRANCH  46  47
HETATM   47  C   UNL     1      -6.106   2.916  74.353  1.00  0.00    -0.015 C  
HETATM   48  C   UNL     1      -5.308   2.588  73.331  1.00  0.00     0.000 C  
ENDBRANCH  46  47
ENDBRANCH  45  46
ENDBRANCH  23  24
ENDBRANCH  22  23
ENDBRANCH  21  22
ENDBRANCH  20  21
ENDBRANCH  19  20
ENDBRANCH  18  19
ENDBRANCH  17  18
ENDBRANCH  16  17
ENDBRANCH  15  16
ENDBRANCH  14  15
ENDBRANCH  13  14
ENDBRANCH  12  13
ENDBRANCH  11  12
ENDBRANCH  10  11
ENDBRANCH   9  10
ENDBRANCH   8   9
ENDBRANCH   7   8
ENDBRANCH   6   7
ENDBRANCH   5   6
ENDBRANCH   4   5
ENDBRANCH   3   4
ENDBRANCH   2   3
TORSDOF 24
ENDMDL
MODEL      165
REMARK 921   NORMALIZED FREE ENERGY PREDICTED BY IDOCK:   -1.59 KCAL/MOL
REMARK 922        TOTAL FREE ENERGY PREDICTED BY IDOCK:   -6.11 KCAL/MOL
REMARK 923 INTER-LIGAND FREE ENERGY PREDICTED BY IDOCK:   -6.97 KCAL/MOL
REMARK 924 INTRA-LIGAND FREE ENERGY PREDICTED BY IDOCK:    0.86 KCAL/MOL
REMARK 927      BINDING AFFINITY PREDICTED BY RF-SCORE:    0.00 PKD
ROOT
HETATM    1  C   UNL     1     -13.402  14.825  71.137  1.00  0.00    -0.400 C  
HETATM    2  O   UNL     1     -12.025  14.718  71.473  1.00  0.00    -0.332 OA 
ENDROOT
BRANCH   2   3
HETATM    3  C   UNL     1     -11.542  15.921  72.068  1.00  0.00    -0.428 C  
BRANCH   3   4
HETATM    4  C   UNL     1     -11.239  16.935  70.975  1.00  0.00     0.590 C  
BRANCH   4   5
HETATM    5  O   UNL     1     -10.472  16.302  69.952  1.00  0.00    -0.276 OA 
BRANCH   5   6
HETATM    6  C   UNL     1     -10.097  17.236  68.943  1.00  0.00    -0.331 C  
BRANCH   6   7
HETATM    7  C   UNL     1     -10.635  16.774  67.599  1.00  0.00    -0.325 C  
BRANCH   7   8
HETATM    8  O   UNL     1      -9.606  16.054  66.926  1.00  0.00    -0.217 OA 
BRANCH   8   9
HETATM    9  C   UNL     1      -8.538  15.729  67.807  1.00  0.00    -0.159 C  
BRANCH   9  10
HETATM   10  C   UNL     1      -8.352  14.222  67.820  1.00  0.00    -0.171 C  
BRANCH  10  11
HETATM   11  O   UNL     1      -9.247  13.666  68.774  1.00  0.00    -0.097 OA 
BRANCH  11  12
HETATM   12  C   UNL     1     -10.485  13.305  68.173  1.00  0.00    -0.245 C  
BRANCH  12  13
HETATM   13  C   UNL     1     -10.377  11.880  67.660  1.00  0.00    -0.200 C  
BRANCH  13  14
HETATM   14  O   UNL     1     -10.020  11.899  66.285  1.00  0.00    -0.211 OA 
BRANCH  14  15
HETATM   15  C   UNL     1      -8.610  12.016  66.141  1.00  0.00     0.112 C  
BRANCH  15  16
HETATM   16  C   UNL     1      -7.941  10.688  66.450  1.00  0.00    -0.142 C  
BRANCH  16  17
HETATM   17  O   UNL     1      -8.339   9.764  65.445  1.00  0.00    -0.129 OA 
BRANCH  17  18
HETATM   18  C   UNL     1      -7.299   9.489  64.521  1.00  0.00    -0.114 C  
BRANCH  18  19
HETATM   19  C   UNL     1      -6.921   8.027  64.673  1.00  0.00    -0.071 C  
BRANCH  19  20
HETATM   20  O   UNL     1      -7.631   7.458  65.765  1.00  0.00    -0.083 OA 
BRANCH  20  21
HETATM   21  C   UNL     1      -6.759   6.799  66.681  1.00  0.00    -0.053 C  
BRANCH  21  22
HETATM   22  C   UNL     1      -6.963   5.280  66.633  1.00  0.00    -0.064 C  
BRANCH  22  23
HETATM   23  O   UNL     1      -7.541   4.686  67.823  1.00  0.00    -0.077 OA 
BRANCH  23  24
HETATM   24  C   UNL     1      -7.558   5.552  68.984  1.00  0.00    -0.087 C  
HETATM   25  C   UNL     1      -8.580   6.640  68.808  1.00  0.00    -0.122 C  
HETATM   26  C   UNL     1     -10.068   6.281  69.388  1.00  0.00    -0.215 C  
HETATM   27  C   UNL     1     -10.224   5.655  70.904  1.00  0.00    -0.223 C  
HETATM   28  C   UNL     1     -10.788   6.248  72.357  1.00  0.00    -0.243 C  
HETATM   29  O   UNL     1     -10.775   4.349  70.686  1.00  0.00     0.307 OA 
HETATM   30  C   UNL     1     -10.863   5.294  73.552  1.00  0.00    -0.358 C  
HETATM   31  H   UNL     1     -10.865   3.988  71.560  1.00  0.00     0.000 HD 
HETATM   32  C   UNL     1      -9.498   4.654  73.593  1.00  0.00    -0.135 A  
HETATM   33  C   UNL     1      -9.173   3.678  74.515  1.00  0.00    -0.110 A  
HETATM   34  C   UNL     1      -8.061   2.868  74.340  1.00  0.00    -0.068 A  
HETATM   35  C   UNL     1      -7.242   3.011  73.183  1.00  0.00    -0.045 A  
HETATM   36  O   UNL     1      -6.310   2.062  72.901  1.00  0.00    -0.009 OA 
HETATM   37  C   UNL     1      -7.490   4.070  72.313  1.00  0.00    -0.062 A  
HETATM   38  H   UNL     1      -5.764   2.157  72.129  1.00  0.00     0.000 HD 
HETATM   39  C   UNL     1      -8.573   4.937  72.511  1.00  0.00    -0.120 A  
HETATM   40  C   UNL     1      -8.808   5.800  71.302  1.00  0.00    -0.139 C  
HETATM   41  C   UNL     1      -7.953   4.875  70.315  1.00  0.00    -0.069 C  
HETATM   42  C   UNL     1      -8.871   7.599  71.440  1.00  0.00    -0.141 C  
HETATM   43  O   UNL     1      -6.873   4.287  71.091  1.00  0.00    -0.033 OA 
HETATM   44  C   UNL     1     -10.519   8.305  71.593  1.00  0.00    -0.238 C  
HETATM   45  N   UNL     1     -11.542   7.457  72.251  1.00  0.00    -0.285 NA 
BRANCH  45  46
HETATM   46  C   UNL     1     -12.810   7.131  71.624  1.00  0.00    -0.379 C  
BRANCH  46  47
HETATM   47  C   UNL     1     -13.731   8.289  71.429  1.00  0.00    -0.281 C  
HETATM   48  C   UNL     1     -13.820   9.305  72.294  1.00  0.00    -0.492 C  
ENDBRANCH  46  47
ENDBRANCH  45  46
ENDBRANCH  23  24
ENDBRANCH  22  23
ENDBRANCH  21  22
ENDBRANCH  20  21
ENDBRANCH  19  20
ENDBRANCH  18  19
ENDBRANCH  17  18
ENDBRANCH  16  17
ENDBRANCH  15  16
ENDBRANCH  14  15
ENDBRANCH  13  14
ENDBRANCH  12  13
ENDBRANCH  11  12
ENDBRANCH  10  11
ENDBRANCH   9  10
ENDBRANCH   8   9
ENDBRANCH   7   8
ENDBRANCH   6   7
ENDBRANCH   5   6
ENDBRANCH   4   5
ENDBRANCH   3   4
ENDBRANCH   2   3
TORSDOF 24
ENDMDL
MODEL      166
REMARK 921   NORMALIZED FREE ENERGY PREDICTED BY IDOCK:   -1.45 KCAL/MOL
REMARK 922        TOTAL FREE ENERGY PREDICTED BY IDOCK:   -5.79 KCAL/MOL
REMARK 923 INTER-LIGAND FREE ENERGY PREDICTED BY IDOCK:   -5.82 KCAL/MOL
REMARK 924 INTRA-LIGAND FREE ENERGY PREDICTED BY IDOCK:    0.04 KCAL/MOL
REMARK 927      BINDING AFFINITY PREDICTED BY RF-SCORE:    0.00 PKD
ROOT
HETATM    1  C   UNL     1      -5.909  15.682  68.211  1.00  0.00    -0.115 C  
HETATM    2  O   UNL     1      -6.708  15.648  67.037  1.00  0.00    -0.267 OA 
ENDROOT
BRANCH   2   3
HETATM    3  C   UNL     1      -8.088  15.837  67.344  1.00  0.00    -0.169 C  
BRANCH   3   4
HETATM    4  C   UNL     1      -8.664  16.907  66.428  1.00  0.00    -0.286 C  
BRANCH   4   5
HETATM    5  O   UNL     1     -10.055  17.061  66.710  1.00  0.00    -0.280 OA 
BRANCH   5   6
HETATM    6  C   UNL     1     -10.726  17.708  65.632  1.00  0.00    -0.084 C  
BRANCH   6   7
HETATM    7  C   UNL     1     -11.606  16.703  64.907  1.00  0.00     0.431 C  
BRANCH   7   8
HETATM    8  O   UNL     1     -10.781  15.643  64.430  1.00  0.00    -0.302 OA 
BRANCH   8   9
HETATM    9  C   UNL     1     -11.559  14.527  64.015  1.00  0.00     0.016 C  
BRANCH   9  10
HETATM   10  C   UNL     1     -12.657  14.287  65.036  1.00  0.00    -0.347 C  
BRANCH  10  11
HETATM   11  O   UNL     1     -13.000  12.907  65.012  1.00  0.00    -0.777 OA 
BRANCH  11  12
HETATM   12  C   UNL     1     -11.892  12.093  65.379  1.00  0.00    -0.295 C  
BRANCH  12  13
HETATM   13  C   UNL     1     -11.429  12.502  66.766  1.00  0.00    -0.362 C  
BRANCH  13  14
HETATM   14  O   UNL     1     -12.065  11.682  67.736  1.00  0.00    -0.613 OA 
BRANCH  14  15
HETATM   15  C   UNL     1     -11.099  11.093  68.598  1.00  0.00    -0.239 C  
BRANCH  15  16
HETATM   16  C   UNL     1     -10.130  12.151  69.097  1.00  0.00     0.247 C  
BRANCH  16  17
HETATM   17  O   UNL     1      -8.945  12.048  68.317  1.00  0.00    -0.184 OA 
BRANCH  17  18
HETATM   18  C   UNL     1      -8.176  10.904  68.650  1.00  0.00    -0.146 C  
BRANCH  18  19
HETATM   19  C   UNL     1      -6.845  11.387  69.196  1.00  0.00    -0.111 C  
BRANCH  19  20
HETATM   20  O   UNL     1      -5.784  10.674  68.574  1.00  0.00    -0.041 OA 
BRANCH  20  21
HETATM   21  C   UNL     1      -5.744   9.310  68.988  1.00  0.00    -0.036 C  
BRANCH  21  22
HETATM   22  C   UNL     1      -6.428   8.405  67.956  1.00  0.00    -0.057 C  
BRANCH  22  23
HETATM   23  O   UNL     1      -5.540   7.589  67.150  1.00  0.00    -0.028 OA 
BRANCH  23  24
HETATM   24  C   UNL     1      -5.395   6.222  67.607  1.00  0.00    -0.005 C  
HETATM   25  C   UNL     1      -5.798   6.109  69.050  1.00  0.00    -0.020 C  
HETATM   26  C   UNL     1      -7.373   5.739  69.294  1.00  0.00    -0.079 C  
HETATM   27  C   UNL     1      -8.058   4.495  68.459  1.00  0.00    -0.082 C  
HETATM   28  C   UNL     1      -8.568   2.960  68.866  1.00  0.00    -0.074 C  
HETATM   29  O   UNL     1      -9.068   5.127  67.659  1.00  0.00    -0.109 OA 
HETATM   30  C   UNL     1      -9.264   2.116  67.794  1.00  0.00    -0.217 C  
HETATM   31  H   UNL     1      -9.463   4.408  67.178  1.00  0.00     0.000 HD 
HETATM   32  C   UNL     1      -8.339   2.205  66.604  1.00  0.00    -0.093 A  
HETATM   33  C   UNL     1      -8.642   1.609  65.395  1.00  0.00    -0.107 A  
HETATM   34  C   UNL     1      -7.974   1.967  64.233  1.00  0.00    -0.073 A  
HETATM   35  C   UNL     1      -6.978   2.984  64.260  1.00  0.00    -0.045 A  
HETATM   36  O   UNL     1      -6.511   3.496  63.090  1.00  0.00    -0.024 OA 
HETATM   37  C   UNL     1      -6.582   3.502  65.491  1.00  0.00    -0.037 A  
HETATM   38  H   UNL     1      -5.846   4.174  63.108  1.00  0.00     0.000 HD 
HETATM   39  C   UNL     1      -7.202   3.103  66.683  1.00  0.00    -0.062 A  
HETATM   40  C   UNL     1      -6.817   4.003  67.825  1.00  0.00    -0.051 C  
HETATM   41  C   UNL     1      -6.279   5.181  66.885  1.00  0.00    -0.032 C  
HETATM   42  C   UNL     1      -6.124   3.327  69.348  1.00  0.00    -0.024 C  
HETATM   43  O   UNL     1      -5.720   4.568  65.691  1.00  0.00    -0.017 OA 
HETATM   44  C   UNL     1      -7.305   3.048  70.677  1.00  0.00    -0.037 C  
HETATM   45  N   UNL     1      -8.694   2.730  70.270  1.00  0.00    -0.068 NA 
BRANCH  45  46
HETATM   46  C   UNL     1      -9.841   3.488  70.737  1.00  0.00    -0.043 C  
BRANCH  46  47
HETATM   47  C   UNL     1      -9.671   4.118  72.080  1.00  0.00    -0.225 C  
HETATM   48  C   UNL     1     -10.556   3.973  73.072  1.00  0.00    -0.256 C  
ENDBRANCH  46  47
ENDBRANCH  45  46
ENDBRANCH  23  24
ENDBRANCH  22  23
ENDBRANCH  21  22
ENDBRANCH  20  21
ENDBRANCH  19  20
ENDBRANCH  18  19
ENDBRANCH  17  18
ENDBRANCH  16  17
ENDBRANCH  15  16
ENDBRANCH  14  15
ENDBRANCH  13  14
ENDBRANCH  12  13
ENDBRANCH  11  12
ENDBRANCH  10  11
ENDBRANCH   9  10
ENDBRANCH   8   9
ENDBRANCH   7   8
ENDBRANCH   6   7
ENDBRANCH   5   6
ENDBRANCH   4   5
ENDBRANCH   3   4
ENDBRANCH   2   3
TORSDOF 24
ENDMDL
MODEL      167
REMARK 921   NORMALIZED FREE ENERGY PREDICTED BY IDOCK:   -1.39 KCAL/MOL
REMARK 922        TOTAL FREE ENERGY PREDICTED BY IDOCK:   -5.63 KCAL/MOL
REMARK 923 INTER-LIGAND FREE ENERGY PREDICTED BY IDOCK:   -5.81 KCAL/MOL
REMARK 924 INTRA-LIGAND FREE ENERGY PREDICTED BY IDOCK:    0.18 KCAL/MOL
REMARK 927      BINDING AFFINITY PREDICTED BY RF-SCORE:    0.00 PKD
ROOT
HETATM    1  C   UNL     1     -11.146  16.356  64.854  1.00  0.00    -0.239 C  
HETATM    2  O   UNL     1     -12.013  15.779  63.887  1.00  0.00    -0.555 OA 
ENDROOT
BRANCH   2   3
HETATM    3  C   UNL     1     -12.098  14.364  64.046  1.00  0.00    -0.280 C  
BRANCH   3   4
HETATM    4  C   UNL     1     -12.381  14.038  65.505  1.00  0.00    -0.483 C  
BRANCH   4   5
HETATM    5  O   UNL     1     -11.243  13.385  66.065  1.00  0.00    -0.293 OA 
BRANCH   5   6
HETATM    6  C   UNL     1     -10.210  13.239  65.094  1.00  0.00    -0.287 C  
BRANCH   6   7
HETATM    7  C   UNL     1      -9.765  11.787  65.041  1.00  0.00    -0.187 C  
BRANCH   7   8
HETATM    8  O   UNL     1      -9.044  11.581  63.829  1.00  0.00    -0.024 OA 
BRANCH   8   9
HETATM    9  C   UNL     1      -9.501  10.421  63.144  1.00  0.00    -0.327 C  
BRANCH   9  10
HETATM   10  C   UNL     1      -9.055   9.190  63.912  1.00  0.00     0.165 C  
BRANCH  10  11
HETATM   11  O   UNL     1      -7.948   8.611  63.234  1.00  0.00    -0.147 OA 
BRANCH  11  12
HETATM   12  C   UNL     1      -6.987   8.101  64.152  1.00  0.00    -0.070 C  
BRANCH  12  13
HETATM   13  C   UNL     1      -5.622   8.128  63.487  1.00  0.00    -0.058 C  
BRANCH  13  14
HETATM   14  O   UNL     1      -5.443   6.939  62.730  1.00  0.00    -0.031 OA 
BRANCH  14  15
HETATM   15  C   UNL     1      -6.562   6.076  62.891  1.00  0.00    -0.039 C  
BRANCH  15  16
HETATM   16  C   UNL     1      -6.321   5.118  64.045  1.00  0.00    -0.022 C  
BRANCH  16  17
HETATM   17  O   UNL     1      -7.429   4.228  64.100  1.00  0.00    -0.068 OA 
BRANCH  17  18
HETATM   18  C   UNL     1      -7.276   3.234  65.100  1.00  0.00    -0.070 C  
BRANCH  18  19
HETATM   19  C   UNL     1      -8.495   2.334  65.047  1.00  0.00    -0.098 C  
BRANCH  19  20
HETATM   20  O   UNL     1      -9.614   3.006  65.610  1.00  0.00    -0.081 OA 
BRANCH  20  21
HETATM   21  C   UNL     1      -9.262   4.292  66.118  1.00  0.00    -0.145 C  
BRANCH  21  22
HETATM   22  C   UNL     1      -8.911   4.214  67.608  1.00  0.00    -0.121 C  
BRANCH  22  23
HETATM   23  O   UNL     1     -10.024   3.958  68.503  1.00  0.00    -0.017 OA 
BRANCH  23  24
HETATM   24  C   UNL     1     -10.119   4.869  69.624  1.00  0.00    -0.230 C  
HETATM   25  C   UNL     1      -9.767   4.162  70.903  1.00  0.00    -0.259 C  
HETATM   26  C   UNL     1      -8.186   4.244  71.316  1.00  0.00    -0.083 C  
HETATM   27  C   UNL     1      -7.409   5.697  71.289  1.00  0.00    -0.085 C  
HETATM   28  C   UNL     1      -6.840   6.736  72.463  1.00  0.00    -0.063 C  
HETATM   29  O   UNL     1      -6.402   5.534  70.281  1.00  0.00    -0.028 OA 
HETATM   30  C   UNL     1      -6.063   7.979  72.020  1.00  0.00    -0.043 C  
HETATM   31  H   UNL     1      -5.954   6.372  70.266  1.00  0.00     0.000 HD 
HETATM   32  C   UNL     1      -6.944   8.602  70.965  1.00  0.00    -0.069 A  
HETATM   33  C   UNL     1      -6.567   9.736  70.272  1.00  0.00    -0.102 A  
HETATM   34  C   UNL     1      -7.206  10.101  69.096  1.00  0.00    -0.081 A  
HETATM   35  C   UNL     1      -8.252   9.294  68.564  1.00  0.00    -0.114 A  
HETATM   36  O   UNL     1      -8.698   9.524  67.300  1.00  0.00    -0.127 OA 
HETATM   37  C   UNL     1      -8.720   8.221  69.319  1.00  0.00    -0.139 A  
HETATM   38  H   UNL     1      -9.396   8.985  66.945  1.00  0.00     0.000 HD 
HETATM   39  C   UNL     1      -8.127   7.876  70.541  1.00  0.00    -0.109 A  
HETATM   40  C   UNL     1      -8.599   6.529  71.014  1.00  0.00    -0.134 C  
HETATM   41  C   UNL     1      -9.158   6.078  69.584  1.00  0.00    -0.135 C  
HETATM   42  C   UNL     1      -9.316   6.319  72.657  1.00  0.00    -0.145 C  
HETATM   43  O   UNL     1      -9.640   7.271  68.907  1.00  0.00    -0.144 OA 
HETATM   44  C   UNL     1      -8.175   5.765  73.933  1.00  0.00    -0.109 C  
HETATM   45  N   UNL     1      -6.757   6.166  73.770  1.00  0.00    -0.078 NA 
BRANCH  45  46
HETATM   46  C   UNL     1      -5.668   5.205  73.761  1.00  0.00    -0.023 C  
BRANCH  46  47
HETATM   47  C   UNL     1      -5.931   3.950  74.525  1.00  0.00    -0.020 C  
HETATM   48  C   UNL     1      -6.103   2.760  73.939  1.00  0.00    -0.008 C  
ENDBRANCH  46  47
ENDBRANCH  45  46
ENDBRANCH  23  24
ENDBRANCH  22  23
ENDBRANCH  21  22
ENDBRANCH  20  21
ENDBRANCH  19  20
ENDBRANCH  18  19
ENDBRANCH  17  18
ENDBRANCH  16  17
ENDBRANCH  15  16
ENDBRANCH  14  15
ENDBRANCH  13  14
ENDBRANCH  12  13
ENDBRANCH  11  12
ENDBRANCH  10  11
ENDBRANCH   9  10
ENDBRANCH   8   9
ENDBRANCH   7   8
ENDBRANCH   6   7
ENDBRANCH   5   6
ENDBRANCH   4   5
ENDBRANCH   3   4
ENDBRANCH   2   3
TORSDOF 24
ENDMDL
MODEL      168
REMARK 921   NORMALIZED FREE ENERGY PREDICTED BY IDOCK:   -1.38 KCAL/MOL
REMARK 922        TOTAL FREE ENERGY PREDICTED BY IDOCK:   -5.60 KCAL/MOL
REMARK 923 INTER-LIGAND FREE ENERGY PREDICTED BY IDOCK:   -6.51 KCAL/MOL
REMARK 924 INTRA-LIGAND FREE ENERGY PREDICTED BY IDOCK:    0.91 KCAL/MOL
REMARK 927      BINDING AFFINITY PREDICTED BY RF-SCORE:    0.00 PKD
ROOT
HETATM    1  C   UNL     1      -6.421   2.959  72.456  1.00  0.00    -0.014 C  
HETATM    2  O   UNL     1      -6.657   3.277  73.820  1.00  0.00    -0.028 OA 
ENDROOT
BRANCH   2   3
HETATM    3  C   UNL     1      -5.705   4.222  74.304  1.00  0.00    -0.012 C  
BRANCH   3   4
HETATM    4  C   UNL     1      -6.325   5.612  74.293  1.00  0.00    -0.070 C  
BRANCH   4   5
HETATM    5  O   UNL     1      -6.184   6.173  72.988  1.00  0.00    -0.055 OA 
BRANCH   5   6
HETATM    6  C   UNL     1      -6.370   7.585  73.017  1.00  0.00    -0.060 C  
BRANCH   6   7
HETATM    7  C   UNL     1      -7.848   7.906  72.877  1.00  0.00    -0.128 C  
BRANCH   7   8
HETATM    8  O   UNL     1      -8.507   6.763  72.335  1.00  0.00    -0.119 OA 
BRANCH   8   9
HETATM    9  C   UNL     1      -9.838   7.071  71.939  1.00  0.00    -0.163 C  
BRANCH   9  10
HETATM   10  C   UNL     1      -9.836   7.461  70.471  1.00  0.00    -0.180 C  
BRANCH  10  11
HETATM   11  O   UNL     1     -11.140   7.246  69.946  1.00  0.00    -0.256 OA 
BRANCH  11  12
HETATM   12  C   UNL     1     -11.288   5.919  69.457  1.00  0.00    -0.068 C  
BRANCH  12  13
HETATM   13  C   UNL     1      -9.942   5.439  68.944  1.00  0.00    -0.180 C  
BRANCH  13  14
HETATM   14  O   UNL     1      -9.559   4.267  69.649  1.00  0.00    -0.175 OA 
BRANCH  14  15
HETATM   15  C   UNL     1      -8.561   3.557  68.926  1.00  0.00    -0.086 C  
BRANCH  15  16
HETATM   16  C   UNL     1      -8.294   4.240  67.596  1.00  0.00    -0.098 C  
BRANCH  16  17
HETATM   17  O   UNL     1      -6.885   4.356  67.450  1.00  0.00    -0.053 OA 
BRANCH  17  18
HETATM   18  C   UNL     1      -6.410   5.648  67.790  1.00  0.00    -0.042 C  
BRANCH  18  19
HETATM   19  C   UNL     1      -6.267   6.441  66.505  1.00  0.00    -0.037 C  
BRANCH  19  20
HETATM   20  O   UNL     1      -7.251   7.465  66.459  1.00  0.00    -0.075 OA 
BRANCH  20  21
HETATM   21  C   UNL     1      -8.363   7.173  67.305  1.00  0.00    -0.119 C  
BRANCH  21  22
HETATM   22  C   UNL     1      -9.618   7.916  66.834  1.00  0.00    -0.203 C  
BRANCH  22  23
HETATM   23  O   UNL     1      -9.399   8.958  65.848  1.00  0.00    -0.219 OA 
BRANCH  23  24
HETATM   24  C   UNL     1      -9.030  10.245  66.401  1.00  0.00    -0.148 C  
HETATM   25  C   UNL     1      -8.894  11.264  65.304  1.00  0.00    -0.015 C  
HETATM   26  C   UNL     1     -10.262  12.099  64.974  1.00  0.00    -0.312 C  
HETATM   27  C   UNL     1     -11.129  12.767  66.206  1.00  0.00    -0.288 C  
HETATM   28  C   UNL     1     -11.381  14.325  66.742  1.00  0.00    -0.348 C  
HETATM   29  O   UNL     1     -12.387  12.079  66.157  1.00  0.00    -0.449 OA 
HETATM   30  C   UNL     1     -12.363  14.548  67.895  1.00  0.00     0.031 C  
HETATM   31  H   UNL     1     -12.887  12.464  66.868  1.00  0.00     0.000 HD 
HETATM   32  C   UNL     1     -11.922  13.558  68.945  1.00  0.00    -0.378 A  
HETATM   33  C   UNL     1     -12.597  13.409  70.141  1.00  0.00    -0.144 A  
HETATM   34  C   UNL     1     -12.400  12.291  70.940  1.00  0.00    -0.363 A  
HETATM   35  C   UNL     1     -11.513  11.258  70.524  1.00  0.00     0.017 A  
HETATM   36  O   UNL     1     -11.514  10.068  71.185  1.00  0.00    -0.357 OA 
HETATM   37  C   UNL     1     -10.738  11.457  69.384  1.00  0.00    -0.104 A  
HETATM   38  H   UNL     1     -10.922   9.379  70.908  1.00  0.00     0.000 HD 
HETATM   39  C   UNL     1     -10.878  12.610  68.601  1.00  0.00    -0.281 A  
HETATM   40  C   UNL     1     -10.165  12.464  67.284  1.00  0.00    -0.224 C  
HETATM   41  C   UNL     1     -10.054  10.871  67.373  1.00  0.00    -0.191 C  
HETATM   42  C   UNL     1      -8.947  13.683  66.746  1.00  0.00    -0.196 C  
HETATM   43  O   UNL     1      -9.918  10.519  68.777  1.00  0.00    -0.175 OA 
HETATM   44  C   UNL     1      -9.570  14.967  65.651  1.00  0.00    -0.223 C  
HETATM   45  N   UNL     1     -10.994  15.341  65.815  1.00  0.00    -0.344 NA 
BRANCH  45  46
HETATM   46  C   UNL     1     -11.943  15.316  64.715  1.00  0.00    -0.184 C  
BRANCH  46  47
HETATM   47  C   UNL     1     -11.667  14.284  63.672  1.00  0.00     0.314 C  
HETATM   48  C   UNL     1     -12.629  13.567  63.082  1.00  0.00     0.295 C  
ENDBRANCH  46  47
ENDBRANCH  45  46
ENDBRANCH  23  24
ENDBRANCH  22  23
ENDBRANCH  21  22
ENDBRANCH  20  21
ENDBRANCH  19  20
ENDBRANCH  18  19
ENDBRANCH  17  18
ENDBRANCH  16  17
ENDBRANCH  15  16
ENDBRANCH  14  15
ENDBRANCH  13  14
ENDBRANCH  12  13
ENDBRANCH  11  12
ENDBRANCH  10  11
ENDBRANCH   9  10
ENDBRANCH   8   9
ENDBRANCH   7   8
ENDBRANCH   6   7
ENDBRANCH   5   6
ENDBRANCH   4   5
ENDBRANCH   3   4
ENDBRANCH   2   3
TORSDOF 24
ENDMDL
MODEL      169
REMARK 921   NORMALIZED FREE ENERGY PREDICTED BY IDOCK:   -1.35 KCAL/MOL
REMARK 922        TOTAL FREE ENERGY PREDICTED BY IDOCK:   -5.55 KCAL/MOL
REMARK 923 INTER-LIGAND FREE ENERGY PREDICTED BY IDOCK:   -6.25 KCAL/MOL
REMARK 924 INTRA-LIGAND FREE ENERGY PREDICTED BY IDOCK:    0.70 KCAL/MOL
REMARK 927      BINDING AFFINITY PREDICTED BY RF-SCORE:    0.00 PKD
ROOT
HETATM    1  C   UNL     1      -6.980  16.493  68.883  1.00  0.00    -0.191 C  
HETATM    2  O   UNL     1      -6.952  15.229  68.234  1.00  0.00    -0.106 OA 
ENDROOT
BRANCH   2   3
HETATM    3  C   UNL     1      -5.639  14.671  68.243  1.00  0.00    -0.117 C  
BRANCH   3   4
HETATM    4  C   UNL     1      -5.659  13.354  69.004  1.00  0.00    -0.074 C  
BRANCH   4   5
HETATM    5  O   UNL     1      -6.995  13.079  69.424  1.00  0.00    -0.028 OA 
BRANCH   5   6
HETATM    6  C   UNL     1      -7.491  11.896  68.803  1.00  0.00    -0.100 C  
BRANCH   6   7
HETATM    7  C   UNL     1      -8.875  12.165  68.236  1.00  0.00    -0.182 C  
BRANCH   7   8
HETATM    8  O   UNL     1      -9.747  11.120  68.663  1.00  0.00    -0.190 OA 
BRANCH   8   9
HETATM    9  C   UNL     1     -11.060  11.296  68.145  1.00  0.00    -0.259 C  
BRANCH   9  10
HETATM   10  C   UNL     1     -12.018  11.520  69.302  1.00  0.00    -0.330 C  
BRANCH  10  11
HETATM   11  O   UNL     1     -11.692  12.755  69.926  1.00  0.00    -0.302 OA 
BRANCH  11  12
HETATM   12  C   UNL     1     -12.453  13.826  69.381  1.00  0.00    -0.018 C  
BRANCH  12  13
HETATM   13  C   UNL     1     -11.859  14.206  68.036  1.00  0.00    -0.365 C  
BRANCH  13  14
HETATM   14  O   UNL     1     -12.876  14.165  67.044  1.00  0.00     0.157 OA 
BRANCH  14  15
HETATM   15  C   UNL     1     -12.344  13.704  65.808  1.00  0.00    -0.482 C  
BRANCH  15  16
HETATM   16  C   UNL     1     -11.683  14.852  65.063  1.00  0.00    -0.329 C  
BRANCH  16  17
HETATM   17  O   UNL     1     -10.296  14.822  65.377  1.00  0.00    -0.331 OA 
BRANCH  17  18
HETATM   18  C   UNL     1      -9.604  13.802  64.676  1.00  0.00     0.779 C  
BRANCH  18  19
HETATM   19  C   UNL     1     -10.468  12.556  64.702  1.00  0.00    -0.319 C  
BRANCH  19  20
HETATM   20  O   UNL     1      -9.978  11.612  63.760  1.00  0.00    -0.294 OA 
BRANCH  20  21
HETATM   21  C   UNL     1      -9.425  10.461  64.397  1.00  0.00    -0.287 C  
BRANCH  21  22
HETATM   22  C   UNL     1      -9.131   9.358  63.374  1.00  0.00    -0.017 C  
BRANCH  22  23
HETATM   23  O   UNL     1      -7.731   9.158  63.052  1.00  0.00    -0.104 OA 
BRANCH  23  24
HETATM   24  C   UNL     1      -7.025   8.270  63.952  1.00  0.00    -0.076 C  
HETATM   25  C   UNL     1      -6.807   8.939  65.280  1.00  0.00    -0.072 C  
HETATM   26  C   UNL     1      -7.990   8.677  66.380  1.00  0.00    -0.099 C  
HETATM   27  C   UNL     1      -8.531   7.144  66.648  1.00  0.00    -0.121 C  
HETATM   28  C   UNL     1      -8.369   6.053  67.899  1.00  0.00    -0.116 C  
HETATM   29  O   UNL     1      -9.905   7.184  66.237  1.00  0.00    -0.410 OA 
HETATM   30  C   UNL     1      -9.129   4.726  67.810  1.00  0.00    -0.130 C  
HETATM   31  H   UNL     1     -10.217   6.300  66.392  1.00  0.00     0.000 HD 
HETATM   32  C   UNL     1      -8.787   4.203  66.437  1.00  0.00    -0.118 A  
HETATM   33  C   UNL     1      -9.325   3.029  65.945  1.00  0.00    -0.082 A  
HETATM   34  C   UNL     1      -9.279   2.733  64.590  1.00  0.00    -0.135 A  
HETATM   35  C   UNL     1      -8.697   3.652  63.672  1.00  0.00    -0.096 A  
HETATM   36  O   UNL     1      -8.876   3.469  62.336  1.00  0.00    -0.084 OA 
HETATM   37  C   UNL     1      -8.045   4.777  64.172  1.00  0.00    -0.111 A  
HETATM   38  H   UNL     1      -8.487   4.083  61.723  1.00  0.00     0.000 HD 
HETATM   39  C   UNL     1      -8.026   5.058  65.545  1.00  0.00    -0.104 A  
HETATM   40  C   UNL     1      -7.531   6.454  65.808  1.00  0.00    -0.082 C  
HETATM   41  C   UNL     1      -7.760   6.958  64.306  1.00  0.00    -0.113 C  
HETATM   42  C   UNL     1      -6.152   6.754  66.934  1.00  0.00    -0.036 C  
HETATM   43  O   UNL     1      -7.531   5.825  63.425  1.00  0.00    -0.057 OA 
HETATM   44  C   UNL     1      -6.610   7.180  68.621  1.00  0.00    -0.041 C  
HETATM   45  N   UNL     1      -7.888   6.618  69.119  1.00  0.00    -0.109 NA 
BRANCH  45  46
HETATM   46  C   UNL     1      -8.947   7.446  69.668  1.00  0.00    -0.141 C  
BRANCH  46  47
HETATM   47  C   UNL     1     -10.089   6.692  70.264  1.00  0.00    -0.201 C  
HETATM   48  C   UNL     1     -10.070   6.199  71.507  1.00  0.00    -0.227 C  
ENDBRANCH  46  47
ENDBRANCH  45  46
ENDBRANCH  23  24
ENDBRANCH  22  23
ENDBRANCH  21  22
ENDBRANCH  20  21
ENDBRANCH  19  20
ENDBRANCH  18  19
ENDBRANCH  17  18
ENDBRANCH  16  17
ENDBRANCH  15  16
ENDBRANCH  14  15
ENDBRANCH  13  14
ENDBRANCH  12  13
ENDBRANCH  11  12
ENDBRANCH  10  11
ENDBRANCH   9  10
ENDBRANCH   8   9
ENDBRANCH   7   8
ENDBRANCH   6   7
ENDBRANCH   5   6
ENDBRANCH   4   5
ENDBRANCH   3   4
ENDBRANCH   2   3
TORSDOF 24
ENDMDL
MODEL      170
REMARK 921   NORMALIZED FREE ENERGY PREDICTED BY IDOCK:   -1.11 KCAL/MOL
REMARK 922        TOTAL FREE ENERGY PREDICTED BY IDOCK:   -4.96 KCAL/MOL
REMARK 923 INTER-LIGAND FREE ENERGY PREDICTED BY IDOCK:   -6.24 KCAL/MOL
REMARK 924 INTRA-LIGAND FREE ENERGY PREDICTED BY IDOCK:    1.28 KCAL/MOL
REMARK 927      BINDING AFFINITY PREDICTED BY RF-SCORE:    0.00 PKD
ROOT
HETATM    1  C   UNL     1     -11.875  16.471  67.100  1.00  0.00     1.138 C  
HETATM    2  O   UNL     1     -10.961  17.192  67.914  1.00  0.00    -0.343 OA 
ENDROOT
BRANCH   2   3
HETATM    3  C   UNL     1      -9.742  17.452  67.220  1.00  0.00    -0.267 C  
BRANCH   3   4
HETATM    4  C   UNL     1      -8.952  18.513  67.971  1.00  0.00    -0.301 C  
BRANCH   4   5
HETATM    5  O   UNL     1      -7.820  17.900  68.588  1.00  0.00    -0.292 OA 
BRANCH   5   6
HETATM    6  C   UNL     1      -7.751  16.514  68.264  1.00  0.00    -0.176 C  
BRANCH   6   7
HETATM    7  C   UNL     1      -7.483  15.712  69.527  1.00  0.00    -0.192 C  
BRANCH   7   8
HETATM    8  O   UNL     1      -6.909  14.462  69.152  1.00  0.00    -0.107 OA 
BRANCH   8   9
HETATM    9  C   UNL     1      -7.878  13.601  68.567  1.00  0.00    -0.131 C  
BRANCH   9  10
HETATM   10  C   UNL     1      -8.138  14.052  67.141  1.00  0.00    -0.099 C  
BRANCH  10  11
HETATM   11  O   UNL     1      -9.449  13.646  66.771  1.00  0.00    -0.254 OA 
BRANCH  11  12
HETATM   12  C   UNL     1      -9.787  12.394  67.358  1.00  0.00    -0.199 C  
BRANCH  12  13
HETATM   13  C   UNL     1     -11.099  12.549  68.107  1.00  0.00    -0.243 C  
BRANCH  13  14
HETATM   14  O   UNL     1     -11.966  11.476  67.767  1.00  0.00    -0.623 OA 
BRANCH  14  15
HETATM   15  C   UNL     1     -11.780  10.387  68.663  1.00  0.00    -0.002 C  
BRANCH  15  16
HETATM   16  C   UNL     1     -10.851  10.793  69.794  1.00  0.00    -0.226 C  
BRANCH  16  17
HETATM   17  O   UNL     1     -11.452  10.373  71.012  1.00  0.00    -0.328 OA 
BRANCH  17  18
HETATM   18  C   UNL     1     -12.025   9.080  70.916  1.00  0.00    -0.225 C  
BRANCH  18  19
HETATM   19  C   UNL     1     -11.959   8.442  72.291  1.00  0.00    -0.389 C  
BRANCH  19  20
HETATM   20  O   UNL     1     -10.695   7.819  72.472  1.00  0.00    -0.259 OA 
BRANCH  20  21
HETATM   21  C   UNL     1      -9.627   8.764  72.438  1.00  0.00    -0.126 C  
BRANCH  21  22
HETATM   22  C   UNL     1      -8.275   8.057  72.288  1.00  0.00    -0.141 C  
BRANCH  22  23
HETATM   23  O   UNL     1      -7.734   8.016  70.943  1.00  0.00    -0.078 OA 
BRANCH  23  24
HETATM   24  C   UNL     1      -7.149   6.745  70.566  1.00  0.00    -0.068 C  
HETATM   25  C   UNL     1      -7.277   5.758  71.692  1.00  0.00    -0.086 C  
HETATM   26  C   UNL     1      -8.633   4.842  71.646  1.00  0.00    -0.129 C  
HETATM   27  C   UNL     1      -9.068   4.097  70.243  1.00  0.00    -0.105 C  
HETATM   28  C   UNL     1      -9.066   2.515  69.714  1.00  0.00    -0.116 C  
HETATM   29  O   UNL     1     -10.324   4.702  69.903  1.00  0.00    -0.195 OA 
HETATM   30  C   UNL     1      -9.660   2.208  68.336  1.00  0.00    -0.127 C  
HETATM   31  H   UNL     1     -10.575   4.273  69.093  1.00  0.00     0.000 HD 
HETATM   32  C   UNL     1      -8.991   3.205  67.421  1.00  0.00    -0.184 A  
HETATM   33  C   UNL     1      -9.299   3.289  66.077  1.00  0.00    -0.124 A  
HETATM   34  C   UNL     1      -8.944   4.402  65.329  1.00  0.00    -0.140 A  
HETATM   35  C   UNL     1      -8.275   5.498  65.944  1.00  0.00    -0.121 A  
HETATM   36  O   UNL     1      -8.153   6.672  65.268  1.00  0.00    -0.120 OA 
HETATM   37  C   UNL     1      -7.852   5.370  67.264  1.00  0.00    -0.101 A  
HETATM   38  H   UNL     1      -7.706   7.404  65.678  1.00  0.00     0.000 HD 
HETATM   39  C   UNL     1      -8.146   4.225  68.016  1.00  0.00    -0.090 A  
HETATM   40  C   UNL     1      -7.853   4.441  69.476  1.00  0.00    -0.057 C  
HETATM   41  C   UNL     1      -7.812   6.036  69.364  1.00  0.00    -0.099 C  
HETATM   42  C   UNL     1      -6.775   3.314  70.384  1.00  0.00    -0.033 C  
HETATM   43  O   UNL     1      -7.296   6.370  68.047  1.00  0.00    -0.085 OA 
HETATM   44  C   UNL     1      -7.613   2.012  71.301  1.00  0.00    -0.036 C  
HETATM   45  N   UNL     1      -8.907   1.544  70.749  1.00  0.00    -0.054 NA 
BRANCH  45  46
HETATM   46  C   UNL     1     -10.131   1.528  71.529  1.00  0.00    -0.087 C  
BRANCH  46  47
HETATM   47  C   UNL     1      -9.935   1.571  73.008  1.00  0.00    -0.151 C  
HETATM   48  C   UNL     1      -9.001   2.324  73.599  1.00  0.00    -0.072 C  
ENDBRANCH  46  47
ENDBRANCH  45  46
ENDBRANCH  23  24
ENDBRANCH  22  23
ENDBRANCH  21  22
ENDBRANCH  20  21
ENDBRANCH  19  20
ENDBRANCH  18  19
ENDBRANCH  17  18
ENDBRANCH  16  17
ENDBRANCH  15  16
ENDBRANCH  14  15
ENDBRANCH  13  14
ENDBRANCH  12  13
ENDBRANCH  11  12
ENDBRANCH  10  11
ENDBRANCH   9  10
ENDBRANCH   8   9
ENDBRANCH   7   8
ENDBRANCH   6   7
ENDBRANCH   5   6
ENDBRANCH   4   5
ENDBRANCH   3   4
ENDBRANCH   2   3
TORSDOF 24
ENDMDL
MODEL      171
REMARK 921   NORMALIZED FREE ENERGY PREDICTED BY IDOCK:   -1.06 KCAL/MOL
REMARK 922        TOTAL FREE ENERGY PREDICTED BY IDOCK:   -4.84 KCAL/MOL
REMARK 923 INTER-LIGAND FREE ENERGY PREDICTED BY IDOCK:   -6.33 KCAL/MOL
REMARK 924 INTRA-LIGAND FREE ENERGY PREDICTED BY IDOCK:    1.49 KCAL/MOL
REMARK 927      BINDING AFFINITY PREDICTED BY RF-SCORE:    0.00 PKD
ROOT
HETATM    1  C   UNL     1     -10.999  18.916  66.667  1.00  0.00    -0.016 C  
HETATM    2  O   UNL     1     -10.670  19.767  67.756  1.00  0.00    -0.407 OA 
ENDROOT
BRANCH   2   3
HETATM    3  C   UNL     1      -9.348  20.286  67.627  1.00  0.00    -0.353 C  
BRANCH   3   4
HETATM    4  C   UNL     1      -8.485  19.753  68.762  1.00  0.00    -0.151 C  
BRANCH   4   5
HETATM    5  O   UNL     1      -9.151  18.648  69.372  1.00  0.00     0.090 OA 
BRANCH   5   6
HETATM    6  C   UNL     1      -9.372  17.603  68.430  1.00  0.00    -0.289 C  
BRANCH   6   7
HETATM    7  C   UNL     1      -9.529  16.282  69.166  1.00  0.00    -0.246 C  
BRANCH   7   8
HETATM    8  O   UNL     1      -8.255  15.646  69.225  1.00  0.00    -0.227 OA 
BRANCH   8   9
HETATM    9  C   UNL     1      -7.868  15.141  67.953  1.00  0.00    -0.135 C  
BRANCH   9  10
HETATM   10  C   UNL     1      -7.401  13.705  68.116  1.00  0.00    -0.121 C  
BRANCH  10  11
HETATM   11  O   UNL     1      -7.277  13.122  66.825  1.00  0.00     0.268 OA 
BRANCH  11  12
HETATM   12  C   UNL     1      -8.393  12.293  66.523  1.00  0.00     0.064 C  
BRANCH  12  13
HETATM   13  C   UNL     1      -9.391  12.393  67.663  1.00  0.00    -0.188 C  
BRANCH  13  14
HETATM   14  O   UNL     1     -10.515  13.152  67.240  1.00  0.00    -0.241 OA 
BRANCH  14  15
HETATM   15  C   UNL     1     -11.683  12.740  67.939  1.00  0.00    -0.357 C  
BRANCH  15  16
HETATM   16  C   UNL     1     -12.031  13.751  69.018  1.00  0.00    -0.360 C  
BRANCH  16  17
HETATM   17  O   UNL     1     -11.781  13.136  70.276  1.00  0.00    -0.250 OA 
BRANCH  17  18
HETATM   18  C   UNL     1     -12.565  11.972  70.475  1.00  0.00    -0.109 C  
BRANCH  18  19
HETATM   19  C   UNL     1     -11.746  10.779  70.018  1.00  0.00    -0.336 C  
BRANCH  19  20
HETATM   20  O   UNL     1     -11.350  10.009  71.145  1.00  0.00    -0.360 OA 
BRANCH  20  21
HETATM   21  C   UNL     1     -12.304   8.996  71.459  1.00  0.00    -0.331 C  
BRANCH  21  22
HETATM   22  C   UNL     1     -11.691   7.599  71.303  1.00  0.00    -0.284 C  
BRANCH  22  23
HETATM   23  O   UNL     1     -11.355   6.919  72.539  1.00  0.00    -0.259 OA 
BRANCH  23  24
HETATM   24  C   UNL     1     -10.124   6.158  72.494  1.00  0.00    -0.178 C  
HETATM   25  C   UNL     1     -10.421   4.688  72.403  1.00  0.00    -0.250 C  
HETATM   26  C   UNL     1     -10.522   4.104  70.877  1.00  0.00     0.374 C  
HETATM   27  C   UNL     1      -9.345   4.471  69.783  1.00  0.00    -0.153 C  
HETATM   28  C   UNL     1      -8.110   3.608  69.069  1.00  0.00    -0.057 C  
HETATM   29  O   UNL     1     -10.030   5.229  68.777  1.00  0.00    -0.153 OA 
HETATM   30  C   UNL     1      -7.265   4.301  67.995  1.00  0.00    -0.064 C  
HETATM   31  H   UNL     1      -9.351   5.440  68.146  1.00  0.00     0.000 HD 
HETATM   32  C   UNL     1      -6.866   5.608  68.635  1.00  0.00    -0.059 A  
HETATM   33  C   UNL     1      -6.125   6.558  67.958  1.00  0.00    -0.027 A  
HETATM   34  C   UNL     1      -6.052   7.866  68.414  1.00  0.00    -0.044 A  
HETATM   35  C   UNL     1      -6.765   8.263  69.581  1.00  0.00    -0.037 A  
HETATM   36  O   UNL     1      -6.885   9.585  69.877  1.00  0.00    -0.052 OA 
HETATM   37  C   UNL     1      -7.412   7.287  70.336  1.00  0.00    -0.083 A  
HETATM   38  H   UNL     1      -7.361   9.849  70.655  1.00  0.00     0.000 HD 
HETATM   39  C   UNL     1      -7.442   5.948  69.922  1.00  0.00    -0.079 A  
HETATM   40  C   UNL     1      -8.433   5.152  70.726  1.00  0.00    -0.119 C  
HETATM   41  C   UNL     1      -9.213   6.436  71.278  1.00  0.00    -0.156 C  
HETATM   42  C   UNL     1      -7.939   3.641  71.580  1.00  0.00    -0.062 C  
HETATM   43  O   UNL     1      -8.242   7.508  71.423  1.00  0.00    -0.104 OA 
HETATM   44  C   UNL     1      -8.252   2.110  70.687  1.00  0.00    -0.048 C  
HETATM   45  N   UNL     1      -8.219   2.191  69.208  1.00  0.00    -0.044 NA 
BRANCH  45  46
HETATM   46  C   UNL     1      -9.324   1.751  68.374  1.00  0.00    -0.192 C  
BRANCH  46  47
HETATM   47  C   UNL     1      -9.317   2.296  66.984  1.00  0.00    -0.024 C  
HETATM   48  C   UNL     1      -8.822   1.626  65.939  1.00  0.00    -0.119 C  
ENDBRANCH  46  47
ENDBRANCH  45  46
ENDBRANCH  23  24
ENDBRANCH  22  23
ENDBRANCH  21  22
ENDBRANCH  20  21
ENDBRANCH  19  20
ENDBRANCH  18  19
ENDBRANCH  17  18
ENDBRANCH  16  17
ENDBRANCH  15  16
ENDBRANCH  14  15
ENDBRANCH  13  14
ENDBRANCH  12  13
ENDBRANCH  11  12
ENDBRANCH  10  11
ENDBRANCH   9  10
ENDBRANCH   8   9
ENDBRANCH   7   8
ENDBRANCH   6   7
ENDBRANCH   5   6
ENDBRANCH   4   5
ENDBRANCH   3   4
ENDBRANCH   2   3
TORSDOF 24
ENDMDL
MODEL      172
REMARK 921   NORMALIZED FREE ENERGY PREDICTED BY IDOCK:   -1.06 KCAL/MOL
REMARK 922        TOTAL FREE ENERGY PREDICTED BY IDOCK:   -4.83 KCAL/MOL
REMARK 923 INTER-LIGAND FREE ENERGY PREDICTED BY IDOCK:   -2.98 KCAL/MOL
REMARK 924 INTRA-LIGAND FREE ENERGY PREDICTED BY IDOCK:   -1.85 KCAL/MOL
REMARK 927      BINDING AFFINITY PREDICTED BY RF-SCORE:    0.00 PKD
ROOT
HETATM    1  C   UNL     1      -7.248   2.101  71.758  1.00  0.00    -0.035 C  
HETATM    2  O   UNL     1      -8.427   2.301  70.989  1.00  0.00    -0.052 OA 
ENDROOT
BRANCH   2   3
HETATM    3  C   UNL     1      -8.262   1.823  69.655  1.00  0.00    -0.044 C  
BRANCH   3   4
HETATM    4  C   UNL     1      -7.674   2.931  68.794  1.00  0.00    -0.047 C  
BRANCH   4   5
HETATM    5  O   UNL     1      -8.398   4.138  69.030  1.00  0.00    -0.076 OA 
BRANCH   5   6
HETATM    6  C   UNL     1      -9.555   4.209  68.202  1.00  0.00    -0.134 C  
BRANCH   6   7
HETATM    7  C   UNL     1     -10.200   5.577  68.349  1.00  0.00    -0.180 C  
BRANCH   7   8
HETATM    8  O   UNL     1      -9.492   6.302  69.352  1.00  0.00    -0.139 OA 
BRANCH   8   9
HETATM    9  C   UNL     1     -10.334   6.619  70.454  1.00  0.00    -0.199 C  
BRANCH   9  10
HETATM   10  C   UNL     1     -11.761   6.771  69.954  1.00  0.00    -0.221 C  
BRANCH  10  11
HETATM   11  O   UNL     1     -12.647   6.478  71.026  1.00  0.00    -0.201 OA 
BRANCH  11  12
HETATM   12  C   UNL     1     -12.628   7.506  72.009  1.00  0.00    -0.237 C  
BRANCH  12  13
HETATM   13  C   UNL     1     -14.022   8.101  72.114  1.00  0.00    -0.272 C  
BRANCH  13  14
HETATM   14  O   UNL     1     -13.984   9.463  71.713  1.00  0.00    -0.307 OA 
BRANCH  14  15
HETATM   15  C   UNL     1     -13.255  10.238  72.658  1.00  0.00     0.476 C  
BRANCH  15  16
HETATM   16  C   UNL     1     -12.284  11.159  71.940  1.00  0.00     0.555 C  
BRANCH  16  17
HETATM   17  O   UNL     1     -12.791  12.483  72.047  1.00  0.00    -0.264 OA 
BRANCH  17  18
HETATM   18  C   UNL     1     -12.926  13.114  70.785  1.00  0.00    -0.001 C  
BRANCH  18  19
HETATM   19  C   UNL     1     -12.383  14.525  70.914  1.00  0.00    -0.345 C  
BRANCH  19  20
HETATM   20  O   UNL     1     -12.023  15.020  69.631  1.00  0.00    -0.298 OA 
BRANCH  20  21
HETATM   21  C   UNL     1     -12.632  14.272  68.581  1.00  0.00     0.455 C  
BRANCH  21  22
HETATM   22  C   UNL     1     -11.825  13.006  68.271  1.00  0.00    -0.343 C  
BRANCH  22  23
HETATM   23  O   UNL     1     -10.956  13.084  67.112  1.00  0.00    -0.260 OA 
BRANCH  23  24
HETATM   24  C   UNL     1      -9.544  12.945  67.406  1.00  0.00    -0.203 C  
HETATM   25  C   UNL     1      -9.329  12.823  68.889  1.00  0.00     0.281 C  
HETATM   26  C   UNL     1      -9.322  11.287  69.454  1.00  0.00     0.364 C  
HETATM   27  C   UNL     1      -8.413  10.142  68.696  1.00  0.00    -0.122 C  
HETATM   28  C   UNL     1      -7.006   9.331  69.077  1.00  0.00    -0.059 C  
HETATM   29  O   UNL     1      -9.378   9.200  68.206  1.00  0.00    -0.135 OA 
HETATM   30  C   UNL     1      -6.517   8.235  68.126  1.00  0.00    -0.056 C  
HETATM   31  H   UNL     1      -8.852   8.539  67.769  1.00  0.00     0.000 HD 
HETATM   32  C   UNL     1      -6.546   8.893  66.768  1.00  0.00    -0.064 A  
HETATM   33  C   UNL     1      -6.218   8.207  65.614  1.00  0.00    -0.045 A  
HETATM   34  C   UNL     1      -6.565   8.701  64.365  1.00  0.00    -0.070 A  
HETATM   35  C   UNL     1      -7.294   9.918  64.249  1.00  0.00    -0.133 A  
HETATM   36  O   UNL     1      -7.837  10.262  63.051  1.00  0.00    -0.147 OA 
HETATM   37  C   UNL     1      -7.521  10.675  65.396  1.00  0.00    -0.028 A  
HETATM   38  H   UNL     1      -8.324  11.074  62.973  1.00  0.00     0.000 HD 
HETATM   39  C   UNL     1      -7.120  10.222  66.660  1.00  0.00    -0.108 A  
HETATM   40  C   UNL     1      -7.729  11.053  67.755  1.00  0.00    -0.108 C  
HETATM   41  C   UNL     1      -8.862  11.689  66.821  1.00  0.00    -0.184 C  
HETATM   42  C   UNL     1      -6.697  11.829  69.017  1.00  0.00    -0.102 C  
HETATM   43  O   UNL     1      -8.306  11.814  65.483  1.00  0.00     0.314 OA 
HETATM   44  C   UNL     1      -6.527  10.906  70.552  1.00  0.00     0.064 C  
HETATM   45  N   UNL     1      -6.618   9.430  70.448  1.00  0.00    -0.066 NA 
BRANCH  45  46
HETATM   46  C   UNL     1      -7.558   8.646  71.229  1.00  0.00    -0.110 C  
BRANCH  46  47
HETATM   47  C   UNL     1      -7.002   7.383  71.798  1.00  0.00    -0.062 C  
HETATM   48  C   UNL     1      -5.691   7.128  71.868  1.00  0.00    -0.037 C  
ENDBRANCH  46  47
ENDBRANCH  45  46
ENDBRANCH  23  24
ENDBRANCH  22  23
ENDBRANCH  21  22
ENDBRANCH  20  21
ENDBRANCH  19  20
ENDBRANCH  18  19
ENDBRANCH  17  18
ENDBRANCH  16  17
ENDBRANCH  15  16
ENDBRANCH  14  15
ENDBRANCH  13  14
ENDBRANCH  12  13
ENDBRANCH  11  12
ENDBRANCH  10  11
ENDBRANCH   9  10
ENDBRANCH   8   9
ENDBRANCH   7   8
ENDBRANCH   6   7
ENDBRANCH   5   6
ENDBRANCH   4   5
ENDBRANCH   3   4
ENDBRANCH   2   3
TORSDOF 24
ENDMDL
MODEL      173
REMARK 921   NORMALIZED FREE ENERGY PREDICTED BY IDOCK:   -0.93 KCAL/MOL
REMARK 922        TOTAL FREE ENERGY PREDICTED BY IDOCK:   -4.53 KCAL/MOL
REMARK 923 INTER-LIGAND FREE ENERGY PREDICTED BY IDOCK:   -5.75 KCAL/MOL
REMARK 924 INTRA-LIGAND FREE ENERGY PREDICTED BY IDOCK:    1.21 KCAL/MOL
REMARK 927      BINDING AFFINITY PREDICTED BY RF-SCORE:    0.00 PKD
ROOT
HETATM    1  C   UNL     1     -11.937  14.986  65.010  1.00  0.00    -0.191 C  
HETATM    2  O   UNL     1     -12.448  14.356  66.176  1.00  0.00    -0.392 OA 
ENDROOT
BRANCH   2   3
HETATM    3  C   UNL     1     -11.699  14.721  67.334  1.00  0.00    -0.350 C  
BRANCH   3   4
HETATM    4  C   UNL     1     -12.160  16.087  67.821  1.00  0.00     0.744 C  
BRANCH   4   5
HETATM    5  O   UNL     1     -11.505  17.099  67.057  1.00  0.00     0.469 OA 
BRANCH   5   6
HETATM    6  C   UNL     1     -10.612  17.855  67.870  1.00  0.00    -0.376 C  
BRANCH   6   7
HETATM    7  C   UNL     1      -9.258  17.946  67.187  1.00  0.00    -0.258 C  
BRANCH   7   8
HETATM    8  O   UNL     1      -9.070  16.771  66.403  1.00  0.00    -0.254 OA 
BRANCH   8   9
HETATM    9  C   UNL     1      -8.495  15.720  67.172  1.00  0.00    -0.208 C  
BRANCH   9  10
HETATM   10  C   UNL     1      -8.517  16.117  68.638  1.00  0.00    -0.216 C  
BRANCH  10  11
HETATM   11  O   UNL     1      -7.208  15.953  69.168  1.00  0.00    -0.170 OA 
BRANCH  11  12
HETATM   12  C   UNL     1      -6.215  16.269  68.200  1.00  0.00    -0.124 C  
BRANCH  12  13
HETATM   13  C   UNL     1      -5.591  14.974  67.708  1.00  0.00    -0.071 C  
BRANCH  13  14
HETATM   14  O   UNL     1      -5.776  13.961  68.686  1.00  0.00    -0.078 OA 
BRANCH  14  15
HETATM   15  C   UNL     1      -5.147  12.753  68.273  1.00  0.00    -0.069 C  
BRANCH  15  16
HETATM   16  C   UNL     1      -6.081  11.955  67.381  1.00  0.00    -0.119 C  
BRANCH  16  17
HETATM   17  O   UNL     1      -7.351  11.914  68.019  1.00  0.00    -0.087 OA 
BRANCH  17  18
HETATM   18  C   UNL     1      -8.325  12.688  67.338  1.00  0.00    -0.184 C  
BRANCH  18  19
HETATM   19  C   UNL     1      -9.582  11.847  67.219  1.00  0.00    -0.177 C  
BRANCH  19  20
HETATM   20  O   UNL     1      -9.261  10.475  67.397  1.00  0.00    -0.142 OA 
BRANCH  20  21
HETATM   21  C   UNL     1      -9.200  10.117  68.777  1.00  0.00    -0.164 C  
BRANCH  21  22
HETATM   22  C   UNL     1      -8.349   8.859  68.979  1.00  0.00    -0.124 C  
BRANCH  22  23
HETATM   23  O   UNL     1      -8.031   8.115  67.775  1.00  0.00    -0.122 OA 
BRANCH  23  24
HETATM   24  C   UNL     1      -9.029   7.142  67.385  1.00  0.00    -0.122 C  
HETATM   25  C   UNL     1      -8.868   6.781  65.935  1.00  0.00    -0.127 C  
HETATM   26  C   UNL     1      -7.894   5.496  65.654  1.00  0.00    -0.101 C  
HETATM   27  C   UNL     1      -8.101   4.109  66.519  1.00  0.00    -0.101 C  
HETATM   28  C   UNL     1      -8.696   2.592  66.164  1.00  0.00    -0.128 C  
HETATM   29  O   UNL     1      -6.877   3.972  67.254  1.00  0.00    -0.049 OA 
HETATM   30  C   UNL     1      -8.629   1.513  67.248  1.00  0.00    -0.108 C  
HETATM   31  H   UNL     1      -6.997   3.172  67.753  1.00  0.00     0.000 HD 
HETATM   32  C   UNL     1      -9.223   2.180  68.463  1.00  0.00    -0.233 A  
HETATM   33  C   UNL     1      -9.299   1.542  69.687  1.00  0.00    -0.158 A  
HETATM   34  C   UNL     1      -9.525   2.257  70.854  1.00  0.00    -0.212 A  
HETATM   35  C   UNL     1      -9.659   3.674  70.816  1.00  0.00    -0.179 A  
HETATM   36  O   UNL     1      -9.634   4.381  71.978  1.00  0.00    -0.138 OA 
HETATM   37  C   UNL     1      -9.707   4.310  69.577  1.00  0.00    -0.201 A  
HETATM   38  H   UNL     1      -9.722   5.326  71.952  1.00  0.00     0.000 HD 
HETATM   39  C   UNL     1      -9.543   3.594  68.384  1.00  0.00    -0.164 A  
HETATM   40  C   UNL     1      -9.338   4.520  67.217  1.00  0.00    -0.165 C  
HETATM   41  C   UNL     1      -8.961   5.785  68.121  1.00  0.00    -0.114 C  
HETATM   42  C   UNL     1     -10.384   4.414  65.750  1.00  0.00    -0.246 C  
HETATM   43  O   UNL     1      -9.715   5.678  69.360  1.00  0.00    -0.141 OA 
HETATM   44  C   UNL     1      -9.719   3.435  64.395  1.00  0.00    -0.168 C  
HETATM   45  N   UNL     1      -8.820   2.316  64.768  1.00  0.00    -0.112 NA 
BRANCH  45  46
HETATM   46  C   UNL     1      -7.480   2.174  64.227  1.00  0.00    -0.059 C  
BRANCH  46  47
HETATM   47  C   UNL     1      -7.170   3.070  63.074  1.00  0.00    -0.048 C  
HETATM   48  C   UNL     1      -6.012   3.029  62.407  1.00  0.00    -0.009 C  
ENDBRANCH  46  47
ENDBRANCH  45  46
ENDBRANCH  23  24
ENDBRANCH  22  23
ENDBRANCH  21  22
ENDBRANCH  20  21
ENDBRANCH  19  20
ENDBRANCH  18  19
ENDBRANCH  17  18
ENDBRANCH  16  17
ENDBRANCH  15  16
ENDBRANCH  14  15
ENDBRANCH  13  14
ENDBRANCH  12  13
ENDBRANCH  11  12
ENDBRANCH  10  11
ENDBRANCH   9  10
ENDBRANCH   8   9
ENDBRANCH   7   8
ENDBRANCH   6   7
ENDBRANCH   5   6
ENDBRANCH   4   5
ENDBRANCH   3   4
ENDBRANCH   2   3
TORSDOF 24
ENDMDL
MODEL      174
REMARK 921   NORMALIZED FREE ENERGY PREDICTED BY IDOCK:   -0.91 KCAL/MOL
REMARK 922        TOTAL FREE ENERGY PREDICTED BY IDOCK:   -4.47 KCAL/MOL
REMARK 923 INTER-LIGAND FREE ENERGY PREDICTED BY IDOCK:   -3.99 KCAL/MOL
REMARK 924 INTRA-LIGAND FREE ENERGY PREDICTED BY IDOCK:   -0.48 KCAL/MOL
REMARK 927      BINDING AFFINITY PREDICTED BY RF-SCORE:    0.00 PKD
ROOT
HETATM    1  C   UNL     1      -7.477   6.157  72.811  1.00  0.00    -0.094 C  
HETATM    2  O   UNL     1      -8.780   5.796  72.376  1.00  0.00    -0.128 OA 
ENDROOT
BRANCH   2   3
HETATM    3  C   UNL     1      -9.635   5.511  73.482  1.00  0.00    -0.139 C  
BRANCH   3   4
HETATM    4  C   UNL     1     -10.493   4.298  73.155  1.00  0.00    -0.181 C  
BRANCH   4   5
HETATM    5  O   UNL     1      -9.732   3.391  72.358  1.00  0.00    -0.129 OA 
BRANCH   5   6
HETATM    6  C   UNL     1      -8.857   2.610  73.169  1.00  0.00    -0.078 C  
BRANCH   6   7
HETATM    7  C   UNL     1      -7.428   2.779  72.680  1.00  0.00    -0.045 C  
BRANCH   7   8
HETATM    8  O   UNL     1      -7.146   1.738  71.748  1.00  0.00    -0.029 OA 
BRANCH   8   9
HETATM    9  C   UNL     1      -7.642   2.053  70.453  1.00  0.00    -0.039 C  
BRANCH   9  10
HETATM   10  C   UNL     1      -6.799   3.170  69.863  1.00  0.00    -0.034 C  
BRANCH  10  11
HETATM   11  O   UNL     1      -7.601   4.342  69.777  1.00  0.00    -0.053 OA 
BRANCH  11  12
HETATM   12  C   UNL     1      -7.310   5.081  68.596  1.00  0.00    -0.062 C  
BRANCH  12  13
HETATM   13  C   UNL     1      -5.810   5.048  68.362  1.00  0.00    -0.017 C  
BRANCH  13  14
HETATM   14  O   UNL     1      -5.486   3.940  67.533  1.00  0.00    -0.015 OA 
BRANCH  14  15
HETATM   15  C   UNL     1      -6.549   3.673  66.627  1.00  0.00    -0.041 C  
BRANCH  15  16
HETATM   16  C   UNL     1      -6.220   4.235  65.255  1.00  0.00    -0.027 C  
BRANCH  16  17
HETATM   17  O   UNL     1      -5.861   5.600  65.427  1.00  0.00    -0.020 OA 
BRANCH  17  18
HETATM   18  C   UNL     1      -6.473   6.447  64.469  1.00  0.00    -0.034 C  
BRANCH  18  19
HETATM   19  C   UNL     1      -5.397   7.352  63.898  1.00  0.00    -0.029 C  
BRANCH  19  20
HETATM   20  O   UNL     1      -5.911   8.667  63.736  1.00  0.00    -0.071 OA 
BRANCH  20  21
HETATM   21  C   UNL     1      -7.038   8.905  64.578  1.00  0.00    -0.089 C  
BRANCH  21  22
HETATM   22  C   UNL     1      -6.602   9.515  65.915  1.00  0.00    -0.078 C  
BRANCH  22  23
HETATM   23  O   UNL     1      -6.183  10.903  65.866  1.00  0.00    -0.132 OA 
BRANCH  23  24
HETATM   24  C   UNL     1      -6.735  11.738  66.912  1.00  0.00    -0.105 C  
HETATM   25  C   UNL     1      -7.468  12.906  66.315  1.00  0.00     1.713 C  
HETATM   26  C   UNL     1      -9.062  12.650  66.048  1.00  0.00     0.099 C  
HETATM   27  C   UNL     1      -9.995  12.000  67.240  1.00  0.00    -0.194 C  
HETATM   28  C   UNL     1     -11.182  12.598  68.247  1.00  0.00    -0.272 C  
HETATM   29  O   UNL     1     -10.432  10.747  66.695  1.00  0.00    -0.236 OA 
HETATM   30  C   UNL     1     -11.902  11.622  69.183  1.00  0.00    -0.390 C  
HETATM   31  H   UNL     1     -10.970  10.371  67.383  1.00  0.00     0.000 HD 
HETATM   32  C   UNL     1     -10.780  10.876  69.863  1.00  0.00    -0.135 A  
HETATM   33  C   UNL     1     -11.019   9.855  70.762  1.00  0.00    -0.407 A  
HETATM   34  C   UNL     1     -10.016   8.965  71.119  1.00  0.00    -0.342 A  
HETATM   35  C   UNL     1      -8.720   9.074  70.539  1.00  0.00    -0.207 A  
HETATM   36  O   UNL     1      -7.826   8.062  70.705  1.00  0.00    -0.086 OA 
HETATM   37  C   UNL     1      -8.437  10.171  69.729  1.00  0.00    -0.128 A  
HETATM   38  H   UNL     1      -6.960   8.134  70.318  1.00  0.00     0.000 HD 
HETATM   39  C   UNL     1      -9.422  11.114  69.411  1.00  0.00     0.221 A  
HETATM   40  C   UNL     1      -8.968  12.023  68.302  1.00  0.00    -0.186 C  
HETATM   41  C   UNL     1      -7.784  11.060  67.822  1.00  0.00    -0.108 C  
HETATM   42  C   UNL     1      -8.994  13.817  68.500  1.00  0.00    -0.120 C  
HETATM   43  O   UNL     1      -7.277  10.370  68.997  1.00  0.00    -0.073 OA 
HETATM   44  C   UNL     1     -10.453  14.645  67.850  1.00  0.00    -0.242 C  
HETATM   45  N   UNL     1     -11.712  13.864  67.853  1.00  0.00    -0.341 NA 
BRANCH  45  46
HETATM   46  C   UNL     1     -12.506  13.653  66.655  1.00  0.00    -0.240 C  
BRANCH  46  47
HETATM   47  C   UNL     1     -12.270  14.643  65.563  1.00  0.00    -0.200 C  
HETATM   48  C   UNL     1     -12.273  14.316  64.267  1.00  0.00    -0.451 C  
ENDBRANCH  46  47
ENDBRANCH  45  46
ENDBRANCH  23  24
ENDBRANCH  22  23
ENDBRANCH  21  22
ENDBRANCH  20  21
ENDBRANCH  19  20
ENDBRANCH  18  19
ENDBRANCH  17  18
ENDBRANCH  16  17
ENDBRANCH  15  16
ENDBRANCH  14  15
ENDBRANCH  13  14
ENDBRANCH  12  13
ENDBRANCH  11  12
ENDBRANCH  10  11
ENDBRANCH   9  10
ENDBRANCH   8   9
ENDBRANCH   7   8
ENDBRANCH   6   7
ENDBRANCH   5   6
ENDBRANCH   4   5
ENDBRANCH   3   4
ENDBRANCH   2   3
TORSDOF 24
ENDMDL
MODEL      175
REMARK 921   NORMALIZED FREE ENERGY PREDICTED BY IDOCK:   -0.88 KCAL/MOL
REMARK 922        TOTAL FREE ENERGY PREDICTED BY IDOCK:   -4.41 KCAL/MOL
REMARK 923 INTER-LIGAND FREE ENERGY PREDICTED BY IDOCK:   -4.43 KCAL/MOL
REMARK 924 INTRA-LIGAND FREE ENERGY PREDICTED BY IDOCK:    0.01 KCAL/MOL
REMARK 927      BINDING AFFINITY PREDICTED BY RF-SCORE:    0.00 PKD
ROOT
HETATM    1  C   UNL     1      -7.274  10.067  71.983  1.00  0.00     2.205 C  
HETATM    2  O   UNL     1      -6.479   8.894  71.874  1.00  0.00    -0.090 OA 
ENDROOT
BRANCH   2   3
HETATM    3  C   UNL     1      -7.291   7.724  71.782  1.00  0.00    -0.068 C  
BRANCH   3   4
HETATM    4  C   UNL     1      -7.515   7.382  70.316  1.00  0.00    -0.083 C  
BRANCH   4   5
HETATM    5  O   UNL     1      -8.408   6.272  70.229  1.00  0.00    -0.122 OA 
BRANCH   5   6
HETATM    6  C   UNL     1      -7.831   5.107  70.812  1.00  0.00    -0.088 C  
BRANCH   6   7
HETATM    7  C   UNL     1      -8.047   3.919  69.890  1.00  0.00    -0.054 C  
BRANCH   7   8
HETATM    8  O   UNL     1      -7.458   4.217  68.626  1.00  0.00    -0.059 OA 
BRANCH   8   9
HETATM    9  C   UNL     1      -6.083   3.855  68.597  1.00  0.00    -0.031 C  
BRANCH   9  10
HETATM   10  C   UNL     1      -5.521   4.170  67.221  1.00  0.00    -0.013 C  
BRANCH  10  11
HETATM   11  O   UNL     1      -6.460   3.744  66.243  1.00  0.00    -0.035 OA 
BRANCH  11  12
HETATM   12  C   UNL     1      -6.060   4.138  64.936  1.00  0.00    -0.023 C  
BRANCH  12  13
HETATM   13  C   UNL     1      -6.345   5.620  64.769  1.00  0.00    -0.037 C  
BRANCH  13  14
HETATM   14  O   UNL     1      -7.690   5.886  65.141  1.00  0.00    -0.083 OA 
BRANCH  14  15
HETATM   15  C   UNL     1      -7.733   6.806  66.225  1.00  0.00    -0.098 C  
BRANCH  15  16
HETATM   16  C   UNL     1      -9.019   7.612  66.176  1.00  0.00    -0.161 C  
BRANCH  16  17
HETATM   17  O   UNL     1      -8.667   8.961  65.893  1.00  0.00    -0.149 OA 
BRANCH  17  18
HETATM   18  C   UNL     1      -7.376   9.074  65.317  1.00  0.00    -0.092 C  
BRANCH  18  19
HETATM   19  C   UNL     1      -6.628  10.157  66.071  1.00  0.00    -0.102 C  
BRANCH  19  20
HETATM   20  O   UNL     1      -5.581   9.575  66.836  1.00  0.00    -0.045 OA 
BRANCH  20  21
HETATM   21  C   UNL     1      -5.672   9.925  68.216  1.00  0.00    -0.042 C  
BRANCH  21  22
HETATM   22  C   UNL     1      -6.661  11.077  68.424  1.00  0.00    -0.060 C  
BRANCH  22  23
HETATM   23  O   UNL     1      -6.213  12.380  67.970  1.00  0.00    -0.066 OA 
BRANCH  23  24
HETATM   24  C   UNL     1      -7.192  13.121  67.201  1.00  0.00     0.093 C  
HETATM   25  C   UNL     1      -8.544  12.474  67.316  1.00  0.00    -0.191 C  
HETATM   26  C   UNL     1      -9.471  13.041  68.540  1.00  0.00    -0.098 C  
HETATM   27  C   UNL     1      -9.649  14.666  68.745  1.00  0.00    -0.210 C  
HETATM   28  C   UNL     1     -10.899  15.742  68.500  1.00  0.00    -0.290 C  
HETATM   29  O   UNL     1      -9.056  14.921  70.026  1.00  0.00    -0.411 OA 
HETATM   30  C   UNL     1     -10.695  17.202  68.917  1.00  0.00    -0.257 C  
HETATM   31  H   UNL     1      -9.158  15.859  70.145  1.00  0.00     0.000 HD 
HETATM   32  C   UNL     1      -9.375  17.578  68.290  1.00  0.00    -0.281 A  
HETATM   33  C   UNL     1      -8.804  18.822  68.476  1.00  0.00    -0.378 A  
HETATM   34  C   UNL     1      -7.465  19.045  68.189  1.00  0.00    -0.306 A  
HETATM   35  C   UNL     1      -6.643  17.982  67.719  1.00  0.00    -0.187 A  
HETATM   36  O   UNL     1      -5.294  18.146  67.677  1.00  0.00    -0.144 OA 
HETATM   37  C   UNL     1      -7.237  16.760  67.413  1.00  0.00    -0.160 A  
HETATM   38  H   UNL     1      -4.745  17.437  67.364  1.00  0.00     0.000 HD 
HETATM   39  C   UNL     1      -8.603  16.538  67.637  1.00  0.00    -0.189 A  
HETATM   40  C   UNL     1      -8.944  15.078  67.513  1.00  0.00    -0.189 C  
HETATM   41  C   UNL     1      -7.431  14.579  67.655  1.00  0.00    -0.177 C  
HETATM   42  C   UNL     1     -10.249  14.520  66.398  1.00  0.00    -0.293 C  
HETATM   43  O   UNL     1      -6.577  15.594  67.060  1.00  0.00    -0.283 OA 
HETATM   44  C   UNL     1     -11.863  14.277  67.155  1.00  0.00    -0.425 C  
HETATM   45  N   UNL     1     -12.179  15.133  68.323  1.00  0.00    -0.018 NA 
BRANCH  45  46
HETATM   46  C   UNL     1     -12.587  14.589  69.606  1.00  0.00    -0.070 C  
BRANCH  46  47
HETATM   47  C   UNL     1     -11.953  13.286  69.966  1.00  0.00    -0.399 C  
HETATM   48  C   UNL     1     -12.626  12.276  70.526  1.00  0.00    -0.173 C  
ENDBRANCH  46  47
ENDBRANCH  45  46
ENDBRANCH  23  24
ENDBRANCH  22  23
ENDBRANCH  21  22
ENDBRANCH  20  21
ENDBRANCH  19  20
ENDBRANCH  18  19
ENDBRANCH  17  18
ENDBRANCH  16  17
ENDBRANCH  15  16
ENDBRANCH  14  15
ENDBRANCH  13  14
ENDBRANCH  12  13
ENDBRANCH  11  12
ENDBRANCH  10  11
ENDBRANCH   9  10
ENDBRANCH   8   9
ENDBRANCH   7   8
ENDBRANCH   6   7
ENDBRANCH   5   6
ENDBRANCH   4   5
ENDBRANCH   3   4
ENDBRANCH   2   3
TORSDOF 24
ENDMDL
MODEL      176
REMARK 921   NORMALIZED FREE ENERGY PREDICTED BY IDOCK:   -0.87 KCAL/MOL
REMARK 922        TOTAL FREE ENERGY PREDICTED BY IDOCK:   -4.37 KCAL/MOL
REMARK 923 INTER-LIGAND FREE ENERGY PREDICTED BY IDOCK:   -4.54 KCAL/MOL
REMARK 924 INTRA-LIGAND FREE ENERGY PREDICTED BY IDOCK:    0.16 KCAL/MOL
REMARK 927      BINDING AFFINITY PREDICTED BY RF-SCORE:    0.00 PKD
ROOT
HETATM    1  C   UNL     1     -10.962  20.329  68.405  1.00  0.00     0.729 C  
HETATM    2  O   UNL     1     -10.944  19.340  67.385  1.00  0.00    -0.484 OA 
ENDROOT
BRANCH   2   3
HETATM    3  C   UNL     1     -10.856  18.027  67.937  1.00  0.00    -0.209 C  
BRANCH   3   4
HETATM    4  C   UNL     1      -9.637  17.943  68.843  1.00  0.00    -0.216 C  
BRANCH   4   5
HETATM    5  O   UNL     1      -9.579  16.642  69.426  1.00  0.00    -0.188 OA 
BRANCH   5   6
HETATM    6  C   UNL     1      -9.603  15.632  68.421  1.00  0.00    -0.199 C  
BRANCH   6   7
HETATM    7  C   UNL     1      -8.224  15.004  68.302  1.00  0.00    -0.146 C  
BRANCH   7   8
HETATM    8  O   UNL     1      -8.118  14.394  67.017  1.00  0.00    -0.177 OA 
BRANCH   8   9
HETATM    9  C   UNL     1      -7.720  13.032  67.122  1.00  0.00    -0.039 C  
BRANCH   9  10
HETATM   10  C   UNL     1      -8.205  12.479  68.450  1.00  0.00    -0.136 C  
BRANCH  10  11
HETATM   11  O   UNL     1      -9.131  11.432  68.191  1.00  0.00    -0.160 OA 
BRANCH  11  12
HETATM   12  C   UNL     1      -8.550  10.156  68.434  1.00  0.00    -0.119 C  
BRANCH  12  13
HETATM   13  C   UNL     1      -9.648   9.197  68.859  1.00  0.00    -0.152 C  
BRANCH  13  14
HETATM   14  O   UNL     1     -10.752   9.321  67.973  1.00  0.00    -0.232 OA 
BRANCH  14  15
HETATM   15  C   UNL     1     -10.302   9.365  66.625  1.00  0.00    -0.214 C  
BRANCH  15  16
HETATM   16  C   UNL     1      -9.537   8.097  66.287  1.00  0.00    -0.178 C  
BRANCH  16  17
HETATM   17  O   UNL     1      -8.339   8.483  65.625  1.00  0.00    -0.130 OA 
BRANCH  17  18
HETATM   18  C   UNL     1      -7.788   7.433  64.847  1.00  0.00    -0.125 C  
BRANCH  18  19
HETATM   19  C   UNL     1      -7.076   6.483  65.792  1.00  0.00    -0.062 C  
BRANCH  19  20
HETATM   20  O   UNL     1      -6.700   7.174  66.975  1.00  0.00    -0.059 OA 
BRANCH  20  21
HETATM   21  C   UNL     1      -6.857   6.362  68.138  1.00  0.00    -0.071 C  
BRANCH  21  22
HETATM   22  C   UNL     1      -6.004   5.093  68.038  1.00  0.00    -0.022 C  
BRANCH  22  23
HETATM   23  O   UNL     1      -6.577   3.902  68.635  1.00  0.00    -0.043 OA 
BRANCH  23  24
HETATM   24  C   UNL     1      -6.278   3.727  70.041  1.00  0.00    -0.027 C  
HETATM   25  C   UNL     1      -5.342   4.805  70.513  1.00  0.00    -0.004 C  
HETATM   26  C   UNL     1      -6.079   6.137  71.111  1.00  0.00    -0.035 C  
HETATM   27  C   UNL     1      -7.290   5.974  72.216  1.00  0.00    -0.094 C  
HETATM   28  C   UNL     1      -7.422   6.270  73.852  1.00  0.00    -0.086 C  
HETATM   29  O   UNL     1      -8.443   6.508  71.550  1.00  0.00    -0.124 OA 
HETATM   30  C   UNL     1      -8.787   6.077  74.519  1.00  0.00    -0.130 C  
HETATM   31  H   UNL     1      -9.141   6.413  72.188  1.00  0.00     0.000 HD 
HETATM   32  C   UNL     1      -9.222   4.705  74.065  1.00  0.00    -0.114 A  
HETATM   33  C   UNL     1     -10.448   4.172  74.416  1.00  0.00    -0.287 A  
HETATM   34  C   UNL     1     -10.976   3.084  73.736  1.00  0.00    -0.313 A  
HETATM   35  C   UNL     1     -10.273   2.511  72.639  1.00  0.00    -0.161 A  
HETATM   36  O   UNL     1     -10.905   1.615  71.833  1.00  0.00     0.125 OA 
HETATM   37  C   UNL     1      -8.986   2.962  72.358  1.00  0.00    -0.082 A  
HETATM   38  H   UNL     1     -10.436   1.232  71.101  1.00  0.00     0.000 HD 
HETATM   39  C   UNL     1      -8.411   4.018  73.077  1.00  0.00    -0.093 A  
HETATM   40  C   UNL     1      -7.159   4.515  72.408  1.00  0.00    -0.070 C  
HETATM   41  C   UNL     1      -7.486   3.832  70.998  1.00  0.00    -0.040 C  
HETATM   42  C   UNL     1      -5.600   4.619  73.311  1.00  0.00    -0.009 C  
HETATM   43  O   UNL     1      -8.212   2.601  71.267  1.00  0.00    -0.056 OA 
HETATM   44  C   UNL     1      -5.218   6.232  74.011  1.00  0.00    -0.040 C  
HETATM   45  N   UNL     1      -6.374   7.075  74.395  1.00  0.00    -0.078 NA 
BRANCH  45  46
HETATM   46  C   UNL     1      -6.557   8.427  73.898  1.00  0.00    -0.119 C  
BRANCH  46  47
HETATM   47  C   UNL     1      -5.415   8.962  73.099  1.00  0.00    -0.084 C  
HETATM   48  C   UNL     1      -5.578   9.710  72.003  1.00  0.00     0.012 C  
ENDBRANCH  46  47
ENDBRANCH  45  46
ENDBRANCH  23  24
ENDBRANCH  22  23
ENDBRANCH  21  22
ENDBRANCH  20  21
ENDBRANCH  19  20
ENDBRANCH  18  19
ENDBRANCH  17  18
ENDBRANCH  16  17
ENDBRANCH  15  16
ENDBRANCH  14  15
ENDBRANCH  13  14
ENDBRANCH  12  13
ENDBRANCH  11  12
ENDBRANCH  10  11
ENDBRANCH   9  10
ENDBRANCH   8   9
ENDBRANCH   7   8
ENDBRANCH   6   7
ENDBRANCH   5   6
ENDBRANCH   4   5
ENDBRANCH   3   4
ENDBRANCH   2   3
TORSDOF 24
ENDMDL
MODEL      177
REMARK 921   NORMALIZED FREE ENERGY PREDICTED BY IDOCK:   -0.81 KCAL/MOL
REMARK 922        TOTAL FREE ENERGY PREDICTED BY IDOCK:   -4.24 KCAL/MOL
REMARK 923 INTER-LIGAND FREE ENERGY PREDICTED BY IDOCK:   -7.31 KCAL/MOL
REMARK 924 INTRA-LIGAND FREE ENERGY PREDICTED BY IDOCK:    3.07 KCAL/MOL
REMARK 927      BINDING AFFINITY PREDICTED BY RF-SCORE:    0.00 PKD
ROOT
HETATM    1  C   UNL     1     -13.239  13.664  65.314  1.00  0.00     0.097 C  
HETATM    2  O   UNL     1     -12.131  13.364  64.476  1.00  0.00    -0.379 OA 
ENDROOT
BRANCH   2   3
HETATM    3  C   UNL     1     -12.429  12.288  63.588  1.00  0.00    -0.541 C  
BRANCH   3   4
HETATM    4  C   UNL     1     -11.142  11.562  63.228  1.00  0.00    -0.184 C  
BRANCH   4   5
HETATM    5  O   UNL     1     -10.673  10.851  64.373  1.00  0.00    -0.340 OA 
BRANCH   5   6
HETATM    6  C   UNL     1      -9.273  10.604  64.283  1.00  0.00    -0.233 C  
BRANCH   6   7
HETATM    7  C   UNL     1      -8.691  10.469  65.680  1.00  0.00    -0.180 C  
BRANCH   7   8
HETATM    8  O   UNL     1      -9.761  10.523  66.621  1.00  0.00    -0.178 OA 
BRANCH   8   9
HETATM    9  C   UNL     1     -10.130  11.866  66.910  1.00  0.00    -0.207 C  
BRANCH   9  10
HETATM   10  C   UNL     1     -11.229  11.859  67.958  1.00  0.00    -0.257 C  
BRANCH  10  11
HETATM   11  O   UNL     1     -10.797  12.630  69.070  1.00  0.00    -0.222 OA 
BRANCH  11  12
HETATM   12  C   UNL     1     -10.044  13.763  68.652  1.00  0.00    -0.193 C  
BRANCH  12  13
HETATM   13  C   UNL     1     -10.971  14.715  67.916  1.00  0.00    -0.277 C  
BRANCH  13  14
HETATM   14  O   UNL     1     -10.198  15.627  67.149  1.00  0.00    -0.259 OA 
BRANCH  14  15
HETATM   15  C   UNL     1      -8.813  15.451  67.419  1.00  0.00    -0.183 C  
BRANCH  15  16
HETATM   16  C   UNL     1      -8.502  13.978  67.618  1.00  0.00    -0.191 C  
BRANCH  16  17
HETATM   17  O   UNL     1      -7.153  13.768  67.219  1.00  0.00    -0.132 OA 
BRANCH  17  18
HETATM   18  C   UNL     1      -6.228  14.415  68.078  1.00  0.00    -0.155 C  
BRANCH  18  19
HETATM   19  C   UNL     1      -5.213  13.381  68.526  1.00  0.00    -0.078 C  
BRANCH  19  20
HETATM   20  O   UNL     1      -5.885  12.228  69.013  1.00  0.00    -0.060 OA 
BRANCH  20  21
HETATM   21  C   UNL     1      -6.028  12.254  70.433  1.00  0.00    -0.098 C  
BRANCH  21  22
HETATM   22  C   UNL     1      -5.420  10.999  71.068  1.00  0.00    -0.075 C  
BRANCH  22  23
HETATM   23  O   UNL     1      -5.827   9.737  70.479  1.00  0.00    -0.051 OA 
BRANCH  23  24
HETATM   24  C   UNL     1      -7.161   9.305  70.841  1.00  0.00    -0.102 C  
HETATM   25  C   UNL     1      -8.082   9.410  69.658  1.00  0.00    -0.123 C  
HETATM   26  C   UNL     1      -8.182   8.056  68.745  1.00  0.00    -0.126 C  
HETATM   27  C   UNL     1      -8.427   6.598  69.472  1.00  0.00    -0.132 C  
HETATM   28  C   UNL     1      -9.716   5.544  69.566  1.00  0.00    -0.161 C  
HETATM   29  O   UNL     1      -7.237   5.855  69.171  1.00  0.00    -0.073 OA 
HETATM   30  C   UNL     1      -9.510   4.203  70.276  1.00  0.00    -0.251 C  
HETATM   31  H   UNL     1      -7.378   5.014  69.591  1.00  0.00     0.000 HD 
HETATM   32  C   UNL     1      -8.878   4.583  71.593  1.00  0.00    -0.145 A  
HETATM   33  C   UNL     1      -8.485   3.634  72.517  1.00  0.00    -0.088 A  
HETATM   34  C   UNL     1      -7.617   3.957  73.550  1.00  0.00    -0.071 A  
HETATM   35  C   UNL     1      -7.090   5.275  73.661  1.00  0.00    -0.082 A  
HETATM   36  O   UNL     1      -6.062   5.516  74.518  1.00  0.00    -0.059 OA 
HETATM   37  C   UNL     1      -7.576   6.265  72.810  1.00  0.00    -0.103 A  
HETATM   38  H   UNL     1      -5.710   6.396  74.592  1.00  0.00     0.000 HD 
HETATM   39  C   UNL     1      -8.502   5.969  71.801  1.00  0.00    -0.127 A  
HETATM   40  C   UNL     1      -8.646   7.116  70.839  1.00  0.00    -0.138 C  
HETATM   41  C   UNL     1      -7.286   7.831  71.287  1.00  0.00    -0.066 C  
HETATM   42  C   UNL     1     -10.264   7.827  70.475  1.00  0.00    -0.201 C  
HETATM   43  O   UNL     1      -7.095   7.560  72.702  1.00  0.00    -0.067 OA 
HETATM   44  C   UNL     1     -11.072   7.194  68.997  1.00  0.00    -0.015 C  
HETATM   45  N   UNL     1     -10.757   5.796  68.620  1.00  0.00    -0.248 NA 
BRANCH  45  46
HETATM   46  C   UNL     1     -10.253   5.433  67.307  1.00  0.00    -0.214 C  
BRANCH  46  47
HETATM   47  C   UNL     1      -9.665   4.064  67.216  1.00  0.00    -0.199 C  
HETATM   48  C   UNL     1      -9.027   3.614  66.131  1.00  0.00    -0.142 C  
ENDBRANCH  46  47
ENDBRANCH  45  46
ENDBRANCH  23  24
ENDBRANCH  22  23
ENDBRANCH  21  22
ENDBRANCH  20  21
ENDBRANCH  19  20
ENDBRANCH  18  19
ENDBRANCH  17  18
ENDBRANCH  16  17
ENDBRANCH  15  16
ENDBRANCH  14  15
ENDBRANCH  13  14
ENDBRANCH  12  13
ENDBRANCH  11  12
ENDBRANCH  10  11
ENDBRANCH   9  10
ENDBRANCH   8   9
ENDBRANCH   7   8
ENDBRANCH   6   7
ENDBRANCH   5   6
ENDBRANCH   4   5
ENDBRANCH   3   4
ENDBRANCH   2   3
TORSDOF 24
ENDMDL
MODEL      178
REMARK 921   NORMALIZED FREE ENERGY PREDICTED BY IDOCK:   -0.64 KCAL/MOL
REMARK 922        TOTAL FREE ENERGY PREDICTED BY IDOCK:   -3.82 KCAL/MOL
REMARK 923 INTER-LIGAND FREE ENERGY PREDICTED BY IDOCK:   -4.59 KCAL/MOL
REMARK 924 INTRA-LIGAND FREE ENERGY PREDICTED BY IDOCK:    0.77 KCAL/MOL
REMARK 927      BINDING AFFINITY PREDICTED BY RF-SCORE:    0.00 PKD
ROOT
HETATM    1  C   UNL     1     -10.388  11.721  65.130  1.00  0.00    -0.279 C  
HETATM    2  O   UNL     1     -10.830  13.035  65.441  1.00  0.00    -0.277 OA 
ENDROOT
BRANCH   2   3
HETATM    3  C   UNL     1     -12.226  13.059  65.729  1.00  0.00    -0.453 C  
BRANCH   3   4
HETATM    4  C   UNL     1     -12.429  13.113  67.236  1.00  0.00     0.249 C  
BRANCH   4   5
HETATM    5  O   UNL     1     -12.302  14.465  67.673  1.00  0.00    -0.251 OA 
BRANCH   5   6
HETATM    6  C   UNL     1     -11.683  14.531  68.955  1.00  0.00    -0.311 C  
BRANCH   6   7
HETATM    7  C   UNL     1     -10.336  15.224  68.833  1.00  0.00    -0.243 C  
BRANCH   7   8
HETATM    8  O   UNL     1      -9.913  15.148  67.474  1.00  0.00    -0.225 OA 
BRANCH   8   9
HETATM    9  C   UNL     1      -8.792  14.285  67.327  1.00  0.00    -0.214 C  
BRANCH   9  10
HETATM   10  C   UNL     1      -8.796  13.277  68.463  1.00  0.00    -0.055 C  
BRANCH  10  11
HETATM   11  O   UNL     1      -9.218  12.020  67.950  1.00  0.00    -0.176 OA 
BRANCH  11  12
HETATM   12  C   UNL     1      -9.666  11.161  68.992  1.00  0.00    -0.096 C  
BRANCH  12  13
HETATM   13  C   UNL     1     -11.067  11.585  69.399  1.00  0.00    -0.226 C  
BRANCH  13  14
HETATM   14  O   UNL     1     -11.400  10.979  70.640  1.00  0.00    -0.193 OA 
BRANCH  14  15
HETATM   15  C   UNL     1     -11.527   9.570  70.486  1.00  0.00    -0.276 C  
BRANCH  15  16
HETATM   16  C   UNL     1     -10.576   8.854  71.429  1.00  0.00    -0.303 C  
BRANCH  16  17
HETATM   17  O   UNL     1      -9.577   9.787  71.820  1.00  0.00     0.392 OA 
BRANCH  17  18
HETATM   18  C   UNL     1      -8.320   9.171  72.044  1.00  0.00     0.495 C  
BRANCH  18  19
HETATM   19  C   UNL     1      -7.957   8.392  70.794  1.00  0.00    -0.106 C  
BRANCH  19  20
HETATM   20  O   UNL     1      -7.891   7.004  71.095  1.00  0.00    -0.097 OA 
BRANCH  20  21
HETATM   21  C   UNL     1      -7.412   6.242  69.989  1.00  0.00    -0.087 C  
BRANCH  21  22
HETATM   22  C   UNL     1      -8.570   5.792  69.092  1.00  0.00    -0.110 C  
BRANCH  22  23
HETATM   23  O   UNL     1      -9.564   6.806  68.793  1.00  0.00    -0.134 OA 
BRANCH  23  24
HETATM   24  C   UNL     1      -9.668   7.155  67.391  1.00  0.00    -0.148 C  
HETATM   25  C   UNL     1      -9.468   8.633  67.206  1.00  0.00    -0.198 C  
HETATM   26  C   UNL     1      -7.920   9.084  66.927  1.00  0.00    -0.105 C  
HETATM   27  C   UNL     1      -7.029   8.288  65.792  1.00  0.00    -0.067 C  
HETATM   28  C   UNL     1      -6.467   8.675  64.270  1.00  0.00    -0.071 C  
HETATM   29  O   UNL     1      -5.967   7.686  66.544  1.00  0.00    -0.038 OA 
HETATM   30  C   UNL     1      -5.562   7.670  63.552  1.00  0.00    -0.045 C  
HETATM   31  H   UNL     1      -5.454   7.226  65.889  1.00  0.00     0.000 HD 
HETATM   32  C   UNL     1      -6.311   6.364  63.661  1.00  0.00    -0.026 A  
HETATM   33  C   UNL     1      -5.793   5.180  63.171  1.00  0.00    -0.017 A  
HETATM   34  C   UNL     1      -6.313   3.956  63.564  1.00  0.00    -0.026 A  
HETATM   35  C   UNL     1      -7.378   3.895  64.507  1.00  0.00    -0.067 A  
HETATM   36  O   UNL     1      -7.711   2.700  65.066  1.00  0.00    -0.075 OA 
HETATM   37  C   UNL     1      -7.985   5.082  64.910  1.00  0.00    -0.099 A  
HETATM   38  H   UNL     1      -8.422   2.660  65.695  1.00  0.00     0.000 HD 
HETATM   39  C   UNL     1      -7.513   6.327  64.472  1.00  0.00    -0.087 A  
HETATM   40  C   UNL     1      -8.126   7.450  65.263  1.00  0.00    -0.131 C  
HETATM   41  C   UNL     1      -8.613   6.512  66.464  1.00  0.00    -0.123 C  
HETATM   42  C   UNL     1      -8.975   8.812  64.438  1.00  0.00     0.129 C  
HETATM   43  O   UNL     1      -8.946   5.215  65.899  1.00  0.00    -0.135 OA 
HETATM   44  C   UNL     1      -7.979  10.282  64.147  1.00  0.00    -0.126 C  
HETATM   45  N   UNL     1      -6.526  10.066  63.953  1.00  0.00    -0.128 NA 
BRANCH  45  46
HETATM   46  C   UNL     1      -5.519  10.742  64.752  1.00  0.00    -0.058 C  
BRANCH  46  47
HETATM   47  C   UNL     1      -6.037  11.396  65.991  1.00  0.00     0.143 C  
HETATM   48  C   UNL     1      -5.255  11.724  67.025  1.00  0.00    -0.115 C  
ENDBRANCH  46  47
ENDBRANCH  45  46
ENDBRANCH  23  24
ENDBRANCH  22  23
ENDBRANCH  21  22
ENDBRANCH  20  21
ENDBRANCH  19  20
ENDBRANCH  18  19
ENDBRANCH  17  18
ENDBRANCH  16  17
ENDBRANCH  15  16
ENDBRANCH  14  15
ENDBRANCH  13  14
ENDBRANCH  12  13
ENDBRANCH  11  12
ENDBRANCH  10  11
ENDBRANCH   9  10
ENDBRANCH   8   9
ENDBRANCH   7   8
ENDBRANCH   6   7
ENDBRANCH   5   6
ENDBRANCH   4   5
ENDBRANCH   3   4
ENDBRANCH   2   3
TORSDOF 24
ENDMDL
MODEL      179
REMARK 921   NORMALIZED FREE ENERGY PREDICTED BY IDOCK:   -0.36 KCAL/MOL
REMARK 922        TOTAL FREE ENERGY PREDICTED BY IDOCK:   -3.15 KCAL/MOL
REMARK 923 INTER-LIGAND FREE ENERGY PREDICTED BY IDOCK:   -4.30 KCAL/MOL
REMARK 924 INTRA-LIGAND FREE ENERGY PREDICTED BY IDOCK:    1.15 KCAL/MOL
REMARK 927      BINDING AFFINITY PREDICTED BY RF-SCORE:    0.00 PKD
ROOT
HETATM    1  C   UNL     1     -12.293  15.718  67.196  1.00  0.00     1.484 C  
HETATM    2  O   UNL     1     -11.874  16.806  68.008  1.00  0.00     0.301 OA 
ENDROOT
BRANCH   2   3
HETATM    3  C   UNL     1     -10.578  17.266  67.630  1.00  0.00    -0.350 C  
BRANCH   3   4
HETATM    4  C   UNL     1      -9.651  17.202  68.834  1.00  0.00    -0.237 C  
BRANCH   4   5
HETATM    5  O   UNL     1      -8.666  16.193  68.610  1.00  0.00    -0.192 OA 
BRANCH   5   6
HETATM    6  C   UNL     1      -8.280  16.154  67.239  1.00  0.00    -0.177 C  
BRANCH   6   7
HETATM    7  C   UNL     1      -7.455  14.904  66.980  1.00  0.00     0.068 C  
BRANCH   7   8
HETATM    8  O   UNL     1      -8.207  13.772  67.411  1.00  0.00    -0.171 OA 
BRANCH   8   9
HETATM    9  C   UNL     1      -9.594  13.938  67.143  1.00  0.00    -0.247 C  
BRANCH   9  10
HETATM   10  C   UNL     1      -9.933  13.218  65.849  1.00  0.00    -0.272 C  
BRANCH  10  11
HETATM   11  O   UNL     1      -9.956  11.820  66.103  1.00  0.00    -0.214 OA 
BRANCH  11  12
HETATM   12  C   UNL     1      -9.632  11.077  64.934  1.00  0.00    -0.245 C  
BRANCH  12  13
HETATM   13  C   UNL     1      -8.803   9.871  65.342  1.00  0.00    -0.168 C  
BRANCH  13  14
HETATM   14  O   UNL     1      -7.424  10.169  65.178  1.00  0.00    -0.134 OA 
BRANCH  14  15
HETATM   15  C   UNL     1      -6.767  10.186  66.439  1.00  0.00    -0.092 C  
BRANCH  15  16
HETATM   16  C   UNL     1      -7.440   9.213  67.392  1.00  0.00    -0.084 C  
BRANCH  16  17
HETATM   17  O   UNL     1      -7.511   7.953  66.736  1.00  0.00    -0.087 OA 
BRANCH  17  18
HETATM   18  C   UNL     1      -6.410   7.731  65.870  1.00  0.00    -0.042 C  
BRANCH  18  19
HETATM   19  C   UNL     1      -6.424   6.266  65.473  1.00  0.00    -0.039 C  
BRANCH  19  20
HETATM   20  O   UNL     1      -5.971   5.470  66.560  1.00  0.00    -0.018 OA 
BRANCH  20  21
HETATM   21  C   UNL     1      -7.004   5.238  67.516  1.00  0.00    -0.065 C  
BRANCH  21  22
HETATM   22  C   UNL     1      -8.383   5.265  66.849  1.00  0.00    -0.107 C  
BRANCH  22  23
HETATM   23  O   UNL     1      -9.308   4.231  67.274  1.00  0.00    -0.139 OA 
BRANCH  23  24
HETATM   24  C   UNL     1     -10.155   4.600  68.389  1.00  0.00    -0.001 C  
HETATM   25  C   UNL     1      -9.720   3.880  69.635  1.00  0.00    -0.208 C  
HETATM   26  C   UNL     1      -8.628   4.689  70.546  1.00  0.00    -0.116 C  
HETATM   27  C   UNL     1      -8.887   6.273  70.919  1.00  0.00    -0.136 C  
HETATM   28  C   UNL     1      -9.307   7.088  72.312  1.00  0.00    -0.136 C  
HETATM   29  O   UNL     1      -7.803   6.962  70.282  1.00  0.00    -0.105 OA 
HETATM   30  C   UNL     1      -9.356   8.618  72.272  1.00  0.00    -0.322 C  
HETATM   31  H   UNL     1      -7.953   7.876  70.497  1.00  0.00     0.000 HD 
HETATM   32  C   UNL     1     -10.196   8.924  71.057  1.00  0.00    -0.322 A  
HETATM   33  C   UNL     1     -10.439  10.219  70.641  1.00  0.00     0.066 A  
HETATM   34  C   UNL     1     -10.913  10.483  69.364  1.00  0.00    -0.297 A  
HETATM   35  C   UNL     1     -11.134   9.420  68.444  1.00  0.00     0.071 A  
HETATM   36  O   UNL     1     -11.359   9.704  67.133  1.00  0.00    -0.168 OA 
HETATM   37  C   UNL     1     -11.009   8.107  68.893  1.00  0.00     0.154 A  
HETATM   38  H   UNL     1     -11.506   8.994  66.518  1.00  0.00     0.000 HD 
HETATM   39  C   UNL     1     -10.593   7.821  70.200  1.00  0.00    -0.237 A  
HETATM   40  C   UNL     1     -10.251   6.365  70.357  1.00  0.00    -0.233 C  
HETATM   41  C   UNL     1     -10.124   6.093  68.785  1.00  0.00    -0.169 C  
HETATM   42  C   UNL     1     -11.017   5.364  71.648  1.00  0.00    -0.184 C  
HETATM   43  O   UNL     1     -11.072   6.965  68.112  1.00  0.00    -0.175 OA 
HETATM   44  C   UNL     1     -10.062   5.194  73.164  1.00  0.00    -0.165 C  
HETATM   45  N   UNL     1      -9.168   6.324  73.511  1.00  0.00    -0.131 NA 
BRANCH  45  46
HETATM   46  C   UNL     1      -7.748   6.152  73.759  1.00  0.00    -0.094 C  
BRANCH  46  47
HETATM   47  C   UNL     1      -7.005   7.412  74.055  1.00  0.00    -0.098 C  
HETATM   48  C   UNL     1      -5.672   7.472  74.140  1.00  0.00    -0.064 C  
ENDBRANCH  46  47
ENDBRANCH  45  46
ENDBRANCH  23  24
ENDBRANCH  22  23
ENDBRANCH  21  22
ENDBRANCH  20  21
ENDBRANCH  19  20
ENDBRANCH  18  19
ENDBRANCH  17  18
ENDBRANCH  16  17
ENDBRANCH  15  16
ENDBRANCH  14  15
ENDBRANCH  13  14
ENDBRANCH  12  13
ENDBRANCH  11  12
ENDBRANCH  10  11
ENDBRANCH   9  10
ENDBRANCH   8   9
ENDBRANCH   7   8
ENDBRANCH   6   7
ENDBRANCH   5   6
ENDBRANCH   4   5
ENDBRANCH   3   4
ENDBRANCH   2   3
TORSDOF 24
ENDMDL
MODEL      180
REMARK 921   NORMALIZED FREE ENERGY PREDICTED BY IDOCK:   -0.17 KCAL/MOL
REMARK 922        TOTAL FREE ENERGY PREDICTED BY IDOCK:   -2.70 KCAL/MOL
REMARK 923 INTER-LIGAND FREE ENERGY PREDICTED BY IDOCK:   -6.16 KCAL/MOL
REMARK 924 INTRA-LIGAND FREE ENERGY PREDICTED BY IDOCK:    3.46 KCAL/MOL
REMARK 927      BINDING AFFINITY PREDICTED BY RF-SCORE:    0.00 PKD
ROOT
HETATM    1  C   UNL     1      -9.313  17.637  66.222  1.00  0.00    -0.197 C  
HETATM    2  O   UNL     1     -10.397  16.723  66.314  1.00  0.00    -0.312 OA 
ENDROOT
BRANCH   2   3
HETATM    3  C   UNL     1     -10.643  16.344  67.667  1.00  0.00    -0.313 C  
BRANCH   3   4
HETATM    4  C   UNL     1     -10.388  17.536  68.577  1.00  0.00    -0.380 C  
BRANCH   4   5
HETATM    5  O   UNL     1     -10.991  18.696  68.005  1.00  0.00    -0.214 OA 
BRANCH   5   6
HETATM    6  C   UNL     1     -10.254  19.870  68.334  1.00  0.00    -0.433 C  
BRANCH   6   7
HETATM    7  C   UNL     1      -9.555  20.395  67.091  1.00  0.00    -0.447 C  
BRANCH   7   8
HETATM    8  O   UNL     1      -8.282  19.761  66.989  1.00  0.00    -0.280 OA 
BRANCH   8   9
HETATM    9  C   UNL     1      -7.564  19.841  68.215  1.00  0.00    -0.303 C  
BRANCH   9  10
HETATM   10  C   UNL     1      -6.695  18.603  68.356  1.00  0.00    -0.241 C  
BRANCH  10  11
HETATM   11  O   UNL     1      -6.324  18.466  69.721  1.00  0.00    -0.228 OA 
BRANCH  11  12
HETATM   12  C   UNL     1      -5.189  17.620  69.866  1.00  0.00    -0.205 C  
BRANCH  12  13
HETATM   13  C   UNL     1      -5.402  16.729  71.078  1.00  0.00    -0.058 C  
BRANCH  13  14
HETATM   14  O   UNL     1      -6.056  15.534  70.676  1.00  0.00    -0.032 OA 
BRANCH  14  15
HETATM   15  C   UNL     1      -6.234  15.517  69.265  1.00  0.00    -0.123 C  
BRANCH  15  16
HETATM   16  C   UNL     1      -6.096  14.100  68.737  1.00  0.00    -0.085 C  
BRANCH  16  17
HETATM   17  O   UNL     1      -6.951  13.978  67.608  1.00  0.00    -0.166 OA 
BRANCH  17  18
HETATM   18  C   UNL     1      -6.282  13.447  66.476  1.00  0.00     2.741 C  
BRANCH  18  19
HETATM   19  C   UNL     1      -5.740  12.083  66.859  1.00  0.00    -0.068 C  
BRANCH  19  20
HETATM   20  O   UNL     1      -5.674  11.251  65.709  1.00  0.00    -0.145 OA 
BRANCH  20  21
HETATM   21  C   UNL     1      -6.360  10.016  65.905  1.00  0.00    -0.091 C  
BRANCH  21  22
HETATM   22  C   UNL     1      -5.759   8.912  65.028  1.00  0.00    -0.055 C  
BRANCH  22  23
HETATM   23  O   UNL     1      -6.608   8.430  63.955  1.00  0.00    -0.074 OA 
BRANCH  23  24
HETATM   24  C   UNL     1      -7.908   7.954  64.381  1.00  0.00    -0.139 C  
HETATM   25  C   UNL     1      -7.761   6.711  65.213  1.00  0.00    -0.099 C  
HETATM   26  C   UNL     1      -7.630   6.977  66.822  1.00  0.00    -0.090 C  
HETATM   27  C   UNL     1      -8.692   7.988  67.573  1.00  0.00    -0.125 C  
HETATM   28  C   UNL     1      -9.966   7.767  68.627  1.00  0.00    -0.182 C  
HETATM   29  O   UNL     1      -7.871   9.063  68.050  1.00  0.00    -0.099 OA 
HETATM   30  C   UNL     1     -10.666   9.006  69.192  1.00  0.00    -0.176 C  
HETATM   31  H   UNL     1      -8.485   9.647  68.482  1.00  0.00     0.000 HD 
HETATM   32  C   UNL     1     -10.964   9.843  67.973  1.00  0.00    -0.269 A  
HETATM   33  C   UNL     1     -11.558  11.087  68.066  1.00  0.00    -0.326 A  
HETATM   34  C   UNL     1     -11.521  11.979  67.004  1.00  0.00    -0.402 A  
HETATM   35  C   UNL     1     -10.842  11.637  65.800  1.00  0.00    -0.281 A  
HETATM   36  O   UNL     1     -10.603  12.599  64.869  1.00  0.00    -0.286 OA 
HETATM   37  C   UNL     1     -10.349  10.343  65.653  1.00  0.00    -0.190 A  
HETATM   38  H   UNL     1     -10.150  12.371  64.066  1.00  0.00     0.000 HD 
HETATM   39  C   UNL     1     -10.435   9.408  66.694  1.00  0.00    -0.238 A  
HETATM   40  C   UNL     1      -9.583   8.200  66.412  1.00  0.00    -0.286 C  
HETATM   41  C   UNL     1      -8.708   8.920  65.282  1.00  0.00    -0.186 C  
HETATM   42  C   UNL     1     -10.285   6.538  66.453  1.00  0.00    -0.039 C  
HETATM   43  O   UNL     1      -9.568   9.878  64.607  1.00  0.00    -0.299 OA 
HETATM   44  C   UNL     1     -10.080   5.649  68.004  1.00  0.00    -0.171 C  
HETATM   45  N   UNL     1     -10.015   6.475  69.233  1.00  0.00    -0.151 NA 
BRANCH  45  46
HETATM   46  C   UNL     1      -8.914   6.390  70.176  1.00  0.00    -0.154 C  
BRANCH  46  47
HETATM   47  C   UNL     1      -9.134   5.452  71.316  1.00  0.00    -0.162 C  
HETATM   48  C   UNL     1      -8.461   4.306  71.460  1.00  0.00    -0.106 C  
ENDBRANCH  46  47
ENDBRANCH  45  46
ENDBRANCH  23  24
ENDBRANCH  22  23
ENDBRANCH  21  22
ENDBRANCH  20  21
ENDBRANCH  19  20
ENDBRANCH  18  19
ENDBRANCH  17  18
ENDBRANCH  16  17
ENDBRANCH  15  16
ENDBRANCH  14  15
ENDBRANCH  13  14
ENDBRANCH  12  13
ENDBRANCH  11  12
ENDBRANCH  10  11
ENDBRANCH   9  10
ENDBRANCH   8   9
ENDBRANCH   7   8
ENDBRANCH   6   7
ENDBRANCH   5   6
ENDBRANCH   4   5
ENDBRANCH   3   4
ENDBRANCH   2   3
TORSDOF 24
ENDMDL
MODEL      181
REMARK 921   NORMALIZED FREE ENERGY PREDICTED BY IDOCK:    0.12 KCAL/MOL
REMARK 922        TOTAL FREE ENERGY PREDICTED BY IDOCK:   -2.00 KCAL/MOL
REMARK 923 INTER-LIGAND FREE ENERGY PREDICTED BY IDOCK:   -4.04 KCAL/MOL
REMARK 924 INTRA-LIGAND FREE ENERGY PREDICTED BY IDOCK:    2.04 KCAL/MOL
REMARK 927      BINDING AFFINITY PREDICTED BY RF-SCORE:    0.00 PKD
ROOT
HETATM    1  C   UNL     1      -6.876   4.548  66.092  1.00  0.00    -0.058 C  
HETATM    2  O   UNL     1      -7.493   4.257  67.339  1.00  0.00    -0.072 OA 
ENDROOT
BRANCH   2   3
HETATM    3  C   UNL     1      -6.784   4.857  68.421  1.00  0.00    -0.050 C  
BRANCH   3   4
HETATM    4  C   UNL     1      -7.763   5.208  69.532  1.00  0.00    -0.068 C  
BRANCH   4   5
HETATM    5  O   UNL     1      -8.779   4.207  69.589  1.00  0.00    -0.073 OA 
BRANCH   5   6
HETATM    6  C   UNL     1      -9.863   4.627  70.412  1.00  0.00    -0.236 C  
BRANCH   6   7
HETATM    7  C   UNL     1      -9.387   4.756  71.850  1.00  0.00    -0.139 C  
BRANCH   7   8
HETATM    8  O   UNL     1     -10.530   4.874  72.693  1.00  0.00    -0.192 OA 
BRANCH   8   9
HETATM    9  C   UNL     1     -10.205   5.516  73.920  1.00  0.00    -0.241 C  
BRANCH   9  10
HETATM   10  C   UNL     1      -9.518   6.836  73.617  1.00  0.00    -0.178 C  
BRANCH  10  11
HETATM   11  O   UNL     1     -10.159   7.431  72.497  1.00  0.00    -0.174 OA 
BRANCH  11  12
HETATM   12  C   UNL     1     -11.440   7.942  72.846  1.00  0.00    -0.297 C  
BRANCH  12  13
HETATM   13  C   UNL     1     -12.495   7.170  72.072  1.00  0.00    -0.242 C  
BRANCH  13  14
HETATM   14  O   UNL     1     -12.605   7.707  70.761  1.00  0.00    -0.115 OA 
BRANCH  14  15
HETATM   15  C   UNL     1     -12.273   9.091  70.763  1.00  0.00    -0.076 C  
BRANCH  15  16
HETATM   16  C   UNL     1     -11.577   9.463  69.465  1.00  0.00     0.277 C  
BRANCH  16  17
HETATM   17  O   UNL     1     -10.180   9.299  69.667  1.00  0.00    -0.190 OA 
BRANCH  17  18
HETATM   18  C   UNL     1      -9.762   7.955  69.495  1.00  0.00    -0.173 C  
BRANCH  18  19
HETATM   19  C   UNL     1      -8.647   7.946  68.466  1.00  0.00    -0.128 C  
BRANCH  19  20
HETATM   20  O   UNL     1      -8.070   9.241  68.371  1.00  0.00    -0.104 OA 
BRANCH  20  21
HETATM   21  C   UNL     1      -7.855   9.823  69.655  1.00  0.00    -0.142 C  
BRANCH  21  22
HETATM   22  C   UNL     1      -7.432  11.291  69.527  1.00  0.00     0.081 C  
BRANCH  22  23
HETATM   23  O   UNL     1      -6.316  11.547  68.636  1.00  0.00    -0.050 OA 
BRANCH  23  24
HETATM   24  C   UNL     1      -6.582  12.522  67.598  1.00  0.00    -0.136 C  
HETATM   25  C   UNL     1      -7.687  12.039  66.700  1.00  0.00     0.068 C  
HETATM   26  C   UNL     1      -9.189  12.506  67.151  1.00  0.00    -0.205 C  
HETATM   27  C   UNL     1      -9.474  14.084  67.532  1.00  0.00    -0.221 C  
HETATM   28  C   UNL     1     -10.288  15.333  66.786  1.00  0.00    -0.279 C  
HETATM   29  O   UNL     1      -9.843  14.046  68.917  1.00  0.00    -0.365 OA 
HETATM   30  C   UNL     1     -10.414  16.666  67.529  1.00  0.00    -0.317 C  
HETATM   31  H   UNL     1     -10.007  14.956  69.137  1.00  0.00     0.000 HD 
HETATM   32  C   UNL     1      -9.003  16.973  67.967  1.00  0.00    -0.230 A  
HETATM   33  C   UNL     1      -8.697  18.088  68.724  1.00  0.00    -0.206 A  
HETATM   34  C   UNL     1      -7.488  18.186  69.397  1.00  0.00     0.131 A  
HETATM   35  C   UNL     1      -6.545  17.121  69.341  1.00  0.00    -0.220 A  
HETATM   36  O   UNL     1      -5.484  17.120  70.192  1.00  0.00    -0.206 OA 
HETATM   37  C   UNL     1      -6.792  16.051  68.484  1.00  0.00    -0.129 A  
HETATM   38  H   UNL     1      -4.854  16.410  70.155  1.00  0.00     0.000 HD 
HETATM   39  C   UNL     1      -7.981  15.967  67.747  1.00  0.00    -0.152 A  
HETATM   40  C   UNL     1      -8.148  14.603  67.136  1.00  0.00    -0.213 C  
HETATM   41  C   UNL     1      -7.072  13.902  68.091  1.00  0.00    -0.118 C  
HETATM   42  C   UNL     1      -8.429  14.405  65.364  1.00  0.00     3.163 C  
HETATM   43  O   UNL     1      -6.047  14.887  68.393  1.00  0.00    -0.089 OA 
HETATM   44  C   UNL     1     -10.150  14.244  64.867  1.00  0.00    -0.232 C  
HETATM   45  N   UNL     1     -11.151  14.927  65.722  1.00  0.00    -0.337 NA 
BRANCH  45  46
HETATM   46  C   UNL     1     -12.280  14.232  66.314  1.00  0.00    -0.410 C  
BRANCH  46  47
HETATM   47  C   UNL     1     -12.701  12.993  65.596  1.00  0.00    -0.198 C  
HETATM   48  C   UNL     1     -12.408  12.756  64.313  1.00  0.00    -0.493 C  
ENDBRANCH  46  47
ENDBRANCH  45  46
ENDBRANCH  23  24
ENDBRANCH  22  23
ENDBRANCH  21  22
ENDBRANCH  20  21
ENDBRANCH  19  20
ENDBRANCH  18  19
ENDBRANCH  17  18
ENDBRANCH  16  17
ENDBRANCH  15  16
ENDBRANCH  14  15
ENDBRANCH  13  14
ENDBRANCH  12  13
ENDBRANCH  11  12
ENDBRANCH  10  11
ENDBRANCH   9  10
ENDBRANCH   8   9
ENDBRANCH   7   8
ENDBRANCH   6   7
ENDBRANCH   5   6
ENDBRANCH   4   5
ENDBRANCH   3   4
ENDBRANCH   2   3
TORSDOF 24
ENDMDL
MODEL      182
REMARK 921   NORMALIZED FREE ENERGY PREDICTED BY IDOCK:    0.54 KCAL/MOL
REMARK 922        TOTAL FREE ENERGY PREDICTED BY IDOCK:   -1.00 KCAL/MOL
REMARK 923 INTER-LIGAND FREE ENERGY PREDICTED BY IDOCK:   -4.38 KCAL/MOL
REMARK 924 INTRA-LIGAND FREE ENERGY PREDICTED BY IDOCK:    3.38 KCAL/MOL
REMARK 927      BINDING AFFINITY PREDICTED BY RF-SCORE:    0.00 PKD
ROOT
HETATM    1  C   UNL     1     -12.789   4.468  73.070  1.00  0.00     1.314 C  
HETATM    2  O   UNL     1     -11.395   4.344  72.827  1.00  0.00    -0.056 OA 
ENDROOT
BRANCH   2   3
HETATM    3  C   UNL     1     -10.879   5.498  72.167  1.00  0.00    -0.235 C  
BRANCH   3   4
HETATM    4  C   UNL     1     -11.964   6.100  71.286  1.00  0.00     0.023 C  
BRANCH   4   5
HETATM    5  O   UNL     1     -11.365   6.620  70.100  1.00  0.00    -0.327 OA 
BRANCH   5   6
HETATM    6  C   UNL     1     -11.374   8.044  70.106  1.00  0.00    -0.078 C  
BRANCH   6   7
HETATM    7  C   UNL     1     -12.032   8.541  71.382  1.00  0.00    -0.300 C  
BRANCH   7   8
HETATM    8  O   UNL     1     -13.275   9.151  71.040  1.00  0.00    -0.200 OA 
BRANCH   8   9
HETATM    9  C   UNL     1     -13.107  10.526  70.719  1.00  0.00    -0.257 C  
BRANCH   9  10
HETATM   10  C   UNL     1     -11.677  10.753  70.260  1.00  0.00    -0.352 C  
BRANCH  10  11
HETATM   11  O   UNL     1     -11.625  11.973  69.533  1.00  0.00    -0.293 OA 
BRANCH  11  12
HETATM   12  C   UNL     1     -11.668  11.741  68.130  1.00  0.00    -0.307 C  
BRANCH  12  13
HETATM   13  C   UNL     1     -12.186  12.995  67.448  1.00  0.00    -0.097 C  
BRANCH  13  14
HETATM   14  O   UNL     1     -11.299  14.074  67.709  1.00  0.00    -0.276 OA 
BRANCH  14  15
HETATM   15  C   UNL     1     -11.478  14.552  69.037  1.00  0.00    -0.290 C  
BRANCH  15  16
HETATM   16  C   UNL     1     -11.006  15.991  69.143  1.00  0.00    -0.297 C  
BRANCH  16  17
HETATM   17  O   UNL     1      -9.750  15.982  69.811  1.00  0.00    -0.221 OA 
BRANCH  17  18
HETATM   18  C   UNL     1      -8.726  16.599  69.048  1.00  0.00    -0.193 C  
BRANCH  18  19
HETATM   19  C   UNL     1      -7.854  15.500  68.471  1.00  0.00    -0.135 C  
BRANCH  19  20
HETATM   20  O   UNL     1      -7.944  14.338  69.285  1.00  0.00    -0.023 OA 
BRANCH  20  21
HETATM   21  C   UNL     1      -6.766  14.144  70.067  1.00  0.00     0.002 C  
BRANCH  21  22
HETATM   22  C   UNL     1      -5.914  13.004  69.498  1.00  0.00    -0.110 C  
BRANCH  22  23
HETATM   23  O   UNL     1      -6.565  12.165  68.510  1.00  0.00    -0.055 OA 
BRANCH  23  24
HETATM   24  C   UNL     1      -6.083  10.800  68.466  1.00  0.00    -0.043 C  
HETATM   25  C   UNL     1      -5.901  10.266  69.859  1.00  0.00    -0.051 C  
HETATM   26  C   UNL     1      -7.210   9.500  70.474  1.00  0.00    -0.141 C  
HETATM   27  C   UNL     1      -7.989   8.361  69.573  1.00  0.00    -0.111 C  
HETATM   28  C   UNL     1      -8.106   6.699  69.645  1.00  0.00    -0.126 C  
HETATM   29  O   UNL     1      -9.296   8.914  69.369  1.00  0.00    -0.150 OA 
HETATM   30  C   UNL     1      -9.035   5.992  68.654  1.00  0.00    -0.118 C  
HETATM   31  H   UNL     1      -9.745   8.257  68.849  1.00  0.00     0.000 HD 
HETATM   32  C   UNL     1      -8.641   6.564  67.314  1.00  0.00    -0.111 A  
HETATM   33  C   UNL     1      -9.292   6.211  66.147  1.00  0.00    -0.128 A  
HETATM   34  C   UNL     1      -9.158   6.973  64.995  1.00  0.00     0.621 A  
HETATM   35  C   UNL     1      -8.364   8.155  65.002  1.00  0.00    -0.136 A  
HETATM   36  O   UNL     1      -8.437   9.017  63.953  1.00  0.00    -0.182 OA 
HETATM   37  C   UNL     1      -7.609   8.449  66.135  1.00  0.00    -0.089 A  
HETATM   38  H   UNL     1      -7.908   9.806  63.958  1.00  0.00     0.000 HD 
HETATM   39  C   UNL     1      -7.683   7.653  67.287  1.00  0.00    -0.113 A  
HETATM   40  C   UNL     1      -7.020   8.327  68.457  1.00  0.00    -0.069 C  
HETATM   41  C   UNL     1      -7.029   9.782  67.791  1.00  0.00    -0.086 C  
HETATM   42  C   UNL     1      -5.729   7.492  69.401  1.00  0.00    -0.023 C  
HETATM   43  O   UNL     1      -6.880   9.607  66.356  1.00  0.00    -0.081 OA 
HETATM   44  C   UNL     1      -6.282   6.649  70.892  1.00  0.00    -0.039 C  
HETATM   45  N   UNL     1      -7.669   6.127  70.878  1.00  0.00    -0.096 NA 
BRANCH  45  46
HETATM   46  C   UNL     1      -8.647   6.474  71.894  1.00  0.00    -0.129 C  
BRANCH  46  47
HETATM   47  C   UNL     1      -8.148   6.394  73.299  1.00  0.00    -0.110 C  
HETATM   48  C   UNL     1      -8.235   5.286  74.043  1.00  0.00    -0.107 C  
ENDBRANCH  46  47
ENDBRANCH  45  46
ENDBRANCH  23  24
ENDBRANCH  22  23
ENDBRANCH  21  22
ENDBRANCH  20  21
ENDBRANCH  19  20
ENDBRANCH  18  19
ENDBRANCH  17  18
ENDBRANCH  16  17
ENDBRANCH  15  16
ENDBRANCH  14  15
ENDBRANCH  13  14
ENDBRANCH  12  13
ENDBRANCH  11  12
ENDBRANCH  10  11
ENDBRANCH   9  10
ENDBRANCH   8   9
ENDBRANCH   7   8
ENDBRANCH   6   7
ENDBRANCH   5   6
ENDBRANCH   4   5
ENDBRANCH   3   4
ENDBRANCH   2   3
TORSDOF 24
ENDMDL
MODEL      183
REMARK 921   NORMALIZED FREE ENERGY PREDICTED BY IDOCK:    0.85 KCAL/MOL
REMARK 922        TOTAL FREE ENERGY PREDICTED BY IDOCK:   -0.26 KCAL/MOL
REMARK 923 INTER-LIGAND FREE ENERGY PREDICTED BY IDOCK:   -1.87 KCAL/MOL
REMARK 924 INTRA-LIGAND FREE ENERGY PREDICTED BY IDOCK:    1.61 KCAL/MOL
REMARK 927      BINDING AFFINITY PREDICTED BY RF-SCORE:    0.00 PKD
ROOT
HETATM    1  C   UNL     1     -12.459  11.714  68.679  1.00  0.00     0.629 C  
HETATM    2  O   UNL     1     -13.319  12.720  68.162  1.00  0.00     2.816 OA 
ENDROOT
BRANCH   2   3
HETATM    3  C   UNL     1     -12.722  14.012  68.256  1.00  0.00     0.947 C  
BRANCH   3   4
HETATM    4  C   UNL     1     -11.674  14.162  67.163  1.00  0.00    -0.403 C  
BRANCH   4   5
HETATM    5  O   UNL     1     -10.545  14.854  67.694  1.00  0.00    -0.257 OA 
BRANCH   5   6
HETATM    6  C   UNL     1     -10.954  15.929  68.535  1.00  0.00    -0.324 C  
BRANCH   6   7
HETATM    7  C   UNL     1     -10.261  17.208  68.097  1.00  0.00    -0.332 C  
BRANCH   7   8
HETATM    8  O   UNL     1     -10.112  17.175  66.679  1.00  0.00    -0.283 OA 
BRANCH   8   9
HETATM    9  C   UNL     1      -8.769  16.892  66.305  1.00  0.00    -0.286 C  
BRANCH   9  10
HETATM   10  C   UNL     1      -8.140  18.154  65.741  1.00  0.00     0.207 C  
BRANCH  10  11
HETATM   11  O   UNL     1      -6.736  18.092  65.954  1.00  0.00    -0.246 OA 
BRANCH  11  12
HETATM   12  C   UNL     1      -6.397  18.479  67.281  1.00  0.00    -0.185 C  
BRANCH  12  13
HETATM   13  C   UNL     1      -6.805  17.365  68.228  1.00  0.00    -0.190 C  
BRANCH  13  14
HETATM   14  O   UNL     1      -6.429  16.112  67.672  1.00  0.00    -0.136 OA 
BRANCH  14  15
HETATM   15  C   UNL     1      -6.253  15.146  68.701  1.00  0.00    -0.089 C  
BRANCH  15  16
HETATM   16  C   UNL     1      -5.139  15.579  69.639  1.00  0.00    -0.096 C  
BRANCH  16  17
HETATM   17  O   UNL     1      -5.288  14.846  70.847  1.00  0.00    -0.131 OA 
BRANCH  17  18
HETATM   18  C   UNL     1      -6.530  14.164  70.917  1.00  0.00     0.176 C  
BRANCH  18  19
HETATM   19  C   UNL     1      -6.511  13.063  69.873  1.00  0.00     0.043 C  
BRANCH  19  20
HETATM   20  O   UNL     1      -5.453  12.156  70.149  1.00  0.00    -0.094 OA 
BRANCH  20  21
HETATM   21  C   UNL     1      -5.852  11.132  71.057  1.00  0.00     0.095 C  
BRANCH  21  22
HETATM   22  C   UNL     1      -5.897   9.768  70.359  1.00  0.00    -0.060 C  
BRANCH  22  23
HETATM   23  O   UNL     1      -6.491   9.759  69.036  1.00  0.00    -0.044 OA 
BRANCH  23  24
HETATM   24  C   UNL     1      -7.851   9.262  68.988  1.00  0.00    -0.082 C  
HETATM   25  C   UNL     1      -8.121   8.608  67.662  1.00  0.00    -0.107 C  
HETATM   26  C   UNL     1      -7.817   7.000  67.618  1.00  0.00    -0.113 C  
HETATM   27  C   UNL     1      -8.401   6.026  68.812  1.00  0.00    -0.106 C  
HETATM   28  C   UNL     1      -9.610   4.881  68.895  1.00  0.00    -0.158 C  
HETATM   29  O   UNL     1      -7.222   5.509  69.446  1.00  0.00    -0.062 OA 
HETATM   30  C   UNL     1      -9.784   4.099  70.200  1.00  0.00    -0.278 C  
HETATM   31  H   UNL     1      -7.559   4.947  70.135  1.00  0.00     0.000 HD 
HETATM   32  C   UNL     1      -9.823   5.169  71.263  1.00  0.00    -0.239 A  
HETATM   33  C   UNL     1      -9.920   4.864  72.607  1.00  0.00    -0.210 A  
HETATM   34  C   UNL     1      -9.619   5.807  73.579  1.00  0.00    -0.140 A  
HETATM   35  C   UNL     1      -9.175   7.107  73.206  1.00  0.00    -0.157 A  
HETATM   36  O   UNL     1      -8.652   7.933  74.152  1.00  0.00    -0.253 OA 
HETATM   37  C   UNL     1      -9.192   7.462  71.860  1.00  0.00    -0.133 A  
HETATM   38  H   UNL     1      -8.356   8.801  73.904  1.00  0.00     0.000 HD 
HETATM   39  C   UNL     1      -9.555   6.540  70.868  1.00  0.00    -0.186 A  
HETATM   40  C   UNL     1      -9.214   7.053  69.496  1.00  0.00    -0.149 C  
HETATM   41  C   UNL     1      -8.199   8.172  70.025  1.00  0.00    -0.120 C  
HETATM   42  C   UNL     1     -10.467   7.144  68.200  1.00  0.00    -0.244 C  
HETATM   43  O   UNL     1      -8.688   8.632  71.314  1.00  0.00    -0.159 OA 
HETATM   44  C   UNL     1     -10.516   5.743  67.072  1.00  0.00    -0.280 C  
HETATM   45  N   UNL     1     -10.092   4.435  67.626  1.00  0.00    -0.046 NA 
BRANCH  45  46
HETATM   46  C   UNL     1      -9.048   3.629  67.019  1.00  0.00    -0.167 C  
BRANCH  46  47
HETATM   47  C   UNL     1      -8.999   2.211  67.484  1.00  0.00    -0.183 C  
HETATM   48  C   UNL     1      -7.878   1.619  67.907  1.00  0.00    -0.058 C  
ENDBRANCH  46  47
ENDBRANCH  45  46
ENDBRANCH  23  24
ENDBRANCH  22  23
ENDBRANCH  21  22
ENDBRANCH  20  21
ENDBRANCH  19  20
ENDBRANCH  18  19
ENDBRANCH  17  18
ENDBRANCH  16  17
ENDBRANCH  15  16
ENDBRANCH  14  15
ENDBRANCH  13  14
ENDBRANCH  12  13
ENDBRANCH  11  12
ENDBRANCH  10  11
ENDBRANCH   9  10
ENDBRANCH   8   9
ENDBRANCH   7   8
ENDBRANCH   6   7
ENDBRANCH   5   6
ENDBRANCH   4   5
ENDBRANCH   3   4
ENDBRANCH   2   3
TORSDOF 24
ENDMDL
MODEL      184
REMARK 921   NORMALIZED FREE ENERGY PREDICTED BY IDOCK:    1.03 KCAL/MOL
REMARK 922        TOTAL FREE ENERGY PREDICTED BY IDOCK:    0.19 KCAL/MOL
REMARK 923 INTER-LIGAND FREE ENERGY PREDICTED BY IDOCK:   -2.19 KCAL/MOL
REMARK 924 INTRA-LIGAND FREE ENERGY PREDICTED BY IDOCK:    2.38 KCAL/MOL
REMARK 927      BINDING AFFINITY PREDICTED BY RF-SCORE:    0.00 PKD
ROOT
HETATM    1  C   UNL     1      -6.493  14.331  69.132  1.00  0.00    -0.109 C  
HETATM    2  O   UNL     1      -5.613  13.216  69.114  1.00  0.00    -0.070 OA 
ENDROOT
BRANCH   2   3
HETATM    3  C   UNL     1      -5.879  12.327  70.197  1.00  0.00    -0.161 C  
BRANCH   3   4
HETATM    4  C   UNL     1      -5.177  11.001  69.943  1.00  0.00    -0.045 C  
BRANCH   4   5
HETATM    5  O   UNL     1      -6.053   9.935  70.306  1.00  0.00    -0.056 OA 
BRANCH   5   6
HETATM    6  C   UNL     1      -6.035   9.717  71.714  1.00  0.00     0.090 C  
BRANCH   6   7
HETATM    7  C   UNL     1      -7.108   8.706  72.084  1.00  0.00    -0.034 C  
BRANCH   7   8
HETATM    8  O   UNL     1      -7.440   8.886  73.459  1.00  0.00    -0.371 OA 
BRANCH   8   9
HETATM    9  C   UNL     1      -7.836   7.659  74.062  1.00  0.00    -0.156 C  
BRANCH   9  10
HETATM   10  C   UNL     1      -7.107   6.517  73.375  1.00  0.00    -0.078 C  
BRANCH  10  11
HETATM   11  O   UNL     1      -7.461   6.520  71.998  1.00  0.00    -0.090 OA 
BRANCH  11  12
HETATM   12  C   UNL     1      -7.493   5.199  71.470  1.00  0.00    -0.095 C  
BRANCH  12  13
HETATM   13  C   UNL     1      -7.663   5.284  69.963  1.00  0.00    -0.076 C  
BRANCH  13  14
HETATM   14  O   UNL     1      -7.358   4.024  69.383  1.00  0.00    -0.052 OA 
BRANCH  14  15
HETATM   15  C   UNL     1      -8.552   3.294  69.126  1.00  0.00    -0.071 C  
BRANCH  15  16
HETATM   16  C   UNL     1      -9.765   4.171  69.384  1.00  0.00    -0.163 C  
BRANCH  16  17
HETATM   17  O   UNL     1     -10.140   4.758  68.145  1.00  0.00    -0.120 OA 
BRANCH  17  18
HETATM   18  C   UNL     1     -11.071   5.815  68.306  1.00  0.00     0.096 C  
BRANCH  18  19
HETATM   19  C   UNL     1     -10.496   7.045  67.627  1.00  0.00    -0.237 C  
BRANCH  19  20
HETATM   20  O   UNL     1      -9.076   6.984  67.647  1.00  0.00    -0.124 OA 
BRANCH  20  21
HETATM   21  C   UNL     1      -8.494   7.830  66.656  1.00  0.00    -0.129 C  
BRANCH  21  22
HETATM   22  C   UNL     1      -7.875   9.077  67.298  1.00  0.00    -0.099 C  
BRANCH  22  23
HETATM   23  O   UNL     1      -8.757   9.848  68.152  1.00  0.00    -0.121 OA 
BRANCH  23  24
HETATM   24  C   UNL     1      -8.639  11.284  68.004  1.00  0.00    -0.140 C  
HETATM   25  C   UNL     1      -8.430  11.644  66.560  1.00  0.00    -0.141 C  
HETATM   26  C   UNL     1      -9.805  11.942  65.724  1.00  0.00    -0.262 C  
HETATM   27  C   UNL     1     -10.943  12.951  66.357  1.00  0.00    -0.285 C  
HETATM   28  C   UNL     1     -11.460  14.496  65.998  1.00  0.00    -0.348 C  
HETATM   29  O   UNL     1     -12.088  12.108  66.548  1.00  0.00    -0.627 OA 
HETATM   30  C   UNL     1     -12.646  15.066  66.780  1.00  0.00     0.890 C  
HETATM   31  H   UNL     1     -12.744  12.690  66.913  1.00  0.00     0.000 HD 
HETATM   32  C   UNL     1     -12.285  14.815  68.223  1.00  0.00    -0.065 A  
HETATM   33  C   UNL     1     -13.137  15.146  69.260  1.00  0.00     0.963 A  
HETATM   34  C   UNL     1     -12.956  14.618  70.530  1.00  0.00    -0.319 A  
HETATM   35  C   UNL     1     -11.899  13.699  70.784  1.00  0.00    -0.087 A  
HETATM   36  O   UNL     1     -11.881  13.006  71.954  1.00  0.00     0.653 OA 
HETATM   37  C   UNL     1     -10.966  13.456  69.780  1.00  0.00     0.243 A  
HETATM   38  H   UNL     1     -11.175  12.392  72.124  1.00  0.00     0.000 HD 
HETATM   39  C   UNL     1     -11.097  14.032  68.509  1.00  0.00    -0.279 A  
HETATM   40  C   UNL     1     -10.154  13.398  67.523  1.00  0.00    -0.227 C  
HETATM   41  C   UNL     1      -9.881  12.102  68.422  1.00  0.00    -0.200 C  
HETATM   42  C   UNL     1      -9.007  14.401  66.556  1.00  0.00    -0.191 C  
HETATM   43  O   UNL     1      -9.952  12.512  69.814  1.00  0.00     1.148 OA 
HETATM   44  C   UNL     1      -9.570  14.847  64.907  1.00  0.00     0.611 C  
HETATM   45  N   UNL     1     -11.035  14.982  64.724  1.00  0.00    -0.391 NA 
BRANCH  45  46
HETATM   46  C   UNL     1     -11.768  14.248  63.707  1.00  0.00     0.144 C  
BRANCH  46  47
HETATM   47  C   UNL     1     -12.381  12.970  64.175  1.00  0.00    -0.429 C  
HETATM   48  C   UNL     1     -12.432  11.866  63.422  1.00  0.00    -0.582 C  
ENDBRANCH  46  47
ENDBRANCH  45  46
ENDBRANCH  23  24
ENDBRANCH  22  23
ENDBRANCH  21  22
ENDBRANCH  20  21
ENDBRANCH  19  20
ENDBRANCH  18  19
ENDBRANCH  17  18
ENDBRANCH  16  17
ENDBRANCH  15  16
ENDBRANCH  14  15
ENDBRANCH  13  14
ENDBRANCH  12  13
ENDBRANCH  11  12
ENDBRANCH  10  11
ENDBRANCH   9  10
ENDBRANCH   8   9
ENDBRANCH   7   8
ENDBRANCH   6   7
ENDBRANCH   5   6
ENDBRANCH   4   5
ENDBRANCH   3   4
ENDBRANCH   2   3
TORSDOF 24
ENDMDL
MODEL      185
REMARK 921   NORMALIZED FREE ENERGY PREDICTED BY IDOCK:    1.07 KCAL/MOL
REMARK 922        TOTAL FREE ENERGY PREDICTED BY IDOCK:    0.28 KCAL/MOL
REMARK 923 INTER-LIGAND FREE ENERGY PREDICTED BY IDOCK:   -0.20 KCAL/MOL
REMARK 924 INTRA-LIGAND FREE ENERGY PREDICTED BY IDOCK:    0.47 KCAL/MOL
REMARK 927      BINDING AFFINITY PREDICTED BY RF-SCORE:    0.00 PKD
ROOT
HETATM    1  C   UNL     1     -10.060  14.171  66.587  1.00  0.00    -0.275 C  
HETATM    2  O   UNL     1     -10.770  13.329  67.484  1.00  0.00    -0.246 OA 
ENDROOT
BRANCH   2   3
HETATM    3  C   UNL     1      -9.933  12.882  68.549  1.00  0.00    -0.165 C  
BRANCH   3   4
HETATM    4  C   UNL     1      -9.705  14.028  69.524  1.00  0.00     0.606 C  
BRANCH   4   5
HETATM    5  O   UNL     1      -8.666  14.867  69.021  1.00  0.00    -0.191 OA 
BRANCH   5   6
HETATM    6  C   UNL     1      -7.725  15.182  70.043  1.00  0.00     0.182 C  
BRANCH   6   7
HETATM    7  C   UNL     1      -6.350  14.674  69.641  1.00  0.00    -0.142 C  
BRANCH   7   8
HETATM    8  O   UNL     1      -6.518  13.645  68.669  1.00  0.00    -0.081 OA 
BRANCH   8   9
HETATM    9  C   UNL     1      -6.240  14.120  67.357  1.00  0.00     0.207 C  
BRANCH   9  10
HETATM   10  C   UNL     1      -6.340  12.959  66.383  1.00  0.00     2.350 C  
BRANCH  10  11
HETATM   11  O   UNL     1      -6.443  11.753  67.128  1.00  0.00    -0.118 OA 
BRANCH  11  12
HETATM   12  C   UNL     1      -5.178  11.113  67.254  1.00  0.00    -0.048 C  
BRANCH  12  13
HETATM   13  C   UNL     1      -5.407   9.623  67.440  1.00  0.00    -0.036 C  
BRANCH  13  14
HETATM   14  O   UNL     1      -5.853   9.059  66.214  1.00  0.00    -0.055 OA 
BRANCH  14  15
HETATM   15  C   UNL     1      -7.218   8.672  66.315  1.00  0.00    -0.079 C  
BRANCH  15  16
HETATM   16  C   UNL     1      -8.045   9.396  65.267  1.00  0.00    -0.124 C  
BRANCH  16  17
HETATM   17  O   UNL     1      -9.327   8.782  65.235  1.00  0.00    -0.122 OA 
BRANCH  17  18
HETATM   18  C   UNL     1     -10.194   9.288  66.237  1.00  0.00    -0.203 C  
BRANCH  18  19
HETATM   19  C   UNL     1     -10.624   8.123  67.108  1.00  0.00    -0.285 C  
BRANCH  19  20
HETATM   20  O   UNL     1     -11.486   8.585  68.139  1.00  0.00     0.707 OA 
BRANCH  20  21
HETATM   21  C   UNL     1     -10.766   8.920  69.324  1.00  0.00    -0.162 C  
BRANCH  21  22
HETATM   22  C   UNL     1      -9.278   9.129  69.019  1.00  0.00    -0.143 C  
BRANCH  22  23
HETATM   23  O   UNL     1      -8.369   8.199  69.663  1.00  0.00    -0.121 OA 
BRANCH  23  24
HETATM   24  C   UNL     1      -8.919   6.880  69.895  1.00  0.00    -0.142 C  
HETATM   25  C   UNL     1      -9.313   6.242  68.592  1.00  0.00    -0.122 C  
HETATM   26  C   UNL     1      -8.144   5.337  67.892  1.00  0.00    -0.099 C  
HETATM   27  C   UNL     1      -7.321   4.228  68.791  1.00  0.00    -0.056 C  
HETATM   28  C   UNL     1      -7.312   2.562  68.861  1.00  0.00    -0.044 C  
HETATM   29  O   UNL     1      -5.968   4.704  68.776  1.00  0.00    -0.023 OA 
HETATM   30  C   UNL     1      -6.303   1.879  69.789  1.00  0.00    -0.025 C  
HETATM   31  H   UNL     1      -5.494   4.063  69.295  1.00  0.00     0.000 HD 
HETATM   32  C   UNL     1      -6.484   2.589  71.109  1.00  0.00    -0.023 A  
HETATM   33  C   UNL     1      -5.708   2.293  72.212  1.00  0.00    -0.008 A  
HETATM   34  C   UNL     1      -5.644   3.158  73.295  1.00  0.00     0.000 A  
HETATM   35  C   UNL     1      -6.361   4.387  73.277  1.00  0.00    -0.044 A  
HETATM   36  O   UNL     1      -6.101   5.329  74.223  1.00  0.00    -0.053 OA 
HETATM   37  C   UNL     1      -7.240   4.635  72.226  1.00  0.00    -0.079 A  
HETATM   38  H   UNL     1      -6.579   6.150  74.211  1.00  0.00     0.000 HD 
HETATM   39  C   UNL     1      -7.365   3.741  71.154  1.00  0.00    -0.033 A  
HETATM   40  C   UNL     1      -8.135   4.356  70.018  1.00  0.00    -0.060 C  
HETATM   41  C   UNL     1      -7.954   5.859  70.538  1.00  0.00    -0.106 C  
HETATM   42  C   UNL     1      -9.586   3.536  69.326  1.00  0.00    -0.161 C  
HETATM   43  O   UNL     1      -7.923   5.818  71.991  1.00  0.00    -0.105 OA 
HETATM   44  C   UNL     1      -9.283   2.533  67.863  1.00  0.00    -0.204 C  
HETATM   45  N   UNL     1      -7.939   1.918  67.752  1.00  0.00    -0.059 NA 
BRANCH  45  46
HETATM   46  C   UNL     1      -7.085   2.107  66.593  1.00  0.00    -0.052 C  
BRANCH  46  47
HETATM   47  C   UNL     1      -7.801   2.494  65.341  1.00  0.00    -0.078 C  
HETATM   48  C   UNL     1      -7.619   3.668  64.728  1.00  0.00    -0.077 C  
ENDBRANCH  46  47
ENDBRANCH  45  46
ENDBRANCH  23  24
ENDBRANCH  22  23
ENDBRANCH  21  22
ENDBRANCH  20  21
ENDBRANCH  19  20
ENDBRANCH  18  19
ENDBRANCH  17  18
ENDBRANCH  16  17
ENDBRANCH  15  16
ENDBRANCH  14  15
ENDBRANCH  13  14
ENDBRANCH  12  13
ENDBRANCH  11  12
ENDBRANCH  10  11
ENDBRANCH   9  10
ENDBRANCH   8   9
ENDBRANCH   7   8
ENDBRANCH   6   7
ENDBRANCH   5   6
ENDBRANCH   4   5
ENDBRANCH   3   4
ENDBRANCH   2   3
TORSDOF 24
ENDMDL
MODEL      186
REMARK 921   NORMALIZED FREE ENERGY PREDICTED BY IDOCK:    1.15 KCAL/MOL
REMARK 922        TOTAL FREE ENERGY PREDICTED BY IDOCK:    0.46 KCAL/MOL
REMARK 923 INTER-LIGAND FREE ENERGY PREDICTED BY IDOCK:   -2.51 KCAL/MOL
REMARK 924 INTRA-LIGAND FREE ENERGY PREDICTED BY IDOCK:    2.97 KCAL/MOL
REMARK 927      BINDING AFFINITY PREDICTED BY RF-SCORE:    0.00 PKD
ROOT
HETATM    1  C   UNL     1     -10.820  18.153  70.165  1.00  0.00     1.925 C  
HETATM    2  O   UNL     1     -11.261  16.805  70.086  1.00  0.00    -0.160 OA 
ENDROOT
BRANCH   2   3
HETATM    3  C   UNL     1     -11.572  16.439  68.743  1.00  0.00    -0.144 C  
BRANCH   3   4
HETATM    4  C   UNL     1     -12.256  15.079  68.738  1.00  0.00    -0.082 C  
BRANCH   4   5
HETATM    5  O   UNL     1     -11.266  14.063  68.588  1.00  0.00    -0.242 OA 
BRANCH   5   6
HETATM    6  C   UNL     1     -10.275  14.161  69.607  1.00  0.00     0.370 C  
BRANCH   6   7
HETATM    7  C   UNL     1      -9.086  14.950  69.083  1.00  0.00    -0.140 C  
BRANCH   7   8
HETATM    8  O   UNL     1      -8.776  14.480  67.773  1.00  0.00    -0.160 OA 
BRANCH   8   9
HETATM    9  C   UNL     1      -7.691  13.560  67.796  1.00  0.00    -0.163 C  
BRANCH   9  10
HETATM   10  C   UNL     1      -8.233  12.167  68.063  1.00  0.00    -0.158 C  
BRANCH  10  11
HETATM   11  O   UNL     1      -7.564  11.251  67.207  1.00  0.00    -0.116 OA 
BRANCH  11  12
HETATM   12  C   UNL     1      -6.195  11.108  67.571  1.00  0.00    -0.060 C  
BRANCH  12  13
HETATM   13  C   UNL     1      -5.351  11.165  66.310  1.00  0.00    -0.136 C  
BRANCH  13  14
HETATM   14  O   UNL     1      -6.194  11.042  65.173  1.00  0.00     0.077 OA 
BRANCH  14  15
HETATM   15  C   UNL     1      -6.447   9.671  64.889  1.00  0.00    -0.092 C  
BRANCH  15  16
HETATM   16  C   UNL     1      -6.893   9.509  63.446  1.00  0.00    -0.102 C  
BRANCH  16  17
HETATM   17  O   UNL     1      -8.196  10.066  63.336  1.00  0.00    -0.147 OA 
BRANCH  17  18
HETATM   18  C   UNL     1      -8.938   9.950  64.540  1.00  0.00    -0.234 C  
BRANCH  18  19
HETATM   19  C   UNL     1      -8.823   8.514  65.016  1.00  0.00    -0.029 C  
BRANCH  19  20
HETATM   20  O   UNL     1     -10.066   8.086  65.555  1.00  0.00     0.828 OA 
BRANCH  20  21
HETATM   21  C   UNL     1      -9.960   6.815  66.195  1.00  0.00     0.221 C  
BRANCH  21  22
HETATM   22  C   UNL     1      -8.571   6.630  66.816  1.00  0.00    -0.118 C  
BRANCH  22  23
HETATM   23  O   UNL     1      -7.922   7.843  67.278  1.00  0.00    -0.114 OA 
BRANCH  23  24
HETATM   24  C   UNL     1      -8.066   8.103  68.695  1.00  0.00    -0.124 C  
HETATM   25  C   UNL     1      -9.412   8.708  68.981  1.00  0.00    -0.153 C  
HETATM   26  C   UNL     1     -10.588   7.626  69.333  1.00  0.00    -0.217 C  
HETATM   27  C   UNL     1     -10.301   6.439  70.440  1.00  0.00    -0.205 C  
HETATM   28  C   UNL     1     -10.818   6.151  71.999  1.00  0.00    -0.247 C  
HETATM   29  O   UNL     1     -10.400   5.226  69.682  1.00  0.00    -0.258 OA 
HETATM   30  C   UNL     1     -10.390   4.846  72.677  1.00  0.00    -0.250 C  
HETATM   31  H   UNL     1     -10.234   4.541  70.321  1.00  0.00     0.000 HD 
HETATM   32  C   UNL     1      -8.897   4.798  72.464  1.00  0.00    -0.125 A  
HETATM   33  C   UNL     1      -8.130   3.731  72.891  1.00  0.00    -0.086 A  
HETATM   34  C   UNL     1      -6.846   3.533  72.406  1.00  0.00    -0.033 A  
HETATM   35  C   UNL     1      -6.301   4.415  71.431  1.00  0.00    -0.019 A  
HETATM   36  O   UNL     1      -5.152   4.076  70.787  1.00  0.00     0.000 OA 
HETATM   37  C   UNL     1      -7.018   5.559  71.086  1.00  0.00    -0.065 A  
HETATM   38  H   UNL     1      -4.788   4.665  70.136  1.00  0.00     0.000 HD 
HETATM   39  C   UNL     1      -8.291   5.808  71.617  1.00  0.00    -0.124 A  
HETATM   40  C   UNL     1      -8.978   6.927  70.882  1.00  0.00    -0.149 C  
HETATM   41  C   UNL     1      -8.010   6.859  69.610  1.00  0.00    -0.125 C  
HETATM   42  C   UNL     1      -9.630   8.358  71.767  1.00  0.00    -0.303 C  
HETATM   43  O   UNL     1      -6.695   6.456  70.081  1.00  0.00    -0.047 OA 
HETATM   44  C   UNL     1     -11.379   8.280  72.181  1.00  0.00    -0.352 C  
HETATM   45  N   UNL     1     -11.945   6.929  72.403  1.00  0.00    -0.188 NA 
BRANCH  45  46
HETATM   46  C   UNL     1     -13.103   6.435  71.678  1.00  0.00     0.268 C  
BRANCH  46  47
HETATM   47  C   UNL     1     -14.166   7.452  71.425  1.00  0.00    -0.508 C  
HETATM   48  C   UNL     1     -13.912   8.759  71.303  1.00  0.00    -0.230 C  
ENDBRANCH  46  47
ENDBRANCH  45  46
ENDBRANCH  23  24
ENDBRANCH  22  23
ENDBRANCH  21  22
ENDBRANCH  20  21
ENDBRANCH  19  20
ENDBRANCH  18  19
ENDBRANCH  17  18
ENDBRANCH  16  17
ENDBRANCH  15  16
ENDBRANCH  14  15
ENDBRANCH  13  14
ENDBRANCH  12  13
ENDBRANCH  11  12
ENDBRANCH  10  11
ENDBRANCH   9  10
ENDBRANCH   8   9
ENDBRANCH   7   8
ENDBRANCH   6   7
ENDBRANCH   5   6
ENDBRANCH   4   5
ENDBRANCH   3   4
ENDBRANCH   2   3
TORSDOF 24
ENDMDL
MODEL      187
REMARK 921   NORMALIZED FREE ENERGY PREDICTED BY IDOCK:    1.23 KCAL/MOL
REMARK 922        TOTAL FREE ENERGY PREDICTED BY IDOCK:    0.66 KCAL/MOL
REMARK 923 INTER-LIGAND FREE ENERGY PREDICTED BY IDOCK:   -3.53 KCAL/MOL
REMARK 924 INTRA-LIGAND FREE ENERGY PREDICTED BY IDOCK:    4.18 KCAL/MOL
REMARK 927      BINDING AFFINITY PREDICTED BY RF-SCORE:    0.00 PKD
ROOT
HETATM    1  C   UNL     1     -14.080   7.067  72.924  1.00  0.00     1.343 C  
HETATM    2  O   UNL     1     -13.129   6.048  72.647  1.00  0.00     0.237 OA 
ENDROOT
BRANCH   2   3
HETATM    3  C   UNL     1     -12.905   5.915  71.245  1.00  0.00     1.603 C  
BRANCH   3   4
HETATM    4  C   UNL     1     -12.507   7.266  70.670  1.00  0.00    -0.055 C  
BRANCH   4   5
HETATM    5  O   UNL     1     -11.240   7.142  70.025  1.00  0.00    -0.270 OA 
BRANCH   5   6
HETATM    6  C   UNL     1     -11.394   6.714  68.675  1.00  0.00    -0.058 C  
BRANCH   6   7
HETATM    7  C   UNL     1     -10.083   6.129  68.175  1.00  0.00    -0.157 C  
BRANCH   7   8
HETATM    8  O   UNL     1     -10.192   4.708  68.186  1.00  0.00    -0.058 OA 
BRANCH   8   9
HETATM    9  C   UNL     1      -9.226   4.120  69.048  1.00  0.00    -0.150 C  
BRANCH   9  10
HETATM   10  C   UNL     1      -9.379   2.609  68.999  1.00  0.00    -0.143 C  
BRANCH  10  11
HETATM   11  O   UNL     1      -8.094   2.021  69.151  1.00  0.00    -0.045 OA 
BRANCH  11  12
HETATM   12  C   UNL     1      -7.208   2.887  69.850  1.00  0.00    -0.040 C  
BRANCH  12  13
HETATM   13  C   UNL     1      -7.996   4.086  70.347  1.00  0.00    -0.051 C  
BRANCH  13  14
HETATM   14  O   UNL     1      -7.330   5.281  69.961  1.00  0.00    -0.061 OA 
BRANCH  14  15
HETATM   15  C   UNL     1      -5.939   5.185  70.243  1.00  0.00    -0.018 C  
BRANCH  15  16
HETATM   16  C   UNL     1      -5.242   4.373  69.166  1.00  0.00    -0.007 C  
BRANCH  16  17
HETATM   17  O   UNL     1      -5.132   5.197  68.013  1.00  0.00    -0.003 OA 
BRANCH  17  18
HETATM   18  C   UNL     1      -5.984   4.774  66.961  1.00  0.00    -0.027 C  
BRANCH  18  19
HETATM   19  C   UNL     1      -5.663   5.615  65.740  1.00  0.00    -0.014 C  
BRANCH  19  20
HETATM   20  O   UNL     1      -5.315   6.932  66.141  1.00  0.00    -0.021 OA 
BRANCH  20  21
HETATM   21  C   UNL     1      -6.353   7.868  65.853  1.00  0.00    -0.042 C  
BRANCH  21  22
HETATM   22  C   UNL     1      -6.210   9.127  66.716  1.00  0.00    -0.065 C  
BRANCH  22  23
HETATM   23  O   UNL     1      -7.001  10.269  66.298  1.00  0.00    -0.101 OA 
BRANCH  23  24
HETATM   24  C   UNL     1      -8.337  10.315  66.855  1.00  0.00    -0.123 C  
HETATM   25  C   UNL     1      -8.299  10.849  68.259  1.00  0.00    -0.129 C  
HETATM   26  C   UNL     1      -8.483  12.470  68.380  1.00  0.00    -0.125 C  
HETATM   27  C   UNL     1      -9.709  13.215  67.569  1.00  0.00    -0.213 C  
HETATM   28  C   UNL     1     -11.147  13.924  68.027  1.00  0.00    -0.259 C  
HETATM   29  O   UNL     1      -9.037  14.077  66.639  1.00  0.00    -0.324 OA 
HETATM   30  C   UNL     1     -11.992  14.615  66.953  1.00  0.00    -0.294 C  
HETATM   31  H   UNL     1      -9.745  14.507  66.171  1.00  0.00     0.000 HD 
HETATM   32  C   UNL     1     -12.090  13.589  65.850  1.00  0.00    -0.477 A  
HETATM   33  C   UNL     1     -12.741  13.852  64.661  1.00  0.00    -0.179 A  
HETATM   34  C   UNL     1     -12.542  13.053  63.544  1.00  0.00    -0.262 A  
HETATM   35  C   UNL     1     -11.636  11.956  63.597  1.00  0.00    -0.464 A  
HETATM   36  O   UNL     1     -11.266  11.337  62.444  1.00  0.00     0.055 OA 
HETATM   37  C   UNL     1     -11.071  11.611  64.822  1.00  0.00    -0.264 A  
HETATM   38  H   UNL     1     -10.661  10.605  62.478  1.00  0.00     0.000 HD 
HETATM   39  C   UNL     1     -11.312  12.370  65.975  1.00  0.00    -0.397 A  
HETATM   40  C   UNL     1     -10.374  11.987  67.086  1.00  0.00    -0.235 C  
HETATM   41  C   UNL     1      -9.332  11.244  66.125  1.00  0.00    -0.211 C  
HETATM   42  C   UNL     1     -11.001  11.505  68.708  1.00  0.00    -0.271 C  
HETATM   43  O   UNL     1     -10.089  10.656  65.031  1.00  0.00    -0.285 OA 
HETATM   44  C   UNL     1     -11.055  12.818  69.938  1.00  0.00     0.318 C  
HETATM   45  N   UNL     1     -11.256  14.194  69.425  1.00  0.00    -0.262 NA 
BRANCH  45  46
HETATM   46  C   UNL     1     -10.349  15.285  69.734  1.00  0.00    -0.254 C  
BRANCH  46  47
HETATM   47  C   UNL     1     -10.868  16.645  69.403  1.00  0.00    -0.295 C  
HETATM   48  C   UNL     1     -10.168  17.545  68.704  1.00  0.00    -0.373 C  
ENDBRANCH  46  47
ENDBRANCH  45  46
ENDBRANCH  23  24
ENDBRANCH  22  23
ENDBRANCH  21  22
ENDBRANCH  20  21
ENDBRANCH  19  20
ENDBRANCH  18  19
ENDBRANCH  17  18
ENDBRANCH  16  17
ENDBRANCH  15  16
ENDBRANCH  14  15
ENDBRANCH  13  14
ENDBRANCH  12  13
ENDBRANCH  11  12
ENDBRANCH  10  11
ENDBRANCH   9  10
ENDBRANCH   8   9
ENDBRANCH   7   8
ENDBRANCH   6   7
ENDBRANCH   5   6
ENDBRANCH   4   5
ENDBRANCH   3   4
ENDBRANCH   2   3
TORSDOF 24
ENDMDL
MODEL      188
REMARK 921   NORMALIZED FREE ENERGY PREDICTED BY IDOCK:    1.36 KCAL/MOL
REMARK 922        TOTAL FREE ENERGY PREDICTED BY IDOCK:    0.98 KCAL/MOL
REMARK 923 INTER-LIGAND FREE ENERGY PREDICTED BY IDOCK:   -1.02 KCAL/MOL
REMARK 924 INTRA-LIGAND FREE ENERGY PREDICTED BY IDOCK:    2.00 KCAL/MOL
REMARK 927      BINDING AFFINITY PREDICTED BY RF-SCORE:    0.00 PKD
ROOT
HETATM    1  C   UNL     1      -6.553   2.965  72.442  1.00  0.00    -0.015 C  
HETATM    2  O   UNL     1      -6.960   3.074  73.799  1.00  0.00    -0.034 OA 
ENDROOT
BRANCH   2   3
HETATM    3  C   UNL     1      -6.122   3.975  74.521  1.00  0.00    -0.029 C  
BRANCH   3   4
HETATM    4  C   UNL     1      -6.753   5.359  74.519  1.00  0.00    -0.077 C  
BRANCH   4   5
HETATM    5  O   UNL     1      -6.754   5.868  73.186  1.00  0.00    -0.071 OA 
BRANCH   5   6
HETATM    6  C   UNL     1      -6.970   7.276  73.177  1.00  0.00    -0.068 C  
BRANCH   6   7
HETATM    7  C   UNL     1      -8.382   7.575  73.654  1.00  0.00    -0.164 C  
BRANCH   7   8
HETATM    8  O   UNL     1      -9.150   6.377  73.565  1.00  0.00    -0.124 OA 
BRANCH   8   9
HETATM    9  C   UNL     1     -10.477   6.576  74.036  1.00  0.00    -0.285 C  
BRANCH   9  10
HETATM   10  C   UNL     1     -11.294   7.236  72.939  1.00  0.00    -0.246 C  
BRANCH  10  11
HETATM   11  O   UNL     1     -12.628   6.753  73.017  1.00  0.00     0.845 OA 
BRANCH  11  12
HETATM   12  C   UNL     1     -12.740   5.451  72.455  1.00  0.00     0.791 C  
BRANCH  12  13
HETATM   13  C   UNL     1     -11.461   5.139  71.698  1.00  0.00     0.523 C  
BRANCH  13  14
HETATM   14  O   UNL     1     -10.641   4.288  72.486  1.00  0.00    -0.177 OA 
BRANCH  14  15
HETATM   15  C   UNL     1      -9.723   3.582  71.661  1.00  0.00    -0.163 C  
BRANCH  15  16
HETATM   16  C   UNL     1      -9.809   4.086  70.231  1.00  0.00    -0.134 C  
BRANCH  16  17
HETATM   17  O   UNL     1      -8.483   4.173  69.727  1.00  0.00    -0.060 OA 
BRANCH  17  18
HETATM   18  C   UNL     1      -7.895   5.441  69.966  1.00  0.00    -0.081 C  
BRANCH  18  19
HETATM   19  C   UNL     1      -8.011   6.251  68.689  1.00  0.00    -0.105 C  
BRANCH  19  20
HETATM   20  O   UNL     1      -8.850   7.377  68.908  1.00  0.00    -0.132 OA 
BRANCH  20  21
HETATM   21  C   UNL     1      -9.694   7.198  70.045  1.00  0.00    -0.171 C  
BRANCH  21  22
HETATM   22  C   UNL     1     -10.844   8.211  70.037  1.00  0.00    -0.233 C  
BRANCH  22  23
HETATM   23  O   UNL     1     -10.771   9.236  69.013  1.00  0.00    -0.218 OA 
BRANCH  23  24
HETATM   24  C   UNL     1     -10.253  10.509  69.470  1.00  0.00    -0.200 C  
HETATM   25  C   UNL     1      -9.455  11.169  68.380  1.00  0.00    -0.189 C  
HETATM   26  C   UNL     1     -10.315  12.170  67.413  1.00  0.00    -0.220 C  
HETATM   27  C   UNL     1     -11.315  13.295  68.085  1.00  0.00    -0.288 C  
HETATM   28  C   UNL     1     -11.264  14.955  68.239  1.00  0.00    -0.294 C  
HETATM   29  O   UNL     1     -12.623  12.906  67.643  1.00  0.00     0.086 OA 
HETATM   30  C   UNL     1     -12.470  15.664  68.861  1.00  0.00     0.310 C  
HETATM   31  H   UNL     1     -13.199  13.554  68.031  1.00  0.00     0.000 HD 
HETATM   32  C   UNL     1     -12.728  14.896  70.134  1.00  0.00    -0.262 A  
HETATM   33  C   UNL     1     -13.785  15.199  70.971  1.00  0.00    -0.450 A  
HETATM   34  C   UNL     1     -14.213  14.300  71.938  1.00  0.00    -0.597 A  
HETATM   35  C   UNL     1     -13.583  13.030  72.067  1.00  0.00    -0.441 A  
HETATM   36  O   UNL     1     -14.161  12.072  72.841  1.00  0.00     0.056 OA 
HETATM   37  C   UNL     1     -12.443  12.766  71.313  1.00  0.00    -0.185 A  
HETATM   38  H   UNL     1     -13.742  11.224  72.927  1.00  0.00     0.000 HD 
HETATM   39  C   UNL     1     -11.959  13.690  70.377  1.00  0.00    -0.372 A  
HETATM   40  C   UNL     1     -10.914  13.070  69.490  1.00  0.00     0.035 C  
HETATM   41  C   UNL     1     -11.316  11.564  69.850  1.00  0.00    -0.186 C  
HETATM   42  C   UNL     1      -9.284  13.823  69.306  1.00  0.00     0.568 C  
HETATM   43  O   UNL     1     -11.779  11.553  71.228  1.00  0.00     0.301 OA 
HETATM   44  C   UNL     1      -9.085  14.897  67.876  1.00  0.00    -0.182 C  
HETATM   45  N   UNL     1     -10.302  15.599  67.403  1.00  0.00    -0.269 NA 
BRANCH  45  46
HETATM   46  C   UNL     1     -10.778  15.506  66.034  1.00  0.00    -0.326 C  
BRANCH  46  47
HETATM   47  C   UNL     1     -11.641  16.640  65.591  1.00  0.00     1.021 C  
HETATM   48  C   UNL     1     -11.642  17.113  64.341  1.00  0.00     1.493 C  
ENDBRANCH  46  47
ENDBRANCH  45  46
ENDBRANCH  23  24
ENDBRANCH  22  23
ENDBRANCH  21  22
ENDBRANCH  20  21
ENDBRANCH  19  20
ENDBRANCH  18  19
ENDBRANCH  17  18
ENDBRANCH  16  17
ENDBRANCH  15  16
ENDBRANCH  14  15
ENDBRANCH  13  14
ENDBRANCH  12  13
ENDBRANCH  11  12
ENDBRANCH  10  11
ENDBRANCH   9  10
ENDBRANCH   8   9
ENDBRANCH   7   8
ENDBRANCH   6   7
ENDBRANCH   5   6
ENDBRANCH   4   5
ENDBRANCH   3   4
ENDBRANCH   2   3
TORSDOF 24
ENDMDL
MODEL      189
REMARK 921   NORMALIZED FREE ENERGY PREDICTED BY IDOCK:    1.41 KCAL/MOL
REMARK 922        TOTAL FREE ENERGY PREDICTED BY IDOCK:    1.09 KCAL/MOL
REMARK 923 INTER-LIGAND FREE ENERGY PREDICTED BY IDOCK:   -0.79 KCAL/MOL
REMARK 924 INTRA-LIGAND FREE ENERGY PREDICTED BY IDOCK:    1.89 KCAL/MOL
REMARK 927      BINDING AFFINITY PREDICTED BY RF-SCORE:    0.00 PKD
ROOT
HETATM    1  C   UNL     1     -11.067   7.433  65.803  1.00  0.00     4.056 C  
HETATM    2  O   UNL     1     -11.498   6.211  66.387  1.00  0.00     0.229 OA 
ENDROOT
BRANCH   2   3
HETATM    3  C   UNL     1     -10.515   5.688  67.278  1.00  0.00    -0.258 C  
BRANCH   3   4
HETATM    4  C   UNL     1      -9.859   4.471  66.644  1.00  0.00    -0.225 C  
BRANCH   4   5
HETATM    5  O   UNL     1      -8.456   4.511  66.904  1.00  0.00    -0.106 OA 
BRANCH   5   6
HETATM    6  C   UNL     1      -7.776   3.477  66.198  1.00  0.00    -0.081 C  
BRANCH   6   7
HETATM    7  C   UNL     1      -6.767   2.812  67.119  1.00  0.00    -0.041 C  
BRANCH   7   8
HETATM    8  O   UNL     1      -6.228   3.807  67.987  1.00  0.00    -0.031 OA 
BRANCH   8   9
HETATM    9  C   UNL     1      -5.881   4.987  67.272  1.00  0.00    -0.022 C  
BRANCH   9  10
HETATM   10  C   UNL     1      -6.565   6.175  67.926  1.00  0.00    -0.059 C  
BRANCH  10  11
HETATM   11  O   UNL     1      -7.341   5.703  69.020  1.00  0.00    -0.078 OA 
BRANCH  11  12
HETATM   12  C   UNL     1      -6.996   6.375  70.226  1.00  0.00    -0.063 C  
BRANCH  12  13
HETATM   13  C   UNL     1      -6.506   5.345  71.229  1.00  0.00    -0.035 C  
BRANCH  13  14
HETATM   14  O   UNL     1      -6.266   5.981  72.477  1.00  0.00    -0.050 OA 
BRANCH  14  15
HETATM   15  C   UNL     1      -7.469   6.544  72.986  1.00  0.00    -0.089 C  
BRANCH  15  16
HETATM   16  C   UNL     1      -7.992   7.606  72.034  1.00  0.00    -0.100 C  
BRANCH  16  17
HETATM   17  O   UNL     1      -8.528   8.661  72.823  1.00  0.00    -0.396 OA 
BRANCH  17  18
HETATM   18  C   UNL     1      -9.279   9.585  72.053  1.00  0.00     1.497 C  
BRANCH  18  19
HETATM   19  C   UNL     1      -9.894   8.827  70.892  1.00  0.00    -0.222 C  
BRANCH  19  20
HETATM   20  O   UNL     1     -11.308   8.971  70.920  1.00  0.00    -0.267 OA 
BRANCH  20  21
HETATM   21  C   UNL     1     -11.706  10.336  70.799  1.00  0.00    -0.360 C  
BRANCH  21  22
HETATM   22  C   UNL     1     -12.260  10.622  69.399  1.00  0.00    -0.102 C  
BRANCH  22  23
HETATM   23  O   UNL     1     -12.542  12.015  69.108  1.00  0.00     0.127 OA 
BRANCH  23  24
HETATM   24  C   UNL     1     -11.823  12.553  67.972  1.00  0.00    -0.325 C  
HETATM   25  C   UNL     1     -12.149  14.009  67.789  1.00  0.00    -0.325 C  
HETATM   26  C   UNL     1     -11.145  15.038  68.570  1.00  0.00    -0.279 C  
HETATM   27  C   UNL     1      -9.514  14.845  68.437  1.00  0.00    -0.209 C  
HETATM   28  C   UNL     1      -8.301  15.683  67.657  1.00  0.00    -0.155 C  
HETATM   29  O   UNL     1      -9.089  14.546  69.775  1.00  0.00    -0.263 OA 
HETATM   30  C   UNL     1      -6.854  15.228  67.863  1.00  0.00    -0.167 C  
HETATM   31  H   UNL     1      -8.148  14.435  69.698  1.00  0.00     0.000 HD 
HETATM   32  C   UNL     1      -6.897  13.743  67.600  1.00  0.00    -0.187 A  
HETATM   33  C   UNL     1      -5.780  12.942  67.735  1.00  0.00    -0.135 A  
HETATM   34  C   UNL     1      -5.895  11.562  67.823  1.00  0.00    -0.049 A  
HETATM   35  C   UNL     1      -7.178  10.944  67.804  1.00  0.00    -0.091 A  
HETATM   36  O   UNL     1      -7.294   9.630  68.135  1.00  0.00    -0.080 OA 
HETATM   37  C   UNL     1      -8.297  11.731  67.545  1.00  0.00    -0.154 A  
HETATM   38  H   UNL     1      -8.150   9.218  68.122  1.00  0.00     0.000 HD 
HETATM   39  C   UNL     1      -8.191  13.120  67.389  1.00  0.00    -0.187 A  
HETATM   40  C   UNL     1      -9.544  13.776  67.417  1.00  0.00    -0.229 C  
HETATM   41  C   UNL     1     -10.282  12.522  68.083  1.00  0.00    -0.231 C  
HETATM   42  C   UNL     1     -10.080  14.860  66.077  1.00  0.00    -0.331 C  
HETATM   43  O   UNL     1      -9.619  11.320  67.605  1.00  0.00    -0.168 OA 
HETATM   44  C   UNL     1      -9.821  16.618  66.353  1.00  0.00    -0.292 C  
HETATM   45  N   UNL     1      -8.673  16.989  67.214  1.00  0.00    -0.197 NA 
BRANCH  45  46
HETATM   46  C   UNL     1      -8.815  17.827  68.392  1.00  0.00    -0.285 C  
BRANCH  46  47
HETATM   47  C   UNL     1      -7.530  18.309  68.978  1.00  0.00    -0.189 C  
HETATM   48  C   UNL     1      -6.836  17.616  69.887  1.00  0.00     0.410 C  
ENDBRANCH  46  47
ENDBRANCH  45  46
ENDBRANCH  23  24
ENDBRANCH  22  23
ENDBRANCH  21  22
ENDBRANCH  20  21
ENDBRANCH  19  20
ENDBRANCH  18  19
ENDBRANCH  17  18
ENDBRANCH  16  17
ENDBRANCH  15  16
ENDBRANCH  14  15
ENDBRANCH  13  14
ENDBRANCH  12  13
ENDBRANCH  11  12
ENDBRANCH  10  11
ENDBRANCH   9  10
ENDBRANCH   8   9
ENDBRANCH   7   8
ENDBRANCH   6   7
ENDBRANCH   5   6
ENDBRANCH   4   5
ENDBRANCH   3   4
ENDBRANCH   2   3
TORSDOF 24
ENDMDL
MODEL      190
REMARK 921   NORMALIZED FREE ENERGY PREDICTED BY IDOCK:    1.41 KCAL/MOL
REMARK 922        TOTAL FREE ENERGY PREDICTED BY IDOCK:    1.10 KCAL/MOL
REMARK 923 INTER-LIGAND FREE ENERGY PREDICTED BY IDOCK:    0.52 KCAL/MOL
REMARK 924 INTRA-LIGAND FREE ENERGY PREDICTED BY IDOCK:    0.59 KCAL/MOL
REMARK 927      BINDING AFFINITY PREDICTED BY RF-SCORE:    0.00 PKD
ROOT
HETATM    1  C   UNL     1      -6.795   6.546  73.330  1.00  0.00    -0.077 C  
HETATM    2  O   UNL     1      -6.627   5.672  72.223  1.00  0.00    -0.057 OA 
ENDROOT
BRANCH   2   3
HETATM    3  C   UNL     1      -5.706   4.625  72.523  1.00  0.00    -0.012 C  
BRANCH   3   4
HETATM    4  C   UNL     1      -6.223   3.318  71.942  1.00  0.00    -0.014 C  
BRANCH   4   5
HETATM    5  O   UNL     1      -6.871   3.585  70.700  1.00  0.00    -0.032 OA 
BRANCH   5   6
HETATM    6  C   UNL     1      -8.267   3.308  70.783  1.00  0.00    -0.056 C  
BRANCH   6   7
HETATM    7  C   UNL     1      -8.797   2.960  69.402  1.00  0.00    -0.094 C  
BRANCH   7   8
HETATM    8  O   UNL     1      -9.280   4.155  68.791  1.00  0.00    -0.123 OA 
BRANCH   8   9
HETATM    9  C   UNL     1      -8.238   5.110  68.627  1.00  0.00    -0.085 C  
BRANCH   9  10
HETATM   10  C   UNL     1      -8.858   6.472  68.365  1.00  0.00    -0.123 C  
BRANCH  10  11
HETATM   11  O   UNL     1     -10.269   6.358  68.495  1.00  0.00    -0.151 OA 
BRANCH  11  12
HETATM   12  C   UNL     1     -10.725   6.947  69.707  1.00  0.00    -0.244 C  
BRANCH  12  13
HETATM   13  C   UNL     1     -10.507   5.958  70.839  1.00  0.00    -0.244 C  
BRANCH  13  14
HETATM   14  O   UNL     1     -11.712   5.812  71.577  1.00  0.00    -0.104 OA 
BRANCH  14  15
HETATM   15  C   UNL     1     -12.814   6.313  70.830  1.00  0.00     1.111 C  
BRANCH  15  16
HETATM   16  C   UNL     1     -13.369   7.563  71.491  1.00  0.00    -0.352 C  
BRANCH  16  17
HETATM   17  O   UNL     1     -12.520   8.647  71.136  1.00  0.00    -0.276 OA 
BRANCH  17  18
HETATM   18  C   UNL     1     -12.804   9.157  69.843  1.00  0.00     1.656 C  
BRANCH  18  19
HETATM   19  C   UNL     1     -11.701  10.134  69.479  1.00  0.00    -0.061 C  
BRANCH  19  20
HETATM   20  O   UNL     1     -12.066  11.444  69.890  1.00  0.00    -0.310 OA 
BRANCH  20  21
HETATM   21  C   UNL     1     -12.950  12.067  68.959  1.00  0.00     1.977 C  
BRANCH  21  22
HETATM   22  C   UNL     1     -12.170  12.908  67.943  1.00  0.00     0.024 C  
BRANCH  22  23
HETATM   23  O   UNL     1     -11.255  13.883  68.505  1.00  0.00    -0.244 OA 
BRANCH  23  24
HETATM   24  C   UNL     1      -9.966  13.952  67.846  1.00  0.00    -0.242 C  
HETATM   25  C   UNL     1      -8.859  13.927  68.863  1.00  0.00     0.107 C  
HETATM   26  C   UNL     1      -8.295  12.434  69.222  1.00  0.00     0.774 C  
HETATM   27  C   UNL     1      -7.914  11.389  68.006  1.00  0.00    -0.127 C  
HETATM   28  C   UNL     1      -6.484  10.796  67.385  1.00  0.00    -0.063 C  
HETATM   29  O   UNL     1      -8.836  10.304  68.178  1.00  0.00    -0.121 OA 
HETATM   30  C   UNL     1      -6.555   9.735  66.283  1.00  0.00    -0.073 C  
HETATM   31  H   UNL     1      -8.616   9.702  67.476  1.00  0.00     0.000 HD 
HETATM   32  C   UNL     1      -7.513  10.321  65.275  1.00  0.00    -0.141 A  
HETATM   33  C   UNL     1      -7.888   9.635  64.136  1.00  0.00    -0.130 A  
HETATM   34  C   UNL     1      -9.001  10.020  63.402  1.00  0.00    -0.277 A  
HETATM   35  C   UNL     1      -9.798  11.120  63.828  1.00  0.00    -0.331 A  
HETATM   36  O   UNL     1     -11.010  11.333  63.249  1.00  0.00    -0.738 OA 
HETATM   37  C   UNL     1      -9.359  11.890  64.902  1.00  0.00     0.122 A  
HETATM   38  H   UNL     1     -11.543  12.067  63.534  1.00  0.00     0.000 HD 
HETATM   39  C   UNL     1      -8.201  11.553  65.615  1.00  0.00     0.333 A  
HETATM   40  C   UNL     1      -8.097  12.342  66.891  1.00  0.00    -0.064 C  
HETATM   41  C   UNL     1      -9.638  12.775  66.901  1.00  0.00    -0.235 C  
HETATM   42  C   UNL     1      -6.620  13.307  67.270  1.00  0.00     0.090 C  
HETATM   43  O   UNL     1     -10.062  12.914  65.517  1.00  0.00    -0.278 OA 
HETATM   44  C   UNL     1      -5.407  12.486  68.316  1.00  0.00    -0.061 C  
HETATM   45  N   UNL     1      -5.343  11.009  68.217  1.00  0.00    -0.040 NA 
BRANCH  45  46
HETATM   46  C   UNL     1      -5.474  10.140  69.373  1.00  0.00    -0.038 C  
BRANCH  46  47
HETATM   47  C   UNL     1      -5.986   8.770  69.074  1.00  0.00    -0.043 C  
HETATM   48  C   UNL     1      -5.205   7.684  69.061  1.00  0.00    -0.019 C  
ENDBRANCH  46  47
ENDBRANCH  45  46
ENDBRANCH  23  24
ENDBRANCH  22  23
ENDBRANCH  21  22
ENDBRANCH  20  21
ENDBRANCH  19  20
ENDBRANCH  18  19
ENDBRANCH  17  18
ENDBRANCH  16  17
ENDBRANCH  15  16
ENDBRANCH  14  15
ENDBRANCH  13  14
ENDBRANCH  12  13
ENDBRANCH  11  12
ENDBRANCH  10  11
ENDBRANCH   9  10
ENDBRANCH   8   9
ENDBRANCH   7   8
ENDBRANCH   6   7
ENDBRANCH   5   6
ENDBRANCH   4   5
ENDBRANCH   3   4
ENDBRANCH   2   3
TORSDOF 24
ENDMDL
MODEL      191
REMARK 921   NORMALIZED FREE ENERGY PREDICTED BY IDOCK:    1.42 KCAL/MOL
REMARK 922        TOTAL FREE ENERGY PREDICTED BY IDOCK:    1.11 KCAL/MOL
REMARK 923 INTER-LIGAND FREE ENERGY PREDICTED BY IDOCK:   -1.41 KCAL/MOL
REMARK 924 INTRA-LIGAND FREE ENERGY PREDICTED BY IDOCK:    2.52 KCAL/MOL
REMARK 927      BINDING AFFINITY PREDICTED BY RF-SCORE:    0.00 PKD
ROOT
HETATM    1  C   UNL     1     -12.093  14.297  65.725  1.00  0.00    -0.405 C  
HETATM    2  O   UNL     1     -12.663  13.720  66.891  1.00  0.00    -0.118 OA 
ENDROOT
BRANCH   2   3
HETATM    3  C   UNL     1     -12.109  14.290  68.076  1.00  0.00    -0.254 C  
BRANCH   3   4
HETATM    4  C   UNL     1     -12.906  15.529  68.458  1.00  0.00     1.497 C  
BRANCH   4   5
HETATM    5  O   UNL     1     -12.609  16.575  67.534  1.00  0.00     1.979 OA 
BRANCH   5   6
HETATM    6  C   UNL     1     -11.812  17.585  68.147  1.00  0.00     1.640 C  
BRANCH   6   7
HETATM    7  C   UNL     1     -10.602  17.875  67.275  1.00  0.00    -0.332 C  
BRANCH   7   8
HETATM    8  O   UNL     1     -10.277  16.692  66.549  1.00  0.00    -0.290 OA 
BRANCH   8   9
HETATM    9  C   UNL     1      -9.435  15.833  67.308  1.00  0.00    -0.212 C  
BRANCH   9  10
HETATM   10  C   UNL     1      -9.337  16.368  68.726  1.00  0.00    -0.245 C  
BRANCH  10  11
HETATM   11  O   UNL     1      -7.962  16.523  69.055  1.00  0.00    -0.237 OA 
BRANCH  11  12
HETATM   12  C   UNL     1      -7.198  16.902  67.916  1.00  0.00    -0.149 C  
BRANCH  12  13
HETATM   13  C   UNL     1      -6.364  15.712  67.475  1.00  0.00    -0.151 C  
BRANCH  13  14
HETATM   14  O   UNL     1      -6.134  14.859  68.589  1.00  0.00    -0.082 OA 
BRANCH  14  15
HETATM   15  C   UNL     1      -5.135  13.896  68.277  1.00  0.00    -0.109 C  
BRANCH  15  16
HETATM   16  C   UNL     1      -5.768  12.679  67.625  1.00  0.00    -0.136 C  
BRANCH  16  17
HETATM   17  O   UNL     1      -6.758  12.182  68.518  1.00  0.00    -0.061 OA 
BRANCH  17  18
HETATM   18  C   UNL     1      -8.042  12.727  68.260  1.00  0.00    -0.154 C  
BRANCH  18  19
HETATM   19  C   UNL     1      -9.049  11.596  68.349  1.00  0.00    -0.180 C  
BRANCH  19  20
HETATM   20  O   UNL     1      -8.370  10.357  68.499  1.00  0.00    -0.113 OA 
BRANCH  20  21
HETATM   21  C   UNL     1      -8.043  10.091  69.861  1.00  0.00    -0.166 C  
BRANCH  21  22
HETATM   22  C   UNL     1      -6.876   9.101  69.961  1.00  0.00    -0.049 C  
BRANCH  22  23
HETATM   23  O   UNL     1      -6.649   8.279  68.787  1.00  0.00    -0.051 OA 
BRANCH  23  24
HETATM   24  C   UNL     1      -7.658   7.267  68.554  1.00  0.00    -0.118 C  
HETATM   25  C   UNL     1      -7.011   5.954  68.211  1.00  0.00    -0.072 C  
HETATM   26  C   UNL     1      -6.717   4.981  69.493  1.00  0.00    -0.051 C  
HETATM   27  C   UNL     1      -7.907   4.707  70.600  1.00  0.00    -0.061 C  
HETATM   28  C   UNL     1      -8.870   3.398  70.974  1.00  0.00    -0.083 C  
HETATM   29  O   UNL     1      -7.388   5.269  71.814  1.00  0.00    -0.083 OA 
HETATM   30  C   UNL     1      -9.818   3.511  72.172  1.00  0.00    -0.238 C  
HETATM   31  H   UNL     1      -8.075   5.111  72.452  1.00  0.00     0.000 HD 
HETATM   32  C   UNL     1     -10.544   4.814  71.940  1.00  0.00    -0.150 A  
HETATM   33  C   UNL     1     -11.466   5.309  72.842  1.00  0.00    -0.339 A  
HETATM   34  C   UNL     1     -11.870   6.635  72.797  1.00  0.00     0.063 A  
HETATM   35  C   UNL     1     -11.316   7.524  71.831  1.00  0.00    -0.260 A  
HETATM   36  O   UNL     1     -11.530   8.861  71.952  1.00  0.00    -0.333 OA 
HETATM   37  C   UNL     1     -10.481   7.006  70.844  1.00  0.00    -0.214 A  
HETATM   38  H   UNL     1     -11.161   9.454  71.308  1.00  0.00     0.000 HD 
HETATM   39  C   UNL     1     -10.114   5.653  70.837  1.00  0.00    -0.263 A  
HETATM   40  C   UNL     1      -8.990   5.399  69.871  1.00  0.00    -0.147 C  
HETATM   41  C   UNL     1      -8.564   6.938  69.761  1.00  0.00    -0.141 C  
HETATM   42  C   UNL     1      -9.135   4.142  68.584  1.00  0.00    -0.185 C  
HETATM   43  O   UNL     1      -9.769   7.737  69.907  1.00  0.00    -0.174 OA 
HETATM   44  C   UNL     1      -8.430   2.537  68.987  1.00  0.00    -0.066 C  
HETATM   45  N   UNL     1      -8.428   2.158  70.420  1.00  0.00    -0.045 NA 
BRANCH  45  46
HETATM   46  C   UNL     1      -7.220   1.768  71.126  1.00  0.00    -0.032 C  
BRANCH  46  47
HETATM   47  C   UNL     1      -7.405   1.487  72.580  1.00  0.00    -0.027 C  
HETATM   48  C   UNL     1      -6.397   1.488  73.459  1.00  0.00    -0.012 C  
ENDBRANCH  46  47
ENDBRANCH  45  46
ENDBRANCH  23  24
ENDBRANCH  22  23
ENDBRANCH  21  22
ENDBRANCH  20  21
ENDBRANCH  19  20
ENDBRANCH  18  19
ENDBRANCH  17  18
ENDBRANCH  16  17
ENDBRANCH  15  16
ENDBRANCH  14  15
ENDBRANCH  13  14
ENDBRANCH  12  13
ENDBRANCH  11  12
ENDBRANCH  10  11
ENDBRANCH   9  10
ENDBRANCH   8   9
ENDBRANCH   7   8
ENDBRANCH   6   7
ENDBRANCH   5   6
ENDBRANCH   4   5
ENDBRANCH   3   4
ENDBRANCH   2   3
TORSDOF 24
ENDMDL
MODEL      192
REMARK 921   NORMALIZED FREE ENERGY PREDICTED BY IDOCK:    1.62 KCAL/MOL
REMARK 922        TOTAL FREE ENERGY PREDICTED BY IDOCK:    1.59 KCAL/MOL
REMARK 923 INTER-LIGAND FREE ENERGY PREDICTED BY IDOCK:   -3.80 KCAL/MOL
REMARK 924 INTRA-LIGAND FREE ENERGY PREDICTED BY IDOCK:    5.39 KCAL/MOL
REMARK 927      BINDING AFFINITY PREDICTED BY RF-SCORE:    0.00 PKD
ROOT
HETATM    1  C   UNL     1     -10.148  18.881  66.556  1.00  0.00    -0.398 C  
HETATM    2  O   UNL     1     -10.270  17.495  66.267  1.00  0.00    -0.341 OA 
ENDROOT
BRANCH   2   3
HETATM    3  C   UNL     1     -11.144  16.849  67.191  1.00  0.00     0.145 C  
BRANCH   3   4
HETATM    4  C   UNL     1     -10.656  17.105  68.609  1.00  0.00    -0.352 C  
BRANCH   4   5
HETATM    5  O   UNL     1      -9.304  17.560  68.560  1.00  0.00    -0.273 OA 
BRANCH   5   6
HETATM    6  C   UNL     1      -8.437  16.531  68.091  1.00  0.00    -0.191 C  
BRANCH   6   7
HETATM    7  C   UNL     1      -9.252  15.291  67.762  1.00  0.00    -0.187 C  
BRANCH   7   8
HETATM    8  O   UNL     1      -8.577  14.155  68.297  1.00  0.00    -0.162 OA 
BRANCH   8   9
HETATM    9  C   UNL     1      -8.204  13.243  67.271  1.00  0.00    -0.158 C  
BRANCH   9  10
HETATM   10  C   UNL     1      -9.418  12.416  66.884  1.00  0.00    -0.219 C  
BRANCH  10  11
HETATM   11  O   UNL     1     -10.589  13.134  67.253  1.00  0.00    -0.244 OA 
BRANCH  11  12
HETATM   12  C   UNL     1     -11.236  12.529  68.366  1.00  0.00    -0.272 C  
BRANCH  12  13
HETATM   13  C   UNL     1     -12.084  11.374  67.863  1.00  0.00     0.143 C  
BRANCH  13  14
HETATM   14  O   UNL     1     -12.136  10.360  68.858  1.00  0.00    -0.192 OA 
BRANCH  14  15
HETATM   15  C   UNL     1     -12.660  10.884  70.072  1.00  0.00    -0.187 C  
BRANCH  15  16
HETATM   16  C   UNL     1     -11.821  10.415  71.248  1.00  0.00    -0.289 C  
BRANCH  16  17
HETATM   17  O   UNL     1     -12.413   9.223  71.748  1.00  0.00    -0.332 OA 
BRANCH  17  18
HETATM   18  C   UNL     1     -11.876   8.836  73.002  1.00  0.00     0.762 C  
BRANCH  18  19
HETATM   19  C   UNL     1     -10.850   7.748  72.749  1.00  0.00    -0.379 C  
BRANCH  19  20
HETATM   20  O   UNL     1     -10.925   6.768  73.776  1.00  0.00    -0.170 OA 
BRANCH  20  21
HETATM   21  C   UNL     1      -9.876   5.807  73.673  1.00  0.00    -0.171 C  
BRANCH  21  22
HETATM   22  C   UNL     1      -8.798   6.277  72.691  1.00  0.00    -0.126 C  
BRANCH  22  23
HETATM   23  O   UNL     1      -9.234   6.460  71.319  1.00  0.00    -0.155 OA 
BRANCH  23  24
HETATM   24  C   UNL     1      -8.189   6.305  70.328  1.00  0.00    -0.125 C  
HETATM   25  C   UNL     1      -8.721   5.589  69.118  1.00  0.00    -0.103 C  
HETATM   26  C   UNL     1      -9.313   6.569  67.949  1.00  0.00    -0.111 C  
HETATM   27  C   UNL     1      -8.430   7.865  67.445  1.00  0.00    -0.122 C  
HETATM   28  C   UNL     1      -7.577   8.226  66.058  1.00  0.00    -0.078 C  
HETATM   29  O   UNL     1      -9.236   8.996  67.806  1.00  0.00    -0.139 OA 
HETATM   30  C   UNL     1      -6.955   9.619  65.928  1.00  0.00    -0.097 C  
HETATM   31  H   UNL     1      -8.726   9.744  67.516  1.00  0.00     0.000 HD 
HETATM   32  C   UNL     1      -6.205   9.804  67.225  1.00  0.00    -0.067 A  
HETATM   33  C   UNL     1      -5.536  10.976  67.523  1.00  0.00    -0.045 A  
HETATM   34  C   UNL     1      -5.145  11.266  68.822  1.00  0.00    -0.040 A  
HETATM   35  C   UNL     1      -5.452  10.367  69.883  1.00  0.00    -0.041 A  
HETATM   36  O   UNL     1      -5.285  10.770  71.172  1.00  0.00    -0.094 OA 
HETATM   37  C   UNL     1      -6.014   9.131  69.574  1.00  0.00    -0.033 A  
HETATM   38  H   UNL     1      -5.490  10.170  71.880  1.00  0.00     0.000 HD 
HETATM   39  C   UNL     1      -6.357   8.796  68.257  1.00  0.00    -0.055 A  
HETATM   40  C   UNL     1      -7.207   7.556  68.214  1.00  0.00    -0.093 C  
HETATM   41  C   UNL     1      -7.605   7.619  69.763  1.00  0.00    -0.093 C  
HETATM   42  C   UNL     1      -6.739   6.142  67.194  1.00  0.00    -0.057 C  
HETATM   43  O   UNL     1      -6.480   8.193  70.481  1.00  0.00    -0.036 OA 
HETATM   44  C   UNL     1      -7.508   6.072  65.570  1.00  0.00    -0.082 C  
HETATM   45  N   UNL     1      -7.860   7.371  64.949  1.00  0.00    -0.120 NA 
BRANCH  45  46
HETATM   46  C   UNL     1      -9.201   7.681  64.486  1.00  0.00     1.416 C  
BRANCH  46  47
HETATM   47  C   UNL     1      -9.601   9.111  64.635  1.00  0.00     0.410 C  
HETATM   48  C   UNL     1      -8.881  10.126  64.147  1.00  0.00    -0.243 C  
ENDBRANCH  46  47
ENDBRANCH  45  46
ENDBRANCH  23  24
ENDBRANCH  22  23
ENDBRANCH  21  22
ENDBRANCH  20  21
ENDBRANCH  19  20
ENDBRANCH  18  19
ENDBRANCH  17  18
ENDBRANCH  16  17
ENDBRANCH  15  16
ENDBRANCH  14  15
ENDBRANCH  13  14
ENDBRANCH  12  13
ENDBRANCH  11  12
ENDBRANCH  10  11
ENDBRANCH   9  10
ENDBRANCH   8   9
ENDBRANCH   7   8
ENDBRANCH   6   7
ENDBRANCH   5   6
ENDBRANCH   4   5
ENDBRANCH   3   4
ENDBRANCH   2   3
TORSDOF 24
ENDMDL
MODEL      193
REMARK 921   NORMALIZED FREE ENERGY PREDICTED BY IDOCK:    1.69 KCAL/MOL
REMARK 922        TOTAL FREE ENERGY PREDICTED BY IDOCK:    1.78 KCAL/MOL
REMARK 923 INTER-LIGAND FREE ENERGY PREDICTED BY IDOCK:    1.56 KCAL/MOL
REMARK 924 INTRA-LIGAND FREE ENERGY PREDICTED BY IDOCK:    0.22 KCAL/MOL
REMARK 927      BINDING AFFINITY PREDICTED BY RF-SCORE:    0.00 PKD
ROOT
HETATM    1  C   UNL     1     -12.359   4.974  72.976  1.00  0.00     0.467 C  
HETATM    2  O   UNL     1     -11.288   4.534  72.153  1.00  0.00     0.276 OA 
ENDROOT
BRANCH   2   3
HETATM    3  C   UNL     1     -10.865   3.220  72.512  1.00  0.00     0.207 C  
BRANCH   3   4
HETATM    4  C   UNL     1      -9.500   3.296  73.179  1.00  0.00    -0.098 C  
BRANCH   4   5
HETATM    5  O   UNL     1      -9.225   4.654  73.522  1.00  0.00    -0.115 OA 
BRANCH   5   6
HETATM    6  C   UNL     1      -7.892   5.010  73.166  1.00  0.00    -0.100 C  
BRANCH   6   7
HETATM    7  C   UNL     1      -7.635   4.629  71.717  1.00  0.00    -0.091 C  
BRANCH   7   8
HETATM    8  O   UNL     1      -8.819   4.892  70.967  1.00  0.00    -0.121 OA 
BRANCH   8   9
HETATM    9  C   UNL     1      -8.709   4.400  69.636  1.00  0.00    -0.077 C  
BRANCH   9  10
HETATM   10  C   UNL     1      -9.639   5.198  68.739  1.00  0.00    -0.143 C  
BRANCH  10  11
HETATM   11  O   UNL     1     -10.775   5.588  69.500  1.00  0.00    -0.310 OA 
BRANCH  11  12
HETATM   12  C   UNL     1     -11.313   6.819  69.032  1.00  0.00    -0.081 C  
BRANCH  12  13
HETATM   13  C   UNL     1     -10.516   7.265  67.818  1.00  0.00    -0.228 C  
BRANCH  13  14
HETATM   14  O   UNL     1     -10.731   8.652  67.597  1.00  0.00    -0.224 OA 
BRANCH  14  15
HETATM   15  C   UNL     1      -9.851   9.424  68.405  1.00  0.00    -0.160 C  
BRANCH  15  16
HETATM   16  C   UNL     1     -10.206  10.897  68.303  1.00  0.00    -0.173 C  
BRANCH  16  17
HETATM   17  O   UNL     1      -9.435  11.451  67.245  1.00  0.00    -0.166 OA 
BRANCH  17  18
HETATM   18  C   UNL     1     -10.233  11.838  66.138  1.00  0.00    -0.220 C  
BRANCH  18  19
HETATM   19  C   UNL     1      -9.299  12.171  64.990  1.00  0.00     0.221 C  
BRANCH  19  20
HETATM   20  O   UNL     1      -9.857  13.214  64.203  1.00  0.00    -0.217 OA 
BRANCH  20  21
HETATM   21  C   UNL     1     -10.805  13.986  64.939  1.00  0.00    -0.410 C  
BRANCH  21  22
HETATM   22  C   UNL     1     -10.244  15.374  65.267  1.00  0.00    -0.357 C  
BRANCH  22  23
HETATM   23  O   UNL     1     -10.406  15.808  66.642  1.00  0.00    -0.277 OA 
BRANCH  23  24
HETATM   24  C   UNL     1     -10.326  17.241  66.836  1.00  0.00    -0.310 C  
HETATM   25  C   UNL     1     -10.685  17.596  68.252  1.00  0.00    -0.285 C  
HETATM   26  C   UNL     1      -9.417  17.656  69.285  1.00  0.00     0.110 C  
HETATM   27  C   UNL     1      -8.059  18.489  68.863  1.00  0.00    -0.191 C  
HETATM   28  C   UNL     1      -7.373  19.925  69.359  1.00  0.00    -0.108 C  
HETATM   29  O   UNL     1      -7.041  17.481  68.796  1.00  0.00    -0.228 OA 
HETATM   30  C   UNL     1      -6.012  20.321  68.778  1.00  0.00    -0.335 C  
HETATM   31  H   UNL     1      -6.257  17.962  68.553  1.00  0.00     0.000 HD 
HETATM   32  C   UNL     1      -6.194  20.162  67.288  1.00  0.00    -0.217 A  
HETATM   33  C   UNL     1      -5.161  20.379  66.397  1.00  0.00    -0.178 A  
HETATM   34  C   UNL     1      -5.233  19.915  65.091  1.00  0.00    -0.185 A  
HETATM   35  C   UNL     1      -6.369  19.178  64.651  1.00  0.00    -0.071 A  
HETATM   36  O   UNL     1      -6.322  18.523  63.460  1.00  0.00     0.966 OA 
HETATM   37  C   UNL     1      -7.464  19.062  65.503  1.00  0.00     0.101 A  
HETATM   38  H   UNL     1      -7.080  18.031  63.166  1.00  0.00     0.000 HD 
HETATM   39  C   UNL     1      -7.433  19.581  66.805  1.00  0.00    -0.258 A  
HETATM   40  C   UNL     1      -8.594  19.080  67.619  1.00  0.00    -0.317 C  
HETATM   41  C   UNL     1      -8.927  17.864  66.634  1.00  0.00    -0.268 C  
HETATM   42  C   UNL     1      -9.704  20.228  68.460  1.00  0.00    -0.170 C  
HETATM   43  O   UNL     1      -8.593  18.289  65.285  1.00  0.00     0.590 OA 
HETATM   44  C   UNL     1      -9.325  20.543  70.190  1.00  0.00     1.475 C  
HETATM   45  N   UNL     1      -7.899  20.443  70.582  1.00  0.00     1.011 NA 
BRANCH  45  46
HETATM   46  C   UNL     1      -7.441  19.581  71.657  1.00  0.00     2.710 C  
BRANCH  46  47
HETATM   47  C   UNL     1      -5.982  19.673  71.957  1.00  0.00     0.017 C  
HETATM   48  C   UNL     1      -5.333  20.835  72.080  1.00  0.00     0.105 C  
ENDBRANCH  46  47
ENDBRANCH  45  46
ENDBRANCH  23  24
ENDBRANCH  22  23
ENDBRANCH  21  22
ENDBRANCH  20  21
ENDBRANCH  19  20
ENDBRANCH  18  19
ENDBRANCH  17  18
ENDBRANCH  16  17
ENDBRANCH  15  16
ENDBRANCH  14  15
ENDBRANCH  13  14
ENDBRANCH  12  13
ENDBRANCH  11  12
ENDBRANCH  10  11
ENDBRANCH   9  10
ENDBRANCH   8   9
ENDBRANCH   7   8
ENDBRANCH   6   7
ENDBRANCH   5   6
ENDBRANCH   4   5
ENDBRANCH   3   4
ENDBRANCH   2   3
TORSDOF 24
ENDMDL
MODEL      194
REMARK 921   NORMALIZED FREE ENERGY PREDICTED BY IDOCK:    1.74 KCAL/MOL
REMARK 922        TOTAL FREE ENERGY PREDICTED BY IDOCK:    1.88 KCAL/MOL
REMARK 923 INTER-LIGAND FREE ENERGY PREDICTED BY IDOCK:   -0.14 KCAL/MOL
REMARK 924 INTRA-LIGAND FREE ENERGY PREDICTED BY IDOCK:    2.02 KCAL/MOL
REMARK 927      BINDING AFFINITY PREDICTED BY RF-SCORE:    0.00 PKD
ROOT
HETATM    1  C   UNL     1     -12.146  16.474  67.081  1.00  0.00     1.741 C  
HETATM    2  O   UNL     1     -11.076  17.077  67.794  1.00  0.00    -0.263 OA 
ENDROOT
BRANCH   2   3
HETATM    3  C   UNL     1      -9.945  17.291  66.951  1.00  0.00    -0.294 C  
BRANCH   3   4
HETATM    4  C   UNL     1      -8.945  18.186  67.668  1.00  0.00    -0.259 C  
BRANCH   4   5
HETATM    5  O   UNL     1      -7.717  17.477  67.826  1.00  0.00    -0.198 OA 
BRANCH   5   6
HETATM    6  C   UNL     1      -7.774  16.207  67.183  1.00  0.00    -0.194 C  
BRANCH   6   7
HETATM    7  C   UNL     1      -6.756  15.272  67.814  1.00  0.00    -0.167 C  
BRANCH   7   8
HETATM    8  O   UNL     1      -6.489  14.213  66.898  1.00  0.00     0.208 OA 
BRANCH   8   9
HETATM    9  C   UNL     1      -7.685  13.545  66.514  1.00  0.00     1.193 C  
BRANCH   9  10
HETATM   10  C   UNL     1      -8.502  14.471  65.629  1.00  0.00     2.196 C  
BRANCH  10  11
HETATM   11  O   UNL     1      -9.881  14.240  65.888  1.00  0.00    -0.303 OA 
BRANCH  11  12
HETATM   12  C   UNL     1     -10.108  12.906  66.329  1.00  0.00    -0.276 C  
BRANCH  12  13
HETATM   13  C   UNL     1     -10.896  12.954  67.627  1.00  0.00    -0.232 C  
BRANCH  13  14
HETATM   14  O   UNL     1     -11.898  11.947  67.607  1.00  0.00    -0.534 OA 
BRANCH  14  15
HETATM   15  C   UNL     1     -11.362  10.706  68.048  1.00  0.00    -0.278 C  
BRANCH  15  16
HETATM   16  C   UNL     1      -9.894  10.867  68.401  1.00  0.00    -0.177 C  
BRANCH  16  17
HETATM   17  O   UNL     1      -9.729  10.447  69.749  1.00  0.00    -0.182 OA 
BRANCH  17  18
HETATM   18  C   UNL     1     -10.373   9.210  70.013  1.00  0.00    -0.207 C  
BRANCH  18  19
HETATM   19  C   UNL     1      -9.676   8.572  71.200  1.00  0.00    -0.201 C  
BRANCH  19  20
HETATM   20  O   UNL     1      -8.389   8.112  70.812  1.00  0.00    -0.112 OA 
BRANCH  20  21
HETATM   21  C   UNL     1      -7.691   9.081  70.031  1.00  0.00    -0.082 C  
BRANCH  21  22
HETATM   22  C   UNL     1      -6.364   8.514  69.514  1.00  0.00    -0.040 C  
BRANCH  22  23
HETATM   23  O   UNL     1      -6.351   8.119  68.118  1.00  0.00    -0.052 OA 
BRANCH  23  24
HETATM   24  C   UNL     1      -5.813   6.798  67.869  1.00  0.00    -0.020 C  
HETATM   25  C   UNL     1      -5.547   6.090  69.167  1.00  0.00    -0.008 C  
HETATM   26  C   UNL     1      -6.793   5.185  69.721  1.00  0.00    -0.052 C  
HETATM   27  C   UNL     1      -7.561   4.142  68.702  1.00  0.00    -0.059 C  
HETATM   28  C   UNL     1      -7.603   2.482  68.549  1.00  0.00    -0.047 C  
HETATM   29  O   UNL     1      -8.899   4.653  68.625  1.00  0.00    -0.096 OA 
HETATM   30  C   UNL     1      -8.543   1.870  67.507  1.00  0.00    -0.107 C  
HETATM   31  H   UNL     1      -9.341   4.051  68.037  1.00  0.00     0.000 HD 
HETATM   32  C   UNL     1      -8.233   2.636  66.244  1.00  0.00    -0.087 A  
HETATM   33  C   UNL     1      -8.918   2.414  65.065  1.00  0.00    -0.126 A  
HETATM   34  C   UNL     1      -8.868   3.329  64.024  1.00  0.00    -0.096 A  
HETATM   35  C   UNL     1      -8.127   4.537  64.163  1.00  0.00    -0.100 A  
HETATM   36  O   UNL     1      -8.283   5.529  63.246  1.00  0.00    -0.112 OA 
HETATM   37  C   UNL     1      -7.336   4.712  65.297  1.00  0.00    -0.076 A  
HETATM   38  H   UNL     1      -7.788   6.335  63.338  1.00  0.00     0.000 HD 
HETATM   39  C   UNL     1      -7.325   3.765  66.330  1.00  0.00    -0.072 A  
HETATM   40  C   UNL     1      -6.642   4.305  67.556  1.00  0.00    -0.046 C  
HETATM   41  C   UNL     1      -6.743   5.835  67.097  1.00  0.00    -0.062 C  
HETATM   42  C   UNL     1      -5.275   3.414  68.328  1.00  0.00    -0.012 C  
HETATM   43  O   UNL     1      -6.650   5.863  65.646  1.00  0.00    -0.042 OA 
HETATM   44  C   UNL     1      -5.726   2.352  69.709  1.00  0.00    -0.018 C  
HETATM   45  N   UNL     1      -7.088   1.769  69.675  1.00  0.00    -0.033 NA 
BRANCH  45  46
HETATM   46  C   UNL     1      -8.035   1.928  70.765  1.00  0.00    -0.038 C  
BRANCH  46  47
HETATM   47  C   UNL     1      -7.485   2.593  71.983  1.00  0.00    -0.044 C  
HETATM   48  C   UNL     1      -8.252   3.035  72.985  1.00  0.00    -0.075 C  
ENDBRANCH  46  47
ENDBRANCH  45  46
ENDBRANCH  23  24
ENDBRANCH  22  23
ENDBRANCH  21  22
ENDBRANCH  20  21
ENDBRANCH  19  20
ENDBRANCH  18  19
ENDBRANCH  17  18
ENDBRANCH  16  17
ENDBRANCH  15  16
ENDBRANCH  14  15
ENDBRANCH  13  14
ENDBRANCH  12  13
ENDBRANCH  11  12
ENDBRANCH  10  11
ENDBRANCH   9  10
ENDBRANCH   8   9
ENDBRANCH   7   8
ENDBRANCH   6   7
ENDBRANCH   5   6
ENDBRANCH   4   5
ENDBRANCH   3   4
ENDBRANCH   2   3
TORSDOF 24
ENDMDL
MODEL      195
REMARK 921   NORMALIZED FREE ENERGY PREDICTED BY IDOCK:    1.78 KCAL/MOL
REMARK 922        TOTAL FREE ENERGY PREDICTED BY IDOCK:    2.00 KCAL/MOL
REMARK 923 INTER-LIGAND FREE ENERGY PREDICTED BY IDOCK:   -5.21 KCAL/MOL
REMARK 924 INTRA-LIGAND FREE ENERGY PREDICTED BY IDOCK:    7.20 KCAL/MOL
REMARK 927      BINDING AFFINITY PREDICTED BY RF-SCORE:    0.00 PKD
ROOT
HETATM    1  C   UNL     1     -10.990  18.079  69.018  1.00  0.00     0.825 C  
HETATM    2  O   UNL     1      -9.585  18.285  68.966  1.00  0.00    -0.264 OA 
ENDROOT
BRANCH   2   3
HETATM    3  C   UNL     1      -9.221  19.532  69.555  1.00  0.00     0.207 C  
BRANCH   3   4
HETATM    4  C   UNL     1      -7.990  20.081  68.850  1.00  0.00     0.042 C  
BRANCH   4   5
HETATM    5  O   UNL     1      -6.900  19.182  69.051  1.00  0.00    -0.303 OA 
BRANCH   5   6
HETATM    6  C   UNL     1      -6.303  18.820  67.809  1.00  0.00    -0.206 C  
BRANCH   6   7
HETATM    7  C   UNL     1      -7.270  17.958  67.014  1.00  0.00    -0.189 C  
BRANCH   7   8
HETATM    8  O   UNL     1      -7.929  17.072  67.916  1.00  0.00    -0.182 OA 
BRANCH   8   9
HETATM    9  C   UNL     1      -7.060  16.658  68.964  1.00  0.00    -0.216 C  
BRANCH   9  10
HETATM   10  C   UNL     1      -6.693  15.200  68.751  1.00  0.00    -0.099 C  
BRANCH  10  11
HETATM   11  O   UNL     1      -6.968  14.859  67.398  1.00  0.00    -0.189 OA 
BRANCH  11  12
HETATM   12  C   UNL     1      -8.367  14.846  67.142  1.00  0.00    -0.221 C  
BRANCH  12  13
HETATM   13  C   UNL     1      -8.711  13.567  66.398  1.00  0.00     0.247 C  
BRANCH  13  14
HETATM   14  O   UNL     1      -8.550  12.458  67.271  1.00  0.00    -0.170 OA 
BRANCH  14  15
HETATM   15  C   UNL     1      -7.781  11.440  66.641  1.00  0.00    -0.129 C  
BRANCH  15  16
HETATM   16  C   UNL     1      -7.770  10.187  67.499  1.00  0.00    -0.091 C  
BRANCH  16  17
HETATM   17  O   UNL     1      -9.004  10.140  68.203  1.00  0.00    -0.121 OA 
BRANCH  17  18
HETATM   18  C   UNL     1     -10.122  10.321  67.350  1.00  0.00    -0.202 C  
BRANCH  18  19
HETATM   19  C   UNL     1     -10.134   9.176  66.355  1.00  0.00    -0.274 C  
BRANCH  19  20
HETATM   20  O   UNL     1      -8.882   8.504  66.380  1.00  0.00    -0.133 OA 
BRANCH  20  21
HETATM   21  C   UNL     1      -9.003   7.171  66.874  1.00  0.00    -0.134 C  
BRANCH  21  22
HETATM   22  C   UNL     1      -7.684   6.407  66.715  1.00  0.00    -0.100 C  
BRANCH  22  23
HETATM   23  O   UNL     1      -7.402   5.419  67.739  1.00  0.00    -0.071 OA 
BRANCH  23  24
HETATM   24  C   UNL     1      -7.121   5.969  69.048  1.00  0.00    -0.073 C  
HETATM   25  C   UNL     1      -7.866   7.260  69.243  1.00  0.00    -0.116 C  
HETATM   26  C   UNL     1      -9.345   7.099  69.924  1.00  0.00    -0.150 C  
HETATM   27  C   UNL     1      -9.524   6.181  71.280  1.00  0.00    -0.163 C  
HETATM   28  C   UNL     1      -9.814   6.520  72.887  1.00  0.00    -0.163 C  
HETATM   29  O   UNL     1     -10.386   5.112  70.865  1.00  0.00    -0.229 OA 
HETATM   30  C   UNL     1     -10.018   5.349  73.853  1.00  0.00    -0.203 C  
HETATM   31  H   UNL     1     -10.489   4.582  71.647  1.00  0.00     0.000 HD 
HETATM   32  C   UNL     1      -8.845   4.441  73.577  1.00  0.00    -0.101 A  
HETATM   33  C   UNL     1      -8.689   3.229  74.220  1.00  0.00    -0.084 A  
HETATM   34  C   UNL     1      -7.818   2.266  73.732  1.00  0.00    -0.053 A  
HETATM   35  C   UNL     1      -7.084   2.500  72.535  1.00  0.00    -0.031 A  
HETATM   36  O   UNL     1      -6.429   1.469  71.938  1.00  0.00    -0.014 OA 
HETATM   37  C   UNL     1      -7.141   3.763  71.950  1.00  0.00    -0.045 A  
HETATM   38  H   UNL     1      -5.939   1.625  71.139  1.00  0.00     0.000 HD 
HETATM   39  C   UNL     1      -7.968   4.769  72.468  1.00  0.00    -0.093 A  
HETATM   40  C   UNL     1      -8.087   5.923  71.510  1.00  0.00    -0.115 C  
HETATM   41  C   UNL     1      -7.558   5.097  70.246  1.00  0.00    -0.071 C  
HETATM   42  C   UNL     1      -7.711   7.608  72.034  1.00  0.00    -0.096 C  
HETATM   43  O   UNL     1      -6.590   4.127  70.731  1.00  0.00    -0.029 OA 
HETATM   44  C   UNL     1      -9.127   8.592  72.548  1.00  0.00    -0.117 C  
HETATM   45  N   UNL     1     -10.265   7.851  73.140  1.00  0.00    -0.323 NA 
BRANCH  45  46
HETATM   46  C   UNL     1     -11.621   7.960  72.630  1.00  0.00    -0.377 C  
BRANCH  46  47
HETATM   47  C   UNL     1     -11.891   9.185  71.822  1.00  0.00    -0.453 C  
HETATM   48  C   UNL     1     -11.875   9.197  70.485  1.00  0.00    -0.137 C  
ENDBRANCH  46  47
ENDBRANCH  45  46
ENDBRANCH  23  24
ENDBRANCH  22  23
ENDBRANCH  21  22
ENDBRANCH  20  21
ENDBRANCH  19  20
ENDBRANCH  18  19
ENDBRANCH  17  18
ENDBRANCH  16  17
ENDBRANCH  15  16
ENDBRANCH  14  15
ENDBRANCH  13  14
ENDBRANCH  12  13
ENDBRANCH  11  12
ENDBRANCH  10  11
ENDBRANCH   9  10
ENDBRANCH   8   9
ENDBRANCH   7   8
ENDBRANCH   6   7
ENDBRANCH   5   6
ENDBRANCH   4   5
ENDBRANCH   3   4
ENDBRANCH   2   3
TORSDOF 24
ENDMDL
MODEL      196
REMARK 921   NORMALIZED FREE ENERGY PREDICTED BY IDOCK:    1.92 KCAL/MOL
REMARK 922        TOTAL FREE ENERGY PREDICTED BY IDOCK:    2.32 KCAL/MOL
REMARK 923 INTER-LIGAND FREE ENERGY PREDICTED BY IDOCK:   -1.36 KCAL/MOL
REMARK 924 INTRA-LIGAND FREE ENERGY PREDICTED BY IDOCK:    3.69 KCAL/MOL
REMARK 927      BINDING AFFINITY PREDICTED BY RF-SCORE:    0.00 PKD
ROOT
HETATM    1  C   UNL     1     -13.058  15.433  71.343  1.00  0.00    -0.488 C  
HETATM    2  O   UNL     1     -11.766  15.629  71.901  1.00  0.00    -0.375 OA 
ENDROOT
BRANCH   2   3
HETATM    3  C   UNL     1     -11.668  16.895  72.551  1.00  0.00     0.295 C  
BRANCH   3   4
HETATM    4  C   UNL     1     -11.410  17.975  71.511  1.00  0.00     3.454 C  
BRANCH   4   5
HETATM    5  O   UNL     1     -10.345  17.556  70.659  1.00  0.00     1.100 OA 
BRANCH   5   6
HETATM    6  C   UNL     1      -9.971  18.597  69.761  1.00  0.00     0.606 C  
BRANCH   6   7
HETATM    7  C   UNL     1     -10.531  18.300  68.380  1.00  0.00    -0.269 C  
BRANCH   7   8
HETATM    8  O   UNL     1      -9.472  17.810  67.561  1.00  0.00    -0.253 OA 
BRANCH   8   9
HETATM    9  C   UNL     1      -8.325  17.484  68.336  1.00  0.00    -0.278 C  
BRANCH   9  10
HETATM   10  C   UNL     1      -8.143  15.977  68.335  1.00  0.00    -0.159 C  
BRANCH  10  11
HETATM   11  O   UNL     1      -9.064  15.411  69.259  1.00  0.00    -0.231 OA 
BRANCH  11  12
HETATM   12  C   UNL     1     -10.390  15.428  68.743  1.00  0.00    -0.229 C  
BRANCH  12  13
HETATM   13  C   UNL     1     -10.597  14.182  67.900  1.00  0.00    -0.243 C  
BRANCH  13  14
HETATM   14  O   UNL     1     -10.509  14.523  66.523  1.00  0.00    -0.277 OA 
BRANCH  14  15
HETATM   15  C   UNL     1      -9.254  14.116  65.991  1.00  0.00     0.030 C  
BRANCH  15  16
HETATM   16  C   UNL     1      -9.227  12.608  65.810  1.00  0.00     0.159 C  
BRANCH  16  17
HETATM   17  O   UNL     1     -10.508  12.212  65.335  1.00  0.00    -0.254 OA 
BRANCH  17  18
HETATM   18  C   UNL     1     -10.725  12.589  63.985  1.00  0.00    -0.415 C  
BRANCH  18  19
HETATM   19  C   UNL     1     -10.650  11.333  63.138  1.00  0.00    -0.161 C  
BRANCH  19  20
HETATM   20  O   UNL     1     -10.098  10.270  63.902  1.00  0.00    -0.228 OA 
BRANCH  20  21
HETATM   21  C   UNL     1      -8.764   9.962  63.499  1.00  0.00    -0.214 C  
BRANCH  21  22
HETATM   22  C   UNL     1      -8.716   8.632  62.739  1.00  0.00    -0.005 C  
BRANCH  22  23
HETATM   23  O   UNL     1      -8.204   7.499  63.486  1.00  0.00    -0.066 OA 
BRANCH  23  24
HETATM   24  C   UNL     1      -7.608   7.836  64.762  1.00  0.00    -0.108 C  
HETATM   25  C   UNL     1      -8.474   8.819  65.499  1.00  0.00    -0.181 C  
HETATM   26  C   UNL     1      -9.578   8.142  66.499  1.00  0.00    -0.303 C  
HETATM   27  C   UNL     1      -9.113   6.962  67.550  1.00  0.00    -0.118 C  
HETATM   28  C   UNL     1      -8.903   6.890  69.203  1.00  0.00    -0.134 C  
HETATM   29  O   UNL     1      -9.845   5.806  67.121  1.00  0.00    -0.126 OA 
HETATM   30  C   UNL     1      -8.544   5.541  69.833  1.00  0.00    -0.120 C  
HETATM   31  H   UNL     1      -9.576   5.125  67.727  1.00  0.00     0.000 HD 
HETATM   32  C   UNL     1      -7.383   5.049  69.004  1.00  0.00    -0.057 A  
HETATM   33  C   UNL     1      -6.794   3.820  69.226  1.00  0.00    -0.045 A  
HETATM   34  C   UNL     1      -5.973   3.237  68.271  1.00  0.00    -0.024 A  
HETATM   35  C   UNL     1      -5.743   3.888  67.026  1.00  0.00    -0.022 A  
HETATM   36  O   UNL     1      -5.145   3.205  66.013  1.00  0.00    -0.007 OA 
HETATM   37  C   UNL     1      -6.232   5.179  66.844  1.00  0.00    -0.032 A  
HETATM   38  H   UNL     1      -4.992   3.639  65.182  1.00  0.00     0.000 HD 
HETATM   39  C   UNL     1      -7.011   5.808  67.825  1.00  0.00    -0.066 A  
HETATM   40  C   UNL     1      -7.661   7.054  67.288  1.00  0.00    -0.109 C  
HETATM   41  C   UNL     1      -7.442   6.662  65.752  1.00  0.00    -0.081 C  
HETATM   42  C   UNL     1      -7.456   8.642  68.120  1.00  0.00    -0.096 C  
HETATM   43  O   UNL     1      -6.203   5.907  65.665  1.00  0.00    -0.034 OA 
HETATM   44  C   UNL     1      -8.774   9.096  69.257  1.00  0.00    -0.139 C  
HETATM   45  N   UNL     1      -9.485   7.978  69.922  1.00  0.00    -0.160 NA 
BRANCH  45  46
HETATM   46  C   UNL     1     -10.928   7.821  69.863  1.00  0.00    -0.190 C  
BRANCH  46  47
HETATM   47  C   UNL     1     -11.686   8.595  70.890  1.00  0.00    -0.287 C  
HETATM   48  C   UNL     1     -11.172   8.934  72.077  1.00  0.00    -0.422 C  
ENDBRANCH  46  47
ENDBRANCH  45  46
ENDBRANCH  23  24
ENDBRANCH  22  23
ENDBRANCH  21  22
ENDBRANCH  20  21
ENDBRANCH  19  20
ENDBRANCH  18  19
ENDBRANCH  17  18
ENDBRANCH  16  17
ENDBRANCH  15  16
ENDBRANCH  14  15
ENDBRANCH  13  14
ENDBRANCH  12  13
ENDBRANCH  11  12
ENDBRANCH  10  11
ENDBRANCH   9  10
ENDBRANCH   8   9
ENDBRANCH   7   8
ENDBRANCH   6   7
ENDBRANCH   5   6
ENDBRANCH   4   5
ENDBRANCH   3   4
ENDBRANCH   2   3
TORSDOF 24
ENDMDL
MODEL      197
REMARK 921   NORMALIZED FREE ENERGY PREDICTED BY IDOCK:    2.38 KCAL/MOL
REMARK 922        TOTAL FREE ENERGY PREDICTED BY IDOCK:    3.42 KCAL/MOL
REMARK 923 INTER-LIGAND FREE ENERGY PREDICTED BY IDOCK:   -0.10 KCAL/MOL
REMARK 924 INTRA-LIGAND FREE ENERGY PREDICTED BY IDOCK:    3.52 KCAL/MOL
REMARK 927      BINDING AFFINITY PREDICTED BY RF-SCORE:    0.00 PKD
ROOT
HETATM    1  C   UNL     1      -7.077   5.367  69.271  1.00  0.00    -0.060 C  
HETATM    2  O   UNL     1      -7.805   4.400  68.528  1.00  0.00    -0.074 OA 
ENDROOT
BRANCH   2   3
HETATM    3  C   UNL     1      -8.800   3.770  69.332  1.00  0.00    -0.090 C  
BRANCH   3   4
HETATM    4  C   UNL     1      -9.682   4.835  69.967  1.00  0.00    -0.210 C  
BRANCH   4   5
HETATM    5  O   UNL     1     -10.786   4.202  70.612  1.00  0.00     0.580 OA 
BRANCH   5   6
HETATM    6  C   UNL     1     -10.562   4.091  72.015  1.00  0.00     0.132 C  
BRANCH   6   7
HETATM    7  C   UNL     1      -9.138   4.513  72.336  1.00  0.00    -0.124 C  
BRANCH   7   8
HETATM    8  O   UNL     1      -9.181   5.490  73.373  1.00  0.00    -0.132 OA 
BRANCH   8   9
HETATM    9  C   UNL     1      -9.811   6.686  72.933  1.00  0.00    -0.164 C  
BRANCH   9  10
HETATM   10  C   UNL     1     -10.927   7.039  73.902  1.00  0.00     0.368 C  
BRANCH  10  11
HETATM   11  O   UNL     1     -12.141   6.485  73.413  1.00  0.00     0.977 OA 
BRANCH  11  12
HETATM   12  C   UNL     1     -12.719   7.311  72.408  1.00  0.00     0.148 C  
BRANCH  12  13
HETATM   13  C   UNL     1     -11.626   7.735  71.443  1.00  0.00    -0.276 C  
BRANCH  13  14
HETATM   14  O   UNL     1     -11.515   9.151  71.448  1.00  0.00    -0.294 OA 
BRANCH  14  15
HETATM   15  C   UNL     1     -12.112   9.699  70.279  1.00  0.00     0.023 C  
BRANCH  15  16
HETATM   16  C   UNL     1     -11.735  11.164  70.137  1.00  0.00    -0.353 C  
BRANCH  16  17
HETATM   17  O   UNL     1     -10.465  11.218  69.501  1.00  0.00    -0.124 OA 
BRANCH  17  18
HETATM   18  C   UNL     1     -10.358  12.307  68.598  1.00  0.00    -0.188 C  
BRANCH  18  19
HETATM   19  C   UNL     1      -8.882  12.602  68.403  1.00  0.00    -0.119 C  
BRANCH  19  20
HETATM   20  O   UNL     1      -8.455  13.566  69.355  1.00  0.00     0.558 OA 
BRANCH  20  21
HETATM   21  C   UNL     1      -7.106  13.973  69.131  1.00  0.00    -0.085 C  
BRANCH  21  22
HETATM   22  C   UNL     1      -6.875  14.314  67.655  1.00  0.00    -0.182 C  
BRANCH  22  23
HETATM   23  O   UNL     1      -8.069  14.596  66.881  1.00  0.00    -0.167 OA 
BRANCH  23  24
HETATM   24  C   UNL     1      -8.612  15.925  67.070  1.00  0.00    -0.216 C  
HETATM   25  C   UNL     1      -8.965  16.144  68.514  1.00  0.00    -0.204 C  
HETATM   26  C   UNL     1      -7.768  16.796  69.419  1.00  0.00     0.051 C  
HETATM   27  C   UNL     1      -6.958  18.122  68.871  1.00  0.00    -0.267 C  
HETATM   28  C   UNL     1      -6.934  19.733  69.301  1.00  0.00    -0.314 C  
HETATM   29  O   UNL     1      -5.610  17.662  68.703  1.00  0.00    -0.152 OA 
HETATM   30  C   UNL     1      -5.944  20.661  68.592  1.00  0.00    -0.379 C  
HETATM   31  H   UNL     1      -5.143  18.427  68.386  1.00  0.00     0.000 HD 
HETATM   32  C   UNL     1      -6.167  20.379  67.126  1.00  0.00    -0.245 A  
HETATM   33  C   UNL     1      -5.417  20.990  66.140  1.00  0.00    -0.258 A  
HETATM   34  C   UNL     1      -5.392  20.489  64.846  1.00  0.00    -0.207 A  
HETATM   35  C   UNL     1      -6.120  19.311  64.516  1.00  0.00    -0.216 A  
HETATM   36  O   UNL     1      -5.895  18.696  63.325  1.00  0.00    -0.049 OA 
HETATM   37  C   UNL     1      -6.974  18.761  65.470  1.00  0.00    -0.173 A  
HETATM   38  H   UNL     1      -6.381  17.910  63.104  1.00  0.00     0.000 HD 
HETATM   39  C   UNL     1      -7.060  19.294  66.763  1.00  0.00    -0.218 A  
HETATM   40  C   UNL     1      -7.806  18.368  67.685  1.00  0.00    -0.240 C  
HETATM   41  C   UNL     1      -7.654  17.090  66.734  1.00  0.00    -0.238 C  
HETATM   42  C   UNL     1      -9.229  18.946  68.632  1.00  0.00    -0.399 C  
HETATM   43  O   UNL     1      -7.661  17.563  65.360  1.00  0.00    -0.128 OA 
HETATM   44  C   UNL     1      -8.878  19.465  70.318  1.00  0.00     1.539 C  
HETATM   45  N   UNL     1      -7.525  20.016  70.570  1.00  0.00     0.585 NA 
BRANCH  45  46
HETATM   46  C   UNL     1      -6.642  19.487  71.594  1.00  0.00     0.889 C  
BRANCH  46  47
HETATM   47  C   UNL     1      -5.352  20.222  71.752  1.00  0.00    -0.404 C  
HETATM   48  C   UNL     1      -5.241  21.364  72.439  1.00  0.00     1.004 C  
ENDBRANCH  46  47
ENDBRANCH  45  46
ENDBRANCH  23  24
ENDBRANCH  22  23
ENDBRANCH  21  22
ENDBRANCH  20  21
ENDBRANCH  19  20
ENDBRANCH  18  19
ENDBRANCH  17  18
ENDBRANCH  16  17
ENDBRANCH  15  16
ENDBRANCH  14  15
ENDBRANCH  13  14
ENDBRANCH  12  13
ENDBRANCH  11  12
ENDBRANCH  10  11
ENDBRANCH   9  10
ENDBRANCH   8   9
ENDBRANCH   7   8
ENDBRANCH   6   7
ENDBRANCH   5   6
ENDBRANCH   4   5
ENDBRANCH   3   4
ENDBRANCH   2   3
TORSDOF 24
ENDMDL
MODEL      198
REMARK 921   NORMALIZED FREE ENERGY PREDICTED BY IDOCK:    2.85 KCAL/MOL
REMARK 922        TOTAL FREE ENERGY PREDICTED BY IDOCK:    4.55 KCAL/MOL
REMARK 923 INTER-LIGAND FREE ENERGY PREDICTED BY IDOCK:   -1.84 KCAL/MOL
REMARK 924 INTRA-LIGAND FREE ENERGY PREDICTED BY IDOCK:    6.39 KCAL/MOL
REMARK 927      BINDING AFFINITY PREDICTED BY RF-SCORE:    0.00 PKD
ROOT
HETATM    1  C   UNL     1     -12.756   6.550  69.673  1.00  0.00     2.675 C  
HETATM    2  O   UNL     1     -11.811   6.963  68.696  1.00  0.00     0.471 OA 
ENDROOT
BRANCH   2   3
HETATM    3  C   UNL     1     -11.068   8.097  69.141  1.00  0.00     0.207 C  
BRANCH   3   4
HETATM    4  C   UNL     1     -10.316   7.738  70.414  1.00  0.00    -0.212 C  
BRANCH   4   5
HETATM    5  O   UNL     1     -11.231   7.168  71.349  1.00  0.00    -0.243 OA 
BRANCH   5   6
HETATM    6  C   UNL     1     -11.820   8.177  72.165  1.00  0.00    -0.359 C  
BRANCH   6   7
HETATM    7  C   UNL     1     -13.034   8.756  71.458  1.00  0.00    -0.319 C  
BRANCH   7   8
HETATM    8  O   UNL     1     -13.461   9.914  72.172  1.00  0.00    -0.429 OA 
BRANCH   8   9
HETATM    9  C   UNL     1     -13.489  11.061  71.331  1.00  0.00     0.105 C  
BRANCH   9  10
HETATM   10  C   UNL     1     -12.943  12.249  72.102  1.00  0.00    -0.186 C  
BRANCH  10  11
HETATM   11  O   UNL     1     -12.272  13.109  71.190  1.00  0.00    -0.284 OA 
BRANCH  11  12
HETATM   12  C   UNL     1     -12.034  12.459  69.947  1.00  0.00    -0.299 C  
BRANCH  12  13
HETATM   13  C   UNL     1     -12.863  13.146  68.875  1.00  0.00     1.349 C  
BRANCH  13  14
HETATM   14  O   UNL     1     -12.125  13.186  67.662  1.00  0.00    -0.331 OA 
BRANCH  14  15
HETATM   15  C   UNL     1     -11.756  14.523  67.350  1.00  0.00    -0.400 C  
BRANCH  15  16
HETATM   16  C   UNL     1     -11.830  14.750  65.850  1.00  0.00    -0.204 C  
BRANCH  16  17
HETATM   17  O   UNL     1     -10.970  15.839  65.539  1.00  0.00    -0.322 OA 
BRANCH  17  18
HETATM   18  C   UNL     1     -10.912  16.798  66.582  1.00  0.00     0.133 C  
BRANCH  18  19
HETATM   19  C   UNL     1     -10.001  17.922  66.125  1.00  0.00    -0.283 C  
BRANCH  19  20
HETATM   20  O   UNL     1      -8.711  17.404  65.827  1.00  0.00    -0.522 OA 
BRANCH  20  21
HETATM   21  C   UNL     1      -8.443  16.200  66.544  1.00  0.00    -0.311 C  
BRANCH  21  22
HETATM   22  C   UNL     1      -8.199  16.489  68.029  1.00  0.00    -0.172 C  
BRANCH  22  23
HETATM   23  O   UNL     1      -7.333  15.551  68.718  1.00  0.00    -0.126 OA 
BRANCH  23  24
HETATM   24  C   UNL     1      -6.775  14.513  67.875  1.00  0.00    -0.164 C  
HETATM   25  C   UNL     1      -5.836  13.648  68.667  1.00  0.00    -0.086 C  
HETATM   26  C   UNL     1      -6.531  12.338  69.359  1.00  0.00    -0.105 C  
HETATM   27  C   UNL     1      -7.511  11.364  68.462  1.00  0.00    -0.113 C  
HETATM   28  C   UNL     1      -7.364   9.828  67.829  1.00  0.00    -0.089 C  
HETATM   29  O   UNL     1      -8.795  11.490  69.090  1.00  0.00    -0.376 OA 
HETATM   30  C   UNL     1      -8.573   9.217  67.115  1.00  0.00    -0.122 C  
HETATM   31  H   UNL     1      -9.360  10.928  68.572  1.00  0.00     0.000 HD 
HETATM   32  C   UNL     1      -9.001  10.288  66.142  1.00  0.00    -0.174 A  
HETATM   33  C   UNL     1     -10.109  10.139  65.331  1.00  0.00    -0.342 A  
HETATM   34  C   UNL     1     -10.686  11.232  64.700  1.00  0.00    -0.371 A  
HETATM   35  C   UNL     1     -10.159  12.539  64.901  1.00  0.00    -0.226 A  
HETATM   36  O   UNL     1     -10.871  13.620  64.482  1.00  0.00    -0.390 OA 
HETATM   37  C   UNL     1      -8.972  12.682  65.616  1.00  0.00     0.531 A  
HETATM   38  H   UNL     1     -10.519  14.493  64.616  1.00  0.00     0.000 HD 
HETATM   39  C   UNL     1      -8.341  11.578  66.206  1.00  0.00    -0.076 A  
HETATM   40  C   UNL     1      -7.261  12.014  67.159  1.00  0.00    -0.131 C  
HETATM   41  C   UNL     1      -7.796  13.517  67.281  1.00  0.00    -0.091 C  
HETATM   42  C   UNL     1      -5.574  11.393  66.999  1.00  0.00    -0.101 C  
HETATM   43  O   UNL     1      -8.387  13.877  66.003  1.00  0.00     0.931 OA 
HETATM   44  C   UNL     1      -5.169   9.980  68.037  1.00  0.00    -0.035 C  
HETATM   45  N   UNL     1      -6.285   9.065  68.371  1.00  0.00    -0.053 NA 
BRANCH  45  46
HETATM   46  C   UNL     1      -6.635   8.721  69.738  1.00  0.00    -0.041 C  
BRANCH  46  47
HETATM   47  C   UNL     1      -6.794   7.259  69.997  1.00  0.00    -0.055 C  
HETATM   48  C   UNL     1      -7.565   6.465  69.248  1.00  0.00    -0.099 C  
ENDBRANCH  46  47
ENDBRANCH  45  46
ENDBRANCH  23  24
ENDBRANCH  22  23
ENDBRANCH  21  22
ENDBRANCH  20  21
ENDBRANCH  19  20
ENDBRANCH  18  19
ENDBRANCH  17  18
ENDBRANCH  16  17
ENDBRANCH  15  16
ENDBRANCH  14  15
ENDBRANCH  13  14
ENDBRANCH  12  13
ENDBRANCH  11  12
ENDBRANCH  10  11
ENDBRANCH   9  10
ENDBRANCH   8   9
ENDBRANCH   7   8
ENDBRANCH   6   7
ENDBRANCH   5   6
ENDBRANCH   4   5
ENDBRANCH   3   4
ENDBRANCH   2   3
TORSDOF 24
ENDMDL
MODEL      199
REMARK 921   NORMALIZED FREE ENERGY PREDICTED BY IDOCK:    3.03 KCAL/MOL
REMARK 922        TOTAL FREE ENERGY PREDICTED BY IDOCK:    4.98 KCAL/MOL
REMARK 923 INTER-LIGAND FREE ENERGY PREDICTED BY IDOCK:   -5.94 KCAL/MOL
REMARK 924 INTRA-LIGAND FREE ENERGY PREDICTED BY IDOCK:   10.92 KCAL/MOL
REMARK 927      BINDING AFFINITY PREDICTED BY RF-SCORE:    0.00 PKD
ROOT
HETATM    1  C   UNL     1      -7.636   8.539  74.517  1.00  0.00    -0.171 C  
HETATM    2  O   UNL     1      -8.686   7.616  74.262  1.00  0.00    -0.235 OA 
ENDROOT
BRANCH   2   3
HETATM    3  C   UNL     1      -9.611   8.134  73.308  1.00  0.00    -0.191 C  
BRANCH   3   4
HETATM    4  C   UNL     1      -9.234   7.637  71.921  1.00  0.00    -0.134 C  
BRANCH   4   5
HETATM    5  O   UNL     1      -9.018   6.228  71.974  1.00  0.00    -0.142 OA 
BRANCH   5   6
HETATM    6  C   UNL     1      -9.869   5.618  72.940  1.00  0.00    -0.166 C  
BRANCH   6   7
HETATM    7  C   UNL     1     -10.132   4.174  72.545  1.00  0.00    -0.170 C  
BRANCH   7   8
HETATM    8  O   UNL     1      -9.695   3.989  71.201  1.00  0.00    -0.170 OA 
BRANCH   8   9
HETATM    9  C   UNL     1      -9.005   5.135  70.718  1.00  0.00    -0.134 C  
BRANCH   9  10
HETATM   10  C   UNL     1      -9.461   5.421  69.298  1.00  0.00    -0.133 C  
BRANCH  10  11
HETATM   11  O   UNL     1     -10.688   6.137  69.354  1.00  0.00    -0.248 OA 
BRANCH  11  12
HETATM   12  C   UNL     1     -11.330   6.162  68.084  1.00  0.00     0.186 C  
BRANCH  12  13
HETATM   13  C   UNL     1     -10.334   6.653  67.048  1.00  0.00    -0.262 C  
BRANCH  13  14
HETATM   14  O   UNL     1      -9.555   5.557  66.587  1.00  0.00    -0.137 OA 
BRANCH  14  15
HETATM   15  C   UNL     1      -8.378   6.024  65.940  1.00  0.00    -0.138 C  
BRANCH  15  16
HETATM   16  C   UNL     1      -7.623   6.976  66.851  1.00  0.00    -0.094 C  
BRANCH  16  17
HETATM   17  O   UNL     1      -7.424   8.187  66.133  1.00  0.00    -0.076 OA 
BRANCH  17  18
HETATM   18  C   UNL     1      -8.646   8.804  65.762  1.00  0.00    -0.164 C  
BRANCH  18  19
HETATM   19  C   UNL     1      -8.321  10.181  65.215  1.00  0.00    -0.159 C  
BRANCH  19  20
HETATM   20  O   UNL     1      -7.872  11.023  66.268  1.00  0.00    -0.158 OA 
BRANCH  20  21
HETATM   21  C   UNL     1      -8.957  11.557  67.023  1.00  0.00    -0.174 C  
BRANCH  21  22
HETATM   22  C   UNL     1      -9.416  10.566  68.099  1.00  0.00    -0.151 C  
BRANCH  22  23
HETATM   23  O   UNL     1     -10.844  10.315  68.154  1.00  0.00    -0.227 OA 
BRANCH  23  24
HETATM   24  C   UNL     1     -11.663  11.504  68.261  1.00  0.00    -0.301 C  
HETATM   25  C   UNL     1     -11.153  12.390  69.363  1.00  0.00    -0.149 C  
HETATM   26  C   UNL     1     -10.060  13.512  68.889  1.00  0.00    -0.029 C  
HETATM   27  C   UNL     1     -10.367  14.445  67.566  1.00  0.00    -0.251 C  
HETATM   28  C   UNL     1     -10.766  16.048  67.338  1.00  0.00    -0.306 C  
HETATM   29  O   UNL     1      -9.335  14.082  66.638  1.00  0.00    -0.272 OA 
HETATM   30  C   UNL     1     -10.876  16.573  65.904  1.00  0.00    -0.096 C  
HETATM   31  H   UNL     1      -9.513  14.620  65.875  1.00  0.00     0.000 HD 
HETATM   32  C   UNL     1     -11.773  15.572  65.218  1.00  0.00     0.117 A  
HETATM   33  C   UNL     1     -12.082  15.665  63.875  1.00  0.00     0.276 A  
HETATM   34  C   UNL     1     -12.614  14.584  63.186  1.00  0.00     1.516 A  
HETATM   35  C   UNL     1     -12.827  13.343  63.850  1.00  0.00     0.273 A  
HETATM   36  O   UNL     1     -13.112  12.232  63.118  1.00  0.00    -0.598 OA 
HETATM   37  C   UNL     1     -12.634  13.277  65.228  1.00  0.00    -0.470 A  
HETATM   38  H   UNL     1     -13.254  11.403  63.561  1.00  0.00     0.000 HD 
HETATM   39  C   UNL     1     -12.158  14.379  65.950  1.00  0.00    -0.358 A  
HETATM   40  C   UNL     1     -11.754  13.984  67.344  1.00  0.00    -0.421 C  
HETATM   41  C   UNL     1     -11.675  12.419  67.016  1.00  0.00    -0.353 C  
HETATM   42  C   UNL     1     -12.430  14.834  68.785  1.00  0.00     0.122 C  
HETATM   43  O   UNL     1     -12.681  12.132  66.007  1.00  0.00     0.143 OA 
HETATM   44  C   UNL     1     -11.413  16.161  69.448  1.00  0.00    -0.296 C  
HETATM   45  N   UNL     1     -10.552  16.880  68.479  1.00  0.00    -0.348 NA 
BRANCH  45  46
HETATM   46  C   UNL     1      -9.117  17.019  68.659  1.00  0.00    -0.271 C  
BRANCH  46  47
HETATM   47  C   UNL     1      -8.295  15.979  67.973  1.00  0.00    -0.162 C  
HETATM   48  C   UNL     1      -7.438  16.259  66.985  1.00  0.00    -0.257 C  
ENDBRANCH  46  47
ENDBRANCH  45  46
ENDBRANCH  23  24
ENDBRANCH  22  23
ENDBRANCH  21  22
ENDBRANCH  20  21
ENDBRANCH  19  20
ENDBRANCH  18  19
ENDBRANCH  17  18
ENDBRANCH  16  17
ENDBRANCH  15  16
ENDBRANCH  14  15
ENDBRANCH  13  14
ENDBRANCH  12  13
ENDBRANCH  11  12
ENDBRANCH  10  11
ENDBRANCH   9  10
ENDBRANCH   8   9
ENDBRANCH   7   8
ENDBRANCH   6   7
ENDBRANCH   5   6
ENDBRANCH   4   5
ENDBRANCH   3   4
ENDBRANCH   2   3
TORSDOF 24
ENDMDL
MODEL      200
REMARK 921   NORMALIZED FREE ENERGY PREDICTED BY IDOCK:    3.32 KCAL/MOL
REMARK 922        TOTAL FREE ENERGY PREDICTED BY IDOCK:    5.69 KCAL/MOL
REMARK 923 INTER-LIGAND FREE ENERGY PREDICTED BY IDOCK:   -3.31 KCAL/MOL
REMARK 924 INTRA-LIGAND FREE ENERGY PREDICTED BY IDOCK:    9.00 KCAL/MOL
REMARK 927      BINDING AFFINITY PREDICTED BY RF-SCORE:    0.00 PKD
ROOT
HETATM    1  C   UNL     1      -7.850   6.012  72.592  1.00  0.00    -0.104 C  
HETATM    2  O   UNL     1      -9.034   6.279  71.853  1.00  0.00    -0.140 OA 
ENDROOT
BRANCH   2   3
HETATM    3  C   UNL     1      -9.983   7.001  72.636  1.00  0.00    -0.173 C  
BRANCH   3   4
HETATM    4  C   UNL     1     -11.281   7.138  71.854  1.00  0.00    -0.249 C  
BRANCH   4   5
HETATM    5  O   UNL     1     -11.459   5.977  71.043  1.00  0.00    -0.280 OA 
BRANCH   5   6
HETATM    6  C   UNL     1     -11.356   4.789  71.824  1.00  0.00     0.682 C  
BRANCH   6   7
HETATM    7  C   UNL     1     -10.055   4.077  71.493  1.00  0.00    -0.096 C  
BRANCH   7   8
HETATM    8  O   UNL     1     -10.237   3.345  70.283  1.00  0.00     0.329 OA 
BRANCH   8   9
HETATM    9  C   UNL     1     -10.243   4.207  69.152  1.00  0.00     0.474 C  
BRANCH   9  10
HETATM   10  C   UNL     1      -8.809   4.554  68.791  1.00  0.00    -0.101 C  
BRANCH  10  11
HETATM   11  O   UNL     1      -8.450   5.750  69.470  1.00  0.00    -0.110 OA 
BRANCH  11  12
HETATM   12  C   UNL     1      -7.625   6.577  68.659  1.00  0.00    -0.097 C  
BRANCH  12  13
HETATM   13  C   UNL     1      -6.954   5.709  67.608  1.00  0.00    -0.066 C  
BRANCH  13  14
HETATM   14  O   UNL     1      -7.946   4.992  66.886  1.00  0.00    -0.102 OA 
BRANCH  14  15
HETATM   15  C   UNL     1      -9.076   5.821  66.641  1.00  0.00    -0.132 C  
BRANCH  15  16
HETATM   16  C   UNL     1      -8.840   6.674  65.406  1.00  0.00     0.085 C  
BRANCH  16  17
HETATM   17  O   UNL     1      -7.476   7.075  65.418  1.00  0.00    -0.079 OA 
BRANCH  17  18
HETATM   18  C   UNL     1      -7.243   8.227  64.625  1.00  0.00    -0.083 C  
BRANCH  18  19
HETATM   19  C   UNL     1      -5.930   8.026  63.893  1.00  0.00    -0.058 C  
BRANCH  19  20
HETATM   20  O   UNL     1      -5.211   9.251  63.851  1.00  0.00    -0.059 OA 
BRANCH  20  21
HETATM   21  C   UNL     1      -6.028  10.361  64.218  1.00  0.00    -0.101 C  
BRANCH  21  22
HETATM   22  C   UNL     1      -6.759  10.090  65.537  1.00  0.00    -0.105 C  
BRANCH  22  23
HETATM   23  O   UNL     1      -5.910   9.876  66.694  1.00  0.00    -0.052 OA 
BRANCH  23  24
HETATM   24  C   UNL     1      -6.207  10.728  67.827  1.00  0.00    -0.047 C  
HETATM   25  C   UNL     1      -5.462  12.028  67.712  1.00  0.00    -0.069 C  
HETATM   26  C   UNL     1      -6.280  13.220  66.945  1.00  0.00     1.089 C  
HETATM   27  C   UNL     1      -7.839  13.544  67.368  1.00  0.00    -0.147 C  
HETATM   28  C   UNL     1      -8.589  14.789  68.185  1.00  0.00    -0.159 C  
HETATM   29  O   UNL     1      -8.590  13.241  66.184  1.00  0.00    -0.249 OA 
HETATM   30  C   UNL     1     -10.116  14.773  68.292  1.00  0.00    -0.221 C  
HETATM   31  H   UNL     1      -9.490  13.429  66.429  1.00  0.00     0.000 HD 
HETATM   32  C   UNL     1     -10.432  13.383  68.786  1.00  0.00    -0.203 A  
HETATM   33  C   UNL     1     -11.730  12.946  68.966  1.00  0.00    -0.375 A  
HETATM   34  C   UNL     1     -12.021  11.595  69.089  1.00  0.00    -0.378 A  
HETATM   35  C   UNL     1     -10.982  10.625  69.003  1.00  0.00    -0.248 A  
HETATM   36  O   UNL     1     -11.303   9.310  68.879  1.00  0.00    -0.439 OA 
HETATM   37  C   UNL     1      -9.661  11.061  68.945  1.00  0.00    -0.163 A  
HETATM   38  H   UNL     1     -10.610   8.662  68.821  1.00  0.00     0.000 HD 
HETATM   39  C   UNL     1      -9.346  12.426  68.885  1.00  0.00     0.250 A  
HETATM   40  C   UNL     1      -7.899  12.635  68.532  1.00  0.00    -0.104 C  
HETATM   41  C   UNL     1      -7.686  11.151  67.972  1.00  0.00    -0.107 C  
HETATM   42  C   UNL     1      -6.825  13.647  69.571  1.00  0.00     0.027 C  
HETATM   43  O   UNL     1      -8.544  10.266  68.742  1.00  0.00    -0.123 OA 
HETATM   44  C   UNL     1      -6.639  15.360  69.055  1.00  0.00    -0.123 C  
HETATM   45  N   UNL     1      -7.790  15.963  68.341  1.00  0.00    -0.141 NA 
BRANCH  45  46
HETATM   46  C   UNL     1      -7.663  16.584  67.034  1.00  0.00    -0.209 C  
BRANCH  46  47
HETATM   47  C   UNL     1      -8.577  17.740  66.797  1.00  0.00    -0.272 C  
HETATM   48  C   UNL     1      -8.140  18.987  66.594  1.00  0.00    -0.285 C  
ENDBRANCH  46  47
ENDBRANCH  45  46
ENDBRANCH  23  24
ENDBRANCH  22  23
ENDBRANCH  21  22
ENDBRANCH  20  21
ENDBRANCH  19  20
ENDBRANCH  18  19
ENDBRANCH  17  18
ENDBRANCH  16  17
ENDBRANCH  15  16
ENDBRANCH  14  15
ENDBRANCH  13  14
ENDBRANCH  12  13
ENDBRANCH  11  12
ENDBRANCH  10  11
ENDBRANCH   9  10
ENDBRANCH   8   9
ENDBRANCH   7   8
ENDBRANCH   6   7
ENDBRANCH   5   6
ENDBRANCH   4   5
ENDBRANCH   3   4
ENDBRANCH   2   3
TORSDOF 24
ENDMDL
MODEL      201
REMARK 921   NORMALIZED FREE ENERGY PREDICTED BY IDOCK:    3.72 KCAL/MOL
REMARK 922        TOTAL FREE ENERGY PREDICTED BY IDOCK:    6.66 KCAL/MOL
REMARK 923 INTER-LIGAND FREE ENERGY PREDICTED BY IDOCK:   -5.18 KCAL/MOL
REMARK 924 INTRA-LIGAND FREE ENERGY PREDICTED BY IDOCK:   11.84 KCAL/MOL
REMARK 927      BINDING AFFINITY PREDICTED BY RF-SCORE:    0.00 PKD
ROOT
HETATM    1  C   UNL     1      -7.840   5.585  70.462  1.00  0.00    -0.098 C  
HETATM    2  O   UNL     1      -8.150   6.850  71.031  1.00  0.00    -0.104 OA 
ENDROOT
BRANCH   2   3
HETATM    3  C   UNL     1      -8.534   6.723  72.399  1.00  0.00    -0.119 C  
BRANCH   3   4
HETATM    4  C   UNL     1      -9.584   5.631  72.527  1.00  0.00    -0.151 C  
BRANCH   4   5
HETATM    5  O   UNL     1     -10.826   6.222  72.910  1.00  0.00    -0.235 OA 
BRANCH   5   6
HETATM    6  C   UNL     1     -11.278   7.144  71.922  1.00  0.00    -0.249 C  
BRANCH   6   7
HETATM    7  C   UNL     1     -10.084   7.864  71.317  1.00  0.00    -0.180 C  
BRANCH   7   8
HETATM    8  O   UNL     1      -9.968   7.474  69.951  1.00  0.00    -0.185 OA 
BRANCH   8   9
HETATM    9  C   UNL     1     -10.660   8.374  69.094  1.00  0.00    -0.163 C  
BRANCH   9  10
HETATM   10  C   UNL     1     -10.551   9.777  69.664  1.00  0.00    -0.239 C  
BRANCH  10  11
HETATM   11  O   UNL     1     -11.823  10.157  70.173  1.00  0.00    -0.256 OA 
BRANCH  11  12
HETATM   12  C   UNL     1     -12.169  11.476  69.768  1.00  0.00    -0.244 C  
BRANCH  12  13
HETATM   13  C   UNL     1     -11.401  11.809  68.500  1.00  0.00    -0.273 C  
BRANCH  13  14
HETATM   14  O   UNL     1     -11.224  10.627  67.732  1.00  0.00    -0.310 OA 
BRANCH  14  15
HETATM   15  C   UNL     1     -11.371  10.910  66.346  1.00  0.00     0.270 C  
BRANCH  15  16
HETATM   16  C   UNL     1     -10.042  10.731  65.633  1.00  0.00    -0.267 C  
BRANCH  16  17
HETATM   17  O   UNL     1      -9.133  11.679  66.177  1.00  0.00    -0.213 OA 
BRANCH  17  18
HETATM   18  C   UNL     1      -9.553  13.017  65.962  1.00  0.00    -0.165 C  
BRANCH  18  19
HETATM   19  C   UNL     1      -9.438  13.755  67.283  1.00  0.00    -0.236 C  
BRANCH  19  20
HETATM   20  O   UNL     1      -8.170  13.495  67.869  1.00  0.00    -0.142 OA 
BRANCH  20  21
HETATM   21  C   UNL     1      -7.098  13.808  66.982  1.00  0.00     0.573 C  
BRANCH  21  22
HETATM   22  C   UNL     1      -5.761  13.842  67.730  1.00  0.00    -0.070 C  
BRANCH  22  23
HETATM   23  O   UNL     1      -5.839  14.157  69.144  1.00  0.00    -0.083 OA 
BRANCH  23  24
HETATM   24  C   UNL     1      -6.298  15.498  69.439  1.00  0.00    -0.138 C  
HETATM   25  C   UNL     1      -5.425  16.511  68.753  1.00  0.00    -0.121 C  
HETATM   26  C   UNL     1      -5.933  16.955  67.263  1.00  0.00    -0.195 C  
HETATM   27  C   UNL     1      -7.509  17.377  67.029  1.00  0.00    -0.198 C  
HETATM   28  C   UNL     1      -8.299  18.817  66.740  1.00  0.00    -0.281 C  
HETATM   29  O   UNL     1      -8.004  16.382  66.122  1.00  0.00    -0.293 OA 
HETATM   30  C   UNL     1      -9.806  18.779  66.473  1.00  0.00    -0.398 C  
HETATM   31  H   UNL     1      -8.913  16.625  65.987  1.00  0.00     0.000 HD 
HETATM   32  C   UNL     1     -10.355  17.946  67.605  1.00  0.00    -0.387 A  
HETATM   33  C   UNL     1     -11.697  17.630  67.698  1.00  0.00     1.420 A  
HETATM   34  C   UNL     1     -12.136  16.608  68.527  1.00  0.00     0.930 A  
HETATM   35  C   UNL     1     -11.202  15.843  69.282  1.00  0.00    -0.335 A  
HETATM   36  O   UNL     1     -11.612  14.699  69.893  1.00  0.00    -0.258 OA 
HETATM   37  C   UNL     1      -9.865  16.233  69.289  1.00  0.00    -0.252 A  
HETATM   38  H   UNL     1     -10.989  14.188  70.397  1.00  0.00     0.000 HD 
HETATM   39  C   UNL     1      -9.415  17.305  68.506  1.00  0.00    -0.285 A  
HETATM   40  C   UNL     1      -7.913  17.345  68.450  1.00  0.00    -0.259 C  
HETATM   41  C   UNL     1      -7.724  15.837  68.951  1.00  0.00    -0.186 C  
HETATM   42  C   UNL     1      -7.005  18.839  68.900  1.00  0.00    -0.335 C  
HETATM   43  O   UNL     1      -8.813  15.542  69.868  1.00  0.00    -0.157 OA 
HETATM   44  C   UNL     1      -6.545  19.908  67.528  1.00  0.00    -0.216 C  
HETATM   45  N   UNL     1      -7.445  19.894  66.350  1.00  0.00    -0.270 NA 
BRANCH  45  46
HETATM   46  C   UNL     1      -6.972  19.614  65.006  1.00  0.00     0.042 C  
BRANCH  46  47
HETATM   47  C   UNL     1      -5.572  19.102  64.927  1.00  0.00    -0.257 C  
HETATM   48  C   UNL     1      -5.264  17.882  64.474  1.00  0.00     0.386 C  
ENDBRANCH  46  47
ENDBRANCH  45  46
ENDBRANCH  23  24
ENDBRANCH  22  23
ENDBRANCH  21  22
ENDBRANCH  20  21
ENDBRANCH  19  20
ENDBRANCH  18  19
ENDBRANCH  17  18
ENDBRANCH  16  17
ENDBRANCH  15  16
ENDBRANCH  14  15
ENDBRANCH  13  14
ENDBRANCH  12  13
ENDBRANCH  11  12
ENDBRANCH  10  11
ENDBRANCH   9  10
ENDBRANCH   8   9
ENDBRANCH   7   8
ENDBRANCH   6   7
ENDBRANCH   5   6
ENDBRANCH   4   5
ENDBRANCH   3   4
ENDBRANCH   2   3
TORSDOF 24
ENDMDL
MODEL      202
REMARK 921   NORMALIZED FREE ENERGY PREDICTED BY IDOCK:    3.76 KCAL/MOL
REMARK 922        TOTAL FREE ENERGY PREDICTED BY IDOCK:    6.75 KCAL/MOL
REMARK 923 INTER-LIGAND FREE ENERGY PREDICTED BY IDOCK:    0.68 KCAL/MOL
REMARK 924 INTRA-LIGAND FREE ENERGY PREDICTED BY IDOCK:    6.07 KCAL/MOL
REMARK 927      BINDING AFFINITY PREDICTED BY RF-SCORE:    0.00 PKD
ROOT
HETATM    1  C   UNL     1      -9.160  13.437  66.213  1.00  0.00     0.036 C  
HETATM    2  O   UNL     1     -10.075  12.380  65.961  1.00  0.00    -0.241 OA 
ENDROOT
BRANCH   2   3
HETATM    3  C   UNL     1     -10.415  12.307  64.578  1.00  0.00    -0.309 C  
BRANCH   3   4
HETATM    4  C   UNL     1     -11.087  10.971  64.295  1.00  0.00     0.054 C  
BRANCH   4   5
HETATM    5  O   UNL     1     -10.319  10.261  63.324  1.00  0.00     0.190 OA 
BRANCH   5   6
HETATM    6  C   UNL     1      -9.027   9.939  63.832  1.00  0.00    -0.248 C  
BRANCH   6   7
HETATM    7  C   UNL     1      -8.125   9.510  62.686  1.00  0.00    -0.131 C  
BRANCH   7   8
HETATM    8  O   UNL     1      -7.580   8.230  62.998  1.00  0.00    -0.109 OA 
BRANCH   8   9
HETATM    9  C   UNL     1      -6.909   8.244  64.252  1.00  0.00    -0.066 C  
BRANCH   9  10
HETATM   10  C   UNL     1      -7.067   6.884  64.909  1.00  0.00    -0.060 C  
BRANCH  10  11
HETATM   11  O   UNL     1      -7.714   7.062  66.162  1.00  0.00    -0.089 OA 
BRANCH  11  12
HETATM   12  C   UNL     1      -8.916   6.304  66.236  1.00  0.00    -0.155 C  
BRANCH  12  13
HETATM   13  C   UNL     1     -10.095   7.251  66.087  1.00  0.00     0.343 C  
BRANCH  13  14
HETATM   14  O   UNL     1     -10.071   8.203  67.142  1.00  0.00    -0.209 OA 
BRANCH  14  15
HETATM   15  C   UNL     1      -8.954   7.973  67.991  1.00  0.00    -0.130 C  
BRANCH  15  16
HETATM   16  C   UNL     1      -8.818   9.105  68.995  1.00  0.00    -0.139 C  
BRANCH  16  17
HETATM   17  O   UNL     1      -8.471  10.278  68.271  1.00  0.00    -0.116 OA 
BRANCH  17  18
HETATM   18  C   UNL     1      -7.156  10.219  67.743  1.00  0.00    -0.085 C  
BRANCH  18  19
HETATM   19  C   UNL     1      -6.244   9.688  68.833  1.00  0.00    -0.042 C  
BRANCH  19  20
HETATM   20  O   UNL     1      -6.396  10.469  70.010  1.00  0.00    -0.084 OA 
BRANCH  20  21
HETATM   21  C   UNL     1      -6.840  11.793  69.717  1.00  0.00     0.090 C  
BRANCH  21  22
HETATM   22  C   UNL     1      -5.757  12.580  68.971  1.00  0.00    -0.067 C  
BRANCH  22  23
HETATM   23  O   UNL     1      -5.765  14.015  69.182  1.00  0.00    -0.082 OA 
BRANCH  23  24
HETATM   24  C   UNL     1      -6.646  14.750  68.299  1.00  0.00    -0.116 C  
HETATM   25  C   UNL     1      -7.922  13.986  68.080  1.00  0.00    -0.152 C  
HETATM   26  C   UNL     1      -9.122  14.343  69.134  1.00  0.00     0.088 C  
HETATM   27  C   UNL     1      -9.500  15.917  69.440  1.00  0.00    -0.248 C  
HETATM   28  C   UNL     1     -10.781  16.906  69.040  1.00  0.00    -0.308 C  
HETATM   29  O   UNL     1      -9.196  16.083  70.832  1.00  0.00     1.932 OA 
HETATM   30  C   UNL     1     -10.812  18.325  69.615  1.00  0.00     1.429 C  
HETATM   31  H   UNL     1      -9.414  16.991  71.008  1.00  0.00     0.000 HD 
HETATM   32  C   UNL     1      -9.441  18.873  69.304  1.00  0.00    -0.074 A  
HETATM   33  C   UNL     1      -9.045  20.133  69.710  1.00  0.00     0.836 A  
HETATM   34  C   UNL     1      -7.706  20.495  69.721  1.00  0.00     1.152 A  
HETATM   35  C   UNL     1      -6.705  19.558  69.338  1.00  0.00    -0.337 A  
HETATM   36  O   UNL     1      -5.397  19.836  69.585  1.00  0.00    -0.195 OA 
HETATM   37  C   UNL     1      -7.101  18.330  68.812  1.00  0.00    -0.280 A  
HETATM   38  H   UNL     1      -4.728  19.211  69.329  1.00  0.00     0.000 HD 
HETATM   39  C   UNL     1      -8.454  17.974  68.734  1.00  0.00    -0.217 A  
HETATM   40  C   UNL     1      -8.615  16.513  68.416  1.00  0.00    -0.213 C  
HETATM   41  C   UNL     1      -7.116  16.127  68.819  1.00  0.00    -0.155 C  
HETATM   42  C   UNL     1      -9.615  15.970  67.015  1.00  0.00    -0.229 C  
HETATM   43  O   UNL     1      -6.270  17.266  68.501  1.00  0.00    -0.153 OA 
HETATM   44  C   UNL     1     -11.312  15.517  67.406  1.00  0.00    -0.203 C  
HETATM   45  N   UNL     1     -11.934  16.216  68.555  1.00  0.00    -0.063 NA 
BRANCH  45  46
HETATM   46  C   UNL     1     -12.526  15.508  69.676  1.00  0.00    -0.104 C  
BRANCH  46  47
HETATM   47  C   UNL     1     -11.780  14.292  70.114  1.00  0.00    -0.357 C  
HETATM   48  C   UNL     1     -11.909  13.754  71.332  1.00  0.00     0.291 C  
ENDBRANCH  46  47
ENDBRANCH  45  46
ENDBRANCH  23  24
ENDBRANCH  22  23
ENDBRANCH  21  22
ENDBRANCH  20  21
ENDBRANCH  19  20
ENDBRANCH  18  19
ENDBRANCH  17  18
ENDBRANCH  16  17
ENDBRANCH  15  16
ENDBRANCH  14  15
ENDBRANCH  13  14
ENDBRANCH  12  13
ENDBRANCH  11  12
ENDBRANCH  10  11
ENDBRANCH   9  10
ENDBRANCH   8   9
ENDBRANCH   7   8
ENDBRANCH   6   7
ENDBRANCH   5   6
ENDBRANCH   4   5
ENDBRANCH   3   4
ENDBRANCH   2   3
TORSDOF 24
ENDMDL
MODEL      203
REMARK 921   NORMALIZED FREE ENERGY PREDICTED BY IDOCK:    3.86 KCAL/MOL
REMARK 922        TOTAL FREE ENERGY PREDICTED BY IDOCK:    6.99 KCAL/MOL
REMARK 923 INTER-LIGAND FREE ENERGY PREDICTED BY IDOCK:   -0.70 KCAL/MOL
REMARK 924 INTRA-LIGAND FREE ENERGY PREDICTED BY IDOCK:    7.70 KCAL/MOL
REMARK 927      BINDING AFFINITY PREDICTED BY RF-SCORE:    0.00 PKD
ROOT
HETATM    1  C   UNL     1      -6.011   9.629  72.806  1.00  0.00     0.435 C  
HETATM    2  O   UNL     1      -5.491   9.653  71.483  1.00  0.00    -0.067 OA 
ENDROOT
BRANCH   2   3
HETATM    3  C   UNL     1      -6.307  10.442  70.620  1.00  0.00    -0.063 C  
BRANCH   3   4
HETATM    4  C   UNL     1      -5.599  11.756  70.323  1.00  0.00    -0.143 C  
BRANCH   4   5
HETATM    5  O   UNL     1      -5.999  12.218  69.033  1.00  0.00    -0.062 OA 
BRANCH   5   6
HETATM    6  C   UNL     1      -5.645  11.278  68.022  1.00  0.00    -0.042 C  
BRANCH   6   7
HETATM    7  C   UNL     1      -6.549  11.466  66.815  1.00  0.00    -0.136 C  
BRANCH   7   8
HETATM    8  O   UNL     1      -6.727  12.865  66.601  1.00  0.00     0.314 OA 
BRANCH   8   9
HETATM    9  C   UNL     1      -6.880  13.563  67.831  1.00  0.00    -0.151 C  
BRANCH   9  10
HETATM   10  C   UNL     1      -8.344  13.925  68.011  1.00  0.00    -0.166 C  
BRANCH  10  11
HETATM   11  O   UNL     1      -8.985  12.871  68.718  1.00  0.00    -0.000 OA 
BRANCH  11  12
HETATM   12  C   UNL     1     -10.392  13.073  68.782  1.00  0.00    -0.129 C  
BRANCH  12  13
HETATM   13  C   UNL     1     -10.935  13.142  67.365  1.00  0.00    -0.264 C  
BRANCH  13  14
HETATM   14  O   UNL     1     -10.416  12.057  66.608  1.00  0.00    -0.209 OA 
BRANCH  14  15
HETATM   15  C   UNL     1     -11.441  11.111  66.331  1.00  0.00     0.243 C  
BRANCH  15  16
HETATM   16  C   UNL     1     -11.314  10.606  64.904  1.00  0.00     1.009 C  
BRANCH  16  17
HETATM   17  O   UNL     1     -10.066  11.063  64.398  1.00  0.00    -0.280 OA 
BRANCH  17  18
HETATM   18  C   UNL     1      -9.102  10.026  64.318  1.00  0.00    -0.255 C  
BRANCH  18  19
HETATM   19  C   UNL     1      -9.771   8.738  64.759  1.00  0.00     1.122 C  
BRANCH  19  20
HETATM   20  O   UNL     1     -10.374   8.921  66.033  1.00  0.00    -0.101 OA 
BRANCH  20  21
HETATM   21  C   UNL     1      -9.425   8.803  67.092  1.00  0.00    -0.162 C  
BRANCH  21  22
HETATM   22  C   UNL     1      -8.390   7.716  66.782  1.00  0.00    -0.125 C  
BRANCH  22  23
HETATM   23  O   UNL     1      -8.372   6.587  67.692  1.00  0.00    -0.120 OA 
BRANCH  23  24
HETATM   24  C   UNL     1      -8.184   6.938  69.085  1.00  0.00    -0.121 C  
HETATM   25  C   UNL     1      -9.061   8.102  69.453  1.00  0.00    -0.148 C  
HETATM   26  C   UNL     1     -10.534   7.691  70.034  1.00  0.00    -0.229 C  
HETATM   27  C   UNL     1     -10.657   6.547  71.214  1.00  0.00    -0.227 C  
HETATM   28  C   UNL     1     -11.024   6.587  72.841  1.00  0.00    -0.250 C  
HETATM   29  O   UNL     1     -11.394   5.485  70.594  1.00  0.00    -0.045 OA 
HETATM   30  C   UNL     1     -11.135   5.258  73.594  1.00  0.00    -0.251 C  
HETATM   31  H   UNL     1     -11.465   4.825  71.275  1.00  0.00     0.000 HD 
HETATM   32  C   UNL     1      -9.869   4.524  73.226  1.00  0.00    -0.167 A  
HETATM   33  C   UNL     1      -9.609   3.242  73.671  1.00  0.00    -0.137 A  
HETATM   34  C   UNL     1      -8.632   2.461  73.072  1.00  0.00    -0.070 A  
HETATM   35  C   UNL     1      -7.893   2.959  71.962  1.00  0.00    -0.054 A  
HETATM   36  O   UNL     1      -7.121   2.108  71.235  1.00  0.00    -0.031 OA 
HETATM   37  C   UNL     1      -8.062   4.290  71.587  1.00  0.00    -0.091 A  
HETATM   38  H   UNL     1      -6.627   2.440  70.494  1.00  0.00     0.000 HD 
HETATM   39  C   UNL     1      -9.000   5.113  72.224  1.00  0.00    -0.137 A  
HETATM   40  C   UNL     1      -9.208   6.393  71.462  1.00  0.00    -0.145 C  
HETATM   41  C   UNL     1      -8.563   5.842  70.105  1.00  0.00    -0.128 C  
HETATM   42  C   UNL     1      -9.019   7.997  72.268  1.00  0.00    -0.230 C  
HETATM   43  O   UNL     1      -7.516   4.901  70.469  1.00  0.00    -0.056 OA 
HETATM   44  C   UNL     1     -10.540   8.743  72.872  1.00  0.00     0.635 C  
HETATM   45  N   UNL     1     -11.614   7.809  73.286  1.00  0.00    -0.125 NA 
BRANCH  45  46
HETATM   46  C   UNL     1     -12.959   7.871  72.741  1.00  0.00     0.402 C  
BRANCH  46  47
HETATM   47  C   UNL     1     -13.167   7.082  71.491  1.00  0.00    -0.382 C  
HETATM   48  C   UNL     1     -14.371   6.884  70.944  1.00  0.00     0.636 C  
ENDBRANCH  46  47
ENDBRANCH  45  46
ENDBRANCH  23  24
ENDBRANCH  22  23
ENDBRANCH  21  22
ENDBRANCH  20  21
ENDBRANCH  19  20
ENDBRANCH  18  19
ENDBRANCH  17  18
ENDBRANCH  16  17
ENDBRANCH  15  16
ENDBRANCH  14  15
ENDBRANCH  13  14
ENDBRANCH  12  13
ENDBRANCH  11  12
ENDBRANCH  10  11
ENDBRANCH   9  10
ENDBRANCH   8   9
ENDBRANCH   7   8
ENDBRANCH   6   7
ENDBRANCH   5   6
ENDBRANCH   4   5
ENDBRANCH   3   4
ENDBRANCH   2   3
TORSDOF 24
ENDMDL
MODEL      204
REMARK 921   NORMALIZED FREE ENERGY PREDICTED BY IDOCK:    4.05 KCAL/MOL
REMARK 922        TOTAL FREE ENERGY PREDICTED BY IDOCK:    7.44 KCAL/MOL
REMARK 923 INTER-LIGAND FREE ENERGY PREDICTED BY IDOCK:   -3.87 KCAL/MOL
REMARK 924 INTRA-LIGAND FREE ENERGY PREDICTED BY IDOCK:   11.31 KCAL/MOL
REMARK 927      BINDING AFFINITY PREDICTED BY RF-SCORE:    0.00 PKD
ROOT
HETATM    1  C   UNL     1      -6.035   9.630  72.787  1.00  0.00     0.435 C  
HETATM    2  O   UNL     1      -5.471   9.686  71.484  1.00  0.00    -0.067 OA 
ENDROOT
BRANCH   2   3
HETATM    3  C   UNL     1      -6.278  10.467  70.603  1.00  0.00    -0.065 C  
BRANCH   3   4
HETATM    4  C   UNL     1      -5.632  11.831  70.406  1.00  0.00    -0.152 C  
BRANCH   4   5
HETATM    5  O   UNL     1      -5.918  12.294  69.087  1.00  0.00    -0.069 OA 
BRANCH   5   6
HETATM    6  C   UNL     1      -5.361  11.421  68.108  1.00  0.00    -0.042 C  
BRANCH   6   7
HETATM    7  C   UNL     1      -6.079  11.621  66.784  1.00  0.00    -0.134 C  
BRANCH   7   8
HETATM    8  O   UNL     1      -6.313  13.016  66.605  1.00  0.00     0.368 OA 
BRANCH   8   9
HETATM    9  C   UNL     1      -6.783  13.620  67.804  1.00  0.00    -0.170 C  
BRANCH   9  10
HETATM   10  C   UNL     1      -8.269  13.899  67.664  1.00  0.00    -0.177 C  
BRANCH  10  11
HETATM   11  O   UNL     1      -8.987  12.758  68.114  1.00  0.00    -0.192 OA 
BRANCH  11  12
HETATM   12  C   UNL     1     -10.368  12.852  67.784  1.00  0.00    -0.222 C  
BRANCH  12  13
HETATM   13  C   UNL     1     -10.496  13.011  66.279  1.00  0.00    -0.276 C  
BRANCH  13  14
HETATM   14  O   UNL     1      -9.614  12.103  65.633  1.00  0.00    -0.234 OA 
BRANCH  14  15
HETATM   15  C   UNL     1     -10.352  11.089  64.961  1.00  0.00    -0.295 C  
BRANCH  15  16
HETATM   16  C   UNL     1      -9.687  10.747  63.639  1.00  0.00    -0.327 C  
BRANCH  16  17
HETATM   17  O   UNL     1      -8.456  11.456  63.584  1.00  0.00     0.302 OA 
BRANCH  17  18
HETATM   18  C   UNL     1      -7.353  10.657  63.975  1.00  0.00     0.238 C  
BRANCH  18  19
HETATM   19  C   UNL     1      -7.881   9.275  64.314  1.00  0.00    -0.125 C  
BRANCH  19  20
HETATM   20  O   UNL     1      -9.045   9.390  65.120  1.00  0.00    -0.210 OA 
BRANCH  20  21
HETATM   21  C   UNL     1      -8.727   9.724  66.470  1.00  0.00    -0.128 C  
BRANCH  21  22
HETATM   22  C   UNL     1      -7.441   9.020  66.920  1.00  0.00    -0.090 C  
BRANCH  22  23
HETATM   23  O   UNL     1      -7.593   8.066  68.003  1.00  0.00    -0.107 OA 
BRANCH  23  24
HETATM   24  C   UNL     1      -8.696   7.142  67.843  1.00  0.00    -0.126 C  
HETATM   25  C   UNL     1      -8.762   6.648  66.425  1.00  0.00    -0.144 C  
HETATM   26  C   UNL     1      -7.921   5.274  66.139  1.00  0.00    -0.104 C  
HETATM   27  C   UNL     1      -8.093   3.986  67.151  1.00  0.00    -0.096 C  
HETATM   28  C   UNL     1      -8.827   2.493  67.023  1.00  0.00    -0.134 C  
HETATM   29  O   UNL     1      -6.790   3.818  67.726  1.00  0.00    -0.049 OA 
HETATM   30  C   UNL     1      -8.678   1.507  68.186  1.00  0.00    -0.108 C  
HETATM   31  H   UNL     1      -6.889   3.075  68.310  1.00  0.00     0.000 HD 
HETATM   32  C   UNL     1      -9.053   2.319  69.401  1.00  0.00    -0.180 A  
HETATM   33  C   UNL     1      -8.997   1.795  70.678  1.00  0.00    -0.134 A  
HETATM   34  C   UNL     1      -9.013   2.621  71.793  1.00  0.00    -0.135 A  
HETATM   35  C   UNL     1      -9.059   4.035  71.639  1.00  0.00    -0.123 A  
HETATM   36  O   UNL     1      -8.827   4.834  72.715  1.00  0.00    -0.117 OA 
HETATM   37  C   UNL     1      -9.240   4.566  70.364  1.00  0.00    -0.128 A  
HETATM   38  H   UNL     1      -8.858   5.778  72.613  1.00  0.00     0.000 HD 
HETATM   39  C   UNL     1      -9.291   3.741  69.232  1.00  0.00    -0.244 A  
HETATM   40  C   UNL     1      -9.191   4.546  67.966  1.00  0.00    -0.166 C  
HETATM   41  C   UNL     1      -8.612   5.851  68.688  1.00  0.00    -0.110 C  
HETATM   42  C   UNL     1     -10.437   4.396  66.668  1.00  0.00     0.141 C  
HETATM   43  O   UNL     1      -9.190   5.907  70.021  1.00  0.00    -0.144 OA 
HETATM   44  C   UNL     1     -10.031   3.258  65.335  1.00  0.00     0.172 C  
HETATM   45  N   UNL     1      -9.163   2.110  65.689  1.00  0.00    -0.070 NA 
BRANCH  45  46
HETATM   46  C   UNL     1      -7.923   1.822  64.990  1.00  0.00    -0.073 C  
BRANCH  46  47
HETATM   47  C   UNL     1      -6.805   2.767  65.279  1.00  0.00    -0.044 C  
HETATM   48  C   UNL     1      -5.552   2.569  64.856  1.00  0.00    -0.009 C  
ENDBRANCH  46  47
ENDBRANCH  45  46
ENDBRANCH  23  24
ENDBRANCH  22  23
ENDBRANCH  21  22
ENDBRANCH  20  21
ENDBRANCH  19  20
ENDBRANCH  18  19
ENDBRANCH  17  18
ENDBRANCH  16  17
ENDBRANCH  15  16
ENDBRANCH  14  15
ENDBRANCH  13  14
ENDBRANCH  12  13
ENDBRANCH  11  12
ENDBRANCH  10  11
ENDBRANCH   9  10
ENDBRANCH   8   9
ENDBRANCH   7   8
ENDBRANCH   6   7
ENDBRANCH   5   6
ENDBRANCH   4   5
ENDBRANCH   3   4
ENDBRANCH   2   3
TORSDOF 24
ENDMDL
MODEL      205
REMARK 921   NORMALIZED FREE ENERGY PREDICTED BY IDOCK:    4.25 KCAL/MOL
REMARK 922        TOTAL FREE ENERGY PREDICTED BY IDOCK:    7.92 KCAL/MOL
REMARK 923 INTER-LIGAND FREE ENERGY PREDICTED BY IDOCK:   -4.98 KCAL/MOL
REMARK 924 INTRA-LIGAND FREE ENERGY PREDICTED BY IDOCK:   12.90 KCAL/MOL
REMARK 927      BINDING AFFINITY PREDICTED BY RF-SCORE:    0.00 PKD
ROOT
HETATM    1  C   UNL     1     -10.869  15.127  64.573  1.00  0.00    -0.121 C  
HETATM    2  O   UNL     1     -11.896  15.338  63.614  1.00  0.00    -0.130 OA 
ENDROOT
BRANCH   2   3
HETATM    3  C   UNL     1     -13.008  14.475  63.848  1.00  0.00     1.088 C  
BRANCH   3   4
HETATM    4  C   UNL     1     -13.308  14.435  65.339  1.00  0.00     0.502 C  
BRANCH   4   5
HETATM    5  O   UNL     1     -12.224  13.797  66.014  1.00  0.00    -0.409 OA 
BRANCH   5   6
HETATM    6  C   UNL     1     -11.146  13.540  65.119  1.00  0.00    -0.316 C  
BRANCH   6   7
HETATM    7  C   UNL     1     -10.534  12.186  65.437  1.00  0.00    -0.270 C  
BRANCH   7   8
HETATM    8  O   UNL     1      -9.928  11.677  64.251  1.00  0.00    -0.252 OA 
BRANCH   8   9
HETATM    9  C   UNL     1     -10.112  10.271  64.138  1.00  0.00    -0.062 C  
BRANCH   9  10
HETATM   10  C   UNL     1      -9.192   9.574  65.125  1.00  0.00    -0.244 C  
BRANCH  10  11
HETATM   11  O   UNL     1      -7.940   9.346  64.491  1.00  0.00    -0.114 OA 
BRANCH  11  12
HETATM   12  C   UNL     1      -6.859   9.557  65.392  1.00  0.00    -0.086 C  
BRANCH  12  13
HETATM   13  C   UNL     1      -5.715  10.202  64.630  1.00  0.00    -0.119 C  
BRANCH  13  14
HETATM   14  O   UNL     1      -5.139   9.249  63.748  1.00  0.00    -0.058 OA 
BRANCH  14  15
HETATM   15  C   UNL     1      -5.970   8.099  63.650  1.00  0.00    -0.067 C  
BRANCH  15  16
HETATM   16  C   UNL     1      -5.782   7.212  64.869  1.00  0.00    -0.033 C  
BRANCH  16  17
HETATM   17  O   UNL     1      -6.176   5.896  64.505  1.00  0.00    -0.028 OA 
BRANCH  17  18
HETATM   18  C   UNL     1      -5.796   4.930  65.472  1.00  0.00    -0.018 C  
BRANCH  18  19
HETATM   19  C   UNL     1      -6.250   3.572  64.971  1.00  0.00    -0.024 C  
BRANCH  19  20
HETATM   20  O   UNL     1      -7.669   3.504  64.984  1.00  0.00    -0.079 OA 
BRANCH  20  21
HETATM   21  C   UNL     1      -8.250   4.634  65.632  1.00  0.00    -0.115 C  
BRANCH  21  22
HETATM   22  C   UNL     1      -8.276   4.440  67.152  1.00  0.00    -0.101 C  
BRANCH  22  23
HETATM   23  O   UNL     1      -9.136   3.376  67.635  1.00  0.00    -0.136 OA 
BRANCH  23  24
HETATM   24  C   UNL     1      -9.845   3.681  68.860  1.00  0.00     0.162 C  
HETATM   25  C   UNL     1      -9.279   2.884  70.002  1.00  0.00    -0.211 C  
HETATM   26  C   UNL     1      -8.079   3.628  70.828  1.00  0.00    -0.064 C  
HETATM   27  C   UNL     1      -8.273   5.188  71.322  1.00  0.00    -0.117 C  
HETATM   28  C   UNL     1      -8.519   5.919  72.801  1.00  0.00    -0.122 C  
HETATM   29  O   UNL     1      -7.260   5.908  70.607  1.00  0.00    -0.077 OA 
HETATM   30  C   UNL     1      -8.552   7.449  72.859  1.00  0.00    -0.160 C  
HETATM   31  H   UNL     1      -7.372   6.808  70.892  1.00  0.00     0.000 HD 
HETATM   32  C   UNL     1      -9.522   7.834  71.769  1.00  0.00    -0.191 A  
HETATM   33  C   UNL     1      -9.794   9.153  71.462  1.00  0.00    -0.335 A  
HETATM   34  C   UNL     1     -10.408   9.498  70.267  1.00  0.00    -0.321 A  
HETATM   35  C   UNL     1     -10.746   8.494  69.316  1.00  0.00    -0.133 A  
HETATM   36  O   UNL     1     -11.117   8.860  68.059  1.00  0.00    -0.488 OA 
HETATM   37  C   UNL     1     -10.589   7.156  69.669  1.00  0.00    -0.234 A  
HETATM   38  H   UNL     1     -11.343   8.190  67.424  1.00  0.00     0.000 HD 
HETATM   39  C   UNL     1     -10.029   6.788  70.900  1.00  0.00    -0.200 A  
HETATM   40  C   UNL     1      -9.691   5.323  70.928  1.00  0.00    -0.244 C  
HETATM   41  C   UNL     1      -9.748   5.146  69.339  1.00  0.00    -0.177 C  
HETATM   42  C   UNL     1     -10.317   4.249  72.237  1.00  0.00    -0.214 C  
HETATM   43  O   UNL     1     -10.756   6.064  68.832  1.00  0.00    -0.255 OA 
HETATM   44  C   UNL     1      -9.196   3.981  73.619  1.00  0.00    -0.096 C  
HETATM   45  N   UNL     1      -8.254   5.082  73.928  1.00  0.00    -0.105 NA 
BRANCH  45  46
HETATM   46  C   UNL     1      -6.817   4.886  74.000  1.00  0.00    -0.075 C  
BRANCH  46  47
HETATM   47  C   UNL     1      -6.001   6.079  73.627  1.00  0.00    -0.061 C  
HETATM   48  C   UNL     1      -6.535   7.274  73.353  1.00  0.00    -0.064 C  
ENDBRANCH  46  47
ENDBRANCH  45  46
ENDBRANCH  23  24
ENDBRANCH  22  23
ENDBRANCH  21  22
ENDBRANCH  20  21
ENDBRANCH  19  20
ENDBRANCH  18  19
ENDBRANCH  17  18
ENDBRANCH  16  17
ENDBRANCH  15  16
ENDBRANCH  14  15
ENDBRANCH  13  14
ENDBRANCH  12  13
ENDBRANCH  11  12
ENDBRANCH  10  11
ENDBRANCH   9  10
ENDBRANCH   8   9
ENDBRANCH   7   8
ENDBRANCH   6   7
ENDBRANCH   5   6
ENDBRANCH   4   5
ENDBRANCH   3   4
ENDBRANCH   2   3
TORSDOF 24
ENDMDL
MODEL      206
REMARK 921   NORMALIZED FREE ENERGY PREDICTED BY IDOCK:    4.47 KCAL/MOL
REMARK 922        TOTAL FREE ENERGY PREDICTED BY IDOCK:    8.46 KCAL/MOL
REMARK 923 INTER-LIGAND FREE ENERGY PREDICTED BY IDOCK:   -4.05 KCAL/MOL
REMARK 924 INTRA-LIGAND FREE ENERGY PREDICTED BY IDOCK:   12.51 KCAL/MOL
REMARK 927      BINDING AFFINITY PREDICTED BY RF-SCORE:    0.00 PKD
ROOT
HETATM    1  C   UNL     1     -10.636  17.194  67.543  1.00  0.00    -0.323 C  
HETATM    2  O   UNL     1      -9.457  17.767  66.994  1.00  0.00    -0.257 OA 
ENDROOT
BRANCH   2   3
HETATM    3  C   UNL     1      -9.755  18.580  65.861  1.00  0.00     0.056 C  
BRANCH   3   4
HETATM    4  C   UNL     1     -10.466  17.739  64.812  1.00  0.00     1.819 C  
BRANCH   4   5
HETATM    5  O   UNL     1     -11.402  16.880  65.461  1.00  0.00     0.213 OA 
BRANCH   5   6
HETATM    6  C   UNL     1     -11.435  15.598  64.839  1.00  0.00    -0.245 C  
BRANCH   6   7
HETATM    7  C   UNL     1     -10.255  14.770  65.322  1.00  0.00    -0.384 C  
BRANCH   7   8
HETATM    8  O   UNL     1     -10.346  14.642  66.739  1.00  0.00    -0.263 OA 
BRANCH   8   9
HETATM    9  C   UNL     1     -11.692  14.449  67.157  1.00  0.00    -0.400 C  
BRANCH   9  10
HETATM   10  C   UNL     1     -11.830  14.913  68.597  1.00  0.00    -0.300 C  
BRANCH  10  11
HETATM   11  O   UNL     1     -10.979  14.115  69.411  1.00  0.00    -0.239 OA 
BRANCH  11  12
HETATM   12  C   UNL     1      -9.710  13.922  68.798  1.00  0.00    -0.093 C  
BRANCH  12  13
HETATM   13  C   UNL     1      -9.632  12.493  68.289  1.00  0.00    -0.209 C  
BRANCH  13  14
HETATM   14  O   UNL     1      -8.271  12.138  68.087  1.00  0.00    -0.148 OA 
BRANCH  14  15
HETATM   15  C   UNL     1      -8.103  10.731  68.209  1.00  0.00    -0.121 C  
BRANCH  15  16
HETATM   16  C   UNL     1      -8.107  10.083  66.835  1.00  0.00    -0.117 C  
BRANCH  16  17
HETATM   17  O   UNL     1      -8.970  10.849  66.004  1.00  0.00    -0.174 OA 
BRANCH  17  18
HETATM   18  C   UNL     1     -10.175  10.166  65.699  1.00  0.00    -0.218 C  
BRANCH  18  19
HETATM   19  C   UNL     1     -11.016  10.129  66.962  1.00  0.00    -0.092 C  
BRANCH  19  20
HETATM   20  O   UNL     1     -10.249   9.601  68.035  1.00  0.00    -0.173 OA 
BRANCH  20  21
HETATM   21  C   UNL     1     -10.393   8.186  68.148  1.00  0.00    -0.201 C  
BRANCH  21  22
HETATM   22  C   UNL     1      -9.096   7.471  67.755  1.00  0.00    -0.129 C  
BRANCH  22  23
HETATM   23  O   UNL     1      -7.870   8.194  68.036  1.00  0.00    -0.117 OA 
BRANCH  23  24
HETATM   24  C   UNL     1      -6.926   7.480  68.871  1.00  0.00    -0.077 C  
HETATM   25  C   UNL     1      -6.983   7.994  70.281  1.00  0.00    -0.044 C  
HETATM   26  C   UNL     1      -8.032   7.203  71.256  1.00  0.00    -0.102 C  
HETATM   27  C   UNL     1      -8.024   5.556  71.299  1.00  0.00    -0.111 C  
HETATM   28  C   UNL     1      -7.530   4.422  72.418  1.00  0.00    -0.077 C  
HETATM   29  O   UNL     1      -9.318   5.189  70.800  1.00  0.00    -0.149 OA 
HETATM   30  C   UNL     1      -7.788   2.943  72.116  1.00  0.00    -0.054 C  
HETATM   31  H   UNL     1      -9.313   4.239  70.825  1.00  0.00     0.000 HD 
HETATM   32  C   UNL     1      -7.254   2.758  70.717  1.00  0.00    -0.033 A  
HETATM   33  C   UNL     1      -7.346   1.551  70.051  1.00  0.00    -0.036 A  
HETATM   34  C   UNL     1      -7.168   1.476  68.678  1.00  0.00    -0.039 A  
HETATM   35  C   UNL     1      -6.912   2.654  67.920  1.00  0.00    -0.048 A  
HETATM   36  O   UNL     1      -6.984   2.606  66.563  1.00  0.00    -0.047 OA 
HETATM   37  C   UNL     1      -6.696   3.852  68.596  1.00  0.00    -0.046 A  
HETATM   38  H   UNL     1      -6.813   3.392  66.057  1.00  0.00     0.000 HD 
HETATM   39  C   UNL     1      -6.809   3.932  69.991  1.00  0.00    -0.034 A  
HETATM   40  C   UNL     1      -6.827   5.363  70.454  1.00  0.00    -0.052 C  
HETATM   41  C   UNL     1      -7.177   5.962  69.012  1.00  0.00    -0.082 C  
HETATM   42  C   UNL     1      -5.663   5.951  71.702  1.00  0.00    -0.022 C  
HETATM   43  O   UNL     1      -6.552   5.104  68.019  1.00  0.00    -0.046 OA 
HETATM   44  C   UNL     1      -6.281   5.963  73.391  1.00  0.00    -0.062 C  
HETATM   45  N   UNL     1      -7.302   4.942  73.728  1.00  0.00    -0.081 NA 
BRANCH  45  46
HETATM   46  C   UNL     1      -8.594   5.284  74.296  1.00  0.00    -0.116 C  
BRANCH  46  47
HETATM   47  C   UNL     1      -8.926   6.739  74.271  1.00  0.00    -0.213 C  
HETATM   48  C   UNL     1     -10.107   7.212  73.860  1.00  0.00    -0.359 C  
ENDBRANCH  46  47
ENDBRANCH  45  46
ENDBRANCH  23  24
ENDBRANCH  22  23
ENDBRANCH  21  22
ENDBRANCH  20  21
ENDBRANCH  19  20
ENDBRANCH  18  19
ENDBRANCH  17  18
ENDBRANCH  16  17
ENDBRANCH  15  16
ENDBRANCH  14  15
ENDBRANCH  13  14
ENDBRANCH  12  13
ENDBRANCH  11  12
ENDBRANCH  10  11
ENDBRANCH   9  10
ENDBRANCH   8   9
ENDBRANCH   7   8
ENDBRANCH   6   7
ENDBRANCH   5   6
ENDBRANCH   4   5
ENDBRANCH   3   4
ENDBRANCH   2   3
TORSDOF 24
ENDMDL
MODEL      207
REMARK 921   NORMALIZED FREE ENERGY PREDICTED BY IDOCK:    4.68 KCAL/MOL
REMARK 922        TOTAL FREE ENERGY PREDICTED BY IDOCK:    8.94 KCAL/MOL
REMARK 923 INTER-LIGAND FREE ENERGY PREDICTED BY IDOCK:   -4.04 KCAL/MOL
REMARK 924 INTRA-LIGAND FREE ENERGY PREDICTED BY IDOCK:   12.98 KCAL/MOL
REMARK 927      BINDING AFFINITY PREDICTED BY RF-SCORE:    0.00 PKD
ROOT
HETATM    1  C   UNL     1     -10.252  17.650  69.499  1.00  0.00     0.085 C  
HETATM    2  O   UNL     1     -11.071  16.496  69.371  1.00  0.00    -0.311 OA 
ENDROOT
BRANCH   2   3
HETATM    3  C   UNL     1     -11.320  16.187  68.001  1.00  0.00    -0.234 C  
BRANCH   3   4
HETATM    4  C   UNL     1     -12.126  14.899  67.914  1.00  0.00    -0.055 C  
BRANCH   4   5
HETATM    5  O   UNL     1     -11.305  13.808  68.327  1.00  0.00    -0.255 OA 
BRANCH   5   6
HETATM    6  C   UNL     1     -10.813  14.011  69.649  1.00  0.00     0.030 C  
BRANCH   6   7
HETATM    7  C   UNL     1      -9.908  15.232  69.671  1.00  0.00    -0.216 C  
BRANCH   7   8
HETATM    8  O   UNL     1      -9.065  15.187  68.522  1.00  0.00    -0.177 OA 
BRANCH   8   9
HETATM    9  C   UNL     1      -7.952  14.325  68.729  1.00  0.00    -0.119 C  
BRANCH   9  10
HETATM   10  C   UNL     1      -8.419  12.884  68.611  1.00  0.00     0.046 C  
BRANCH  10  11
HETATM   11  O   UNL     1      -7.441  12.151  67.886  1.00  0.00    -0.099 OA 
BRANCH  11  12
HETATM   12  C   UNL     1      -6.144  12.328  68.445  1.00  0.00    -0.052 C  
BRANCH  12  13
HETATM   13  C   UNL     1      -5.131  12.366  67.313  1.00  0.00    -0.053 C  
BRANCH  13  14
HETATM   14  O   UNL     1      -5.733  11.871  66.125  1.00  0.00    -0.123 OA 
BRANCH  14  15
HETATM   15  C   UNL     1      -6.081  10.500  66.280  1.00  0.00    -0.096 C  
BRANCH  15  16
HETATM   16  C   UNL     1      -6.240   9.845  64.919  1.00  0.00    -0.105 C  
BRANCH  16  17
HETATM   17  O   UNL     1      -7.330  10.480  64.264  1.00  0.00    -0.043 OA 
BRANCH  17  18
HETATM   18  C   UNL     1      -8.239  11.074  65.176  1.00  0.00     0.146 C  
BRANCH  18  19
HETATM   19  C   UNL     1      -8.927   9.956  65.937  1.00  0.00    -0.152 C  
BRANCH  19  20
HETATM   20  O   UNL     1     -10.336  10.133  65.883  1.00  0.00    -0.229 OA 
BRANCH  20  21
HETATM   21  C   UNL     1     -11.023   9.195  66.710  1.00  0.00     0.317 C  
BRANCH  21  22
HETATM   22  C   UNL     1     -10.381   7.807  66.611  1.00  0.00    -0.192 C  
BRANCH  22  23
HETATM   23  O   UNL     1      -9.039   7.772  66.063  1.00  0.00    -0.173 OA 
BRANCH  23  24
HETATM   24  C   UNL     1      -8.031   7.256  66.966  1.00  0.00    -0.109 C  
HETATM   25  C   UNL     1      -8.508   7.349  68.388  1.00  0.00    -0.125 C  
HETATM   26  C   UNL     1      -9.293   6.021  68.935  1.00  0.00    -0.131 C  
HETATM   27  C   UNL     1      -8.635   4.529  68.699  1.00  0.00    -0.089 C  
HETATM   28  C   UNL     1      -7.911   3.404  69.695  1.00  0.00    -0.049 C  
HETATM   29  O   UNL     1      -9.580   3.863  67.850  1.00  0.00    -0.178 OA 
HETATM   30  C   UNL     1      -7.507   2.054  69.095  1.00  0.00    -0.043 C  
HETATM   31  H   UNL     1      -9.201   3.002  67.713  1.00  0.00     0.000 HD 
HETATM   32  C   UNL     1      -6.732   2.425  67.854  1.00  0.00    -0.039 A  
HETATM   33  C   UNL     1      -6.231   1.470  66.991  1.00  0.00    -0.020 A  
HETATM   34  C   UNL     1      -5.825   1.807  65.708  1.00  0.00    -0.017 A  
HETATM   35  C   UNL     1      -5.946   3.148  65.244  1.00  0.00    -0.019 A  
HETATM   36  O   UNL     1      -5.779   3.416  63.921  1.00  0.00    -0.013 OA 
HETATM   37  C   UNL     1      -6.334   4.136  66.145  1.00  0.00    -0.033 A  
HETATM   38  H   UNL     1      -5.860   4.311  63.612  1.00  0.00     0.000 HD 
HETATM   39  C   UNL     1      -6.686   3.822  67.465  1.00  0.00    -0.043 A  
HETATM   40  C   UNL     1      -7.345   4.990  68.146  1.00  0.00    -0.074 C  
HETATM   41  C   UNL     1      -7.674   5.764  66.784  1.00  0.00    -0.100 C  
HETATM   42  C   UNL     1      -6.722   5.623  69.717  1.00  0.00    -0.052 C  
HETATM   43  O   UNL     1      -6.613   5.459  65.839  1.00  0.00    -0.042 OA 
HETATM   44  C   UNL     1      -7.549   4.994  71.186  1.00  0.00    -0.086 C  
HETATM   45  N   UNL     1      -8.117   3.628  71.090  1.00  0.00    -0.065 NA 
BRANCH  45  46
HETATM   46  C   UNL     1      -9.510   3.336  71.381  1.00  0.00    -0.151 C  
BRANCH  46  47
HETATM   47  C   UNL     1      -9.805   3.055  72.817  1.00  0.00    -0.197 C  
HETATM   48  C   UNL     1     -10.988   3.316  73.384  1.00  0.00    -0.301 C  
ENDBRANCH  46  47
ENDBRANCH  45  46
ENDBRANCH  23  24
ENDBRANCH  22  23
ENDBRANCH  21  22
ENDBRANCH  20  21
ENDBRANCH  19  20
ENDBRANCH  18  19
ENDBRANCH  17  18
ENDBRANCH  16  17
ENDBRANCH  15  16
ENDBRANCH  14  15
ENDBRANCH  13  14
ENDBRANCH  12  13
ENDBRANCH  11  12
ENDBRANCH  10  11
ENDBRANCH   9  10
ENDBRANCH   8   9
ENDBRANCH   7   8
ENDBRANCH   6   7
ENDBRANCH   5   6
ENDBRANCH   4   5
ENDBRANCH   3   4
ENDBRANCH   2   3
TORSDOF 24
ENDMDL
MODEL      208
REMARK 921   NORMALIZED FREE ENERGY PREDICTED BY IDOCK:    4.81 KCAL/MOL
REMARK 922        TOTAL FREE ENERGY PREDICTED BY IDOCK:    9.27 KCAL/MOL
REMARK 923 INTER-LIGAND FREE ENERGY PREDICTED BY IDOCK:   -3.74 KCAL/MOL
REMARK 924 INTRA-LIGAND FREE ENERGY PREDICTED BY IDOCK:   13.01 KCAL/MOL
REMARK 927      BINDING AFFINITY PREDICTED BY RF-SCORE:    0.00 PKD
ROOT
HETATM    1  C   UNL     1     -10.252  17.649  69.499  1.00  0.00     0.085 C  
HETATM    2  O   UNL     1     -11.079  16.501  69.361  1.00  0.00    -0.311 OA 
ENDROOT
BRANCH   2   3
HETATM    3  C   UNL     1     -11.332  16.207  67.989  1.00  0.00    -0.234 C  
BRANCH   3   4
HETATM    4  C   UNL     1     -12.149  14.927  67.892  1.00  0.00    -0.055 C  
BRANCH   4   5
HETATM    5  O   UNL     1     -11.336  13.825  68.291  1.00  0.00    -0.255 OA 
BRANCH   5   6
HETATM    6  C   UNL     1     -10.780  14.043  69.585  1.00  0.00     0.106 C  
BRANCH   6   7
HETATM    7  C   UNL     1      -9.844  15.239  69.539  1.00  0.00    -0.226 C  
BRANCH   7   8
HETATM    8  O   UNL     1      -9.053  15.146  68.357  1.00  0.00    -0.174 OA 
BRANCH   8   9
HETATM    9  C   UNL     1      -7.957  14.256  68.534  1.00  0.00    -0.145 C  
BRANCH   9  10
HETATM   10  C   UNL     1      -8.468  12.828  68.465  1.00  0.00    -0.044 C  
BRANCH  10  11
HETATM   11  O   UNL     1      -7.541  12.053  67.715  1.00  0.00    -0.111 OA 
BRANCH  11  12
HETATM   12  C   UNL     1      -6.218  12.202  68.216  1.00  0.00    -0.052 C  
BRANCH  12  13
HETATM   13  C   UNL     1      -5.253  12.193  67.043  1.00  0.00    -0.043 C  
BRANCH  13  14
HETATM   14  O   UNL     1      -5.918  11.695  65.890  1.00  0.00    -0.015 OA 
BRANCH  14  15
HETATM   15  C   UNL     1      -6.294  10.336  66.083  1.00  0.00    -0.094 C  
BRANCH  15  16
HETATM   16  C   UNL     1      -6.528   9.664  64.741  1.00  0.00    -0.090 C  
BRANCH  16  17
HETATM   17  O   UNL     1      -7.630  10.315  64.123  1.00  0.00    -0.146 OA 
BRANCH  17  18
HETATM   18  C   UNL     1      -8.487  10.941  65.065  1.00  0.00    -0.009 C  
BRANCH  18  19
HETATM   19  C   UNL     1      -9.170   9.848  65.865  1.00  0.00    -0.176 C  
BRANCH  19  20
HETATM   20  O   UNL     1     -10.575  10.060  65.867  1.00  0.00    -0.100 OA 
BRANCH  20  21
HETATM   21  C   UNL     1     -11.251   9.145  66.728  1.00  0.00     1.034 C  
BRANCH  21  22
HETATM   22  C   UNL     1     -10.651   7.740  66.611  1.00  0.00    -0.010 C  
BRANCH  22  23
HETATM   23  O   UNL     1      -9.333   7.667  66.009  1.00  0.00    -0.125 OA 
BRANCH  23  24
HETATM   24  C   UNL     1      -8.304   7.123  66.871  1.00  0.00    -0.118 C  
HETATM   25  C   UNL     1      -8.021   8.069  68.005  1.00  0.00    -0.128 C  
HETATM   26  C   UNL     1      -8.911   7.808  69.352  1.00  0.00    -0.142 C  
HETATM   27  C   UNL     1      -9.043   6.283  69.962  1.00  0.00    -0.148 C  
HETATM   28  C   UNL     1      -8.431   5.510  71.307  1.00  0.00    -0.127 C  
HETATM   29  O   UNL     1     -10.439   5.980  69.843  1.00  0.00    -0.203 OA 
HETATM   30  C   UNL     1      -8.878   4.072  71.585  1.00  0.00    -0.144 C  
HETATM   31  H   UNL     1     -10.515   5.100  70.194  1.00  0.00     0.000 HD 
HETATM   32  C   UNL     1      -8.664   3.364  70.270  1.00  0.00    -0.123 A  
HETATM   33  C   UNL     1      -9.001   2.036  70.089  1.00  0.00    -0.147 A  
HETATM   34  C   UNL     1      -9.120   1.494  68.818  1.00  0.00    -0.171 A  
HETATM   35  C   UNL     1      -8.922   2.309  67.667  1.00  0.00    -0.157 A  
HETATM   36  O   UNL     1      -9.278   1.837  66.442  1.00  0.00    -0.285 OA 
HETATM   37  C   UNL     1      -8.464   3.613  67.840  1.00  0.00    -0.094 A  
HETATM   38  H   UNL     1      -9.146   2.380  65.674  1.00  0.00     0.000 HD 
HETATM   39  C   UNL     1      -8.277   4.156  69.118  1.00  0.00    -0.078 A  
HETATM   40  C   UNL     1      -8.069   5.645  69.052  1.00  0.00    -0.097 C  
HETATM   41  C   UNL     1      -8.656   5.791  67.570  1.00  0.00    -0.105 C  
HETATM   42  C   UNL     1      -6.623   6.416  69.808  1.00  0.00    -0.048 C  
HETATM   43  O   UNL     1      -8.331   4.572  66.848  1.00  0.00    -0.106 OA 
HETATM   44  C   UNL     1      -6.874   7.070  71.465  1.00  0.00    -0.064 C  
HETATM   45  N   UNL     1      -7.889   6.384  72.299  1.00  0.00    -0.102 NA 
BRANCH  45  46
HETATM   46  C   UNL     1      -8.999   7.087  72.918  1.00  0.00    -0.126 C  
BRANCH  46  47
HETATM   47  C   UNL     1      -8.886   8.575  72.903  1.00  0.00    -0.159 C  
HETATM   48  C   UNL     1      -9.372   9.335  71.916  1.00  0.00     0.323 C  
ENDBRANCH  46  47
ENDBRANCH  45  46
ENDBRANCH  23  24
ENDBRANCH  22  23
ENDBRANCH  21  22
ENDBRANCH  20  21
ENDBRANCH  19  20
ENDBRANCH  18  19
ENDBRANCH  17  18
ENDBRANCH  16  17
ENDBRANCH  15  16
ENDBRANCH  14  15
ENDBRANCH  13  14
ENDBRANCH  12  13
ENDBRANCH  11  12
ENDBRANCH  10  11
ENDBRANCH   9  10
ENDBRANCH   8   9
ENDBRANCH   7   8
ENDBRANCH   6   7
ENDBRANCH   5   6
ENDBRANCH   4   5
ENDBRANCH   3   4
ENDBRANCH   2   3
TORSDOF 24
ENDMDL
MODEL      209
REMARK 921   NORMALIZED FREE ENERGY PREDICTED BY IDOCK:    5.15 KCAL/MOL
REMARK 922        TOTAL FREE ENERGY PREDICTED BY IDOCK:   10.09 KCAL/MOL
REMARK 923 INTER-LIGAND FREE ENERGY PREDICTED BY IDOCK:    1.27 KCAL/MOL
REMARK 924 INTRA-LIGAND FREE ENERGY PREDICTED BY IDOCK:    8.82 KCAL/MOL
REMARK 927      BINDING AFFINITY PREDICTED BY RF-SCORE:    0.00 PKD
ROOT
HETATM    1  C   UNL     1      -7.638   1.713  66.686  1.00  0.00    -0.064 C  
HETATM    2  O   UNL     1      -7.504   2.057  65.314  1.00  0.00    -0.063 OA 
ENDROOT
BRANCH   2   3
HETATM    3  C   UNL     1      -7.620   3.465  65.119  1.00  0.00    -0.080 C  
BRANCH   3   4
HETATM    4  C   UNL     1      -6.917   4.190  66.256  1.00  0.00    -0.063 C  
BRANCH   4   5
HETATM    5  O   UNL     1      -7.896   4.809  67.089  1.00  0.00    -0.093 OA 
BRANCH   5   6
HETATM    6  C   UNL     1      -8.717   3.833  67.724  1.00  0.00    -0.105 C  
BRANCH   6   7
HETATM    7  C   UNL     1      -9.887   4.521  68.407  1.00  0.00    -0.084 C  
BRANCH   7   8
HETATM    8  O   UNL     1      -9.699   4.433  69.818  1.00  0.00    -0.193 OA 
BRANCH   8   9
HETATM    9  C   UNL     1      -8.949   5.537  70.311  1.00  0.00    -0.137 C  
BRANCH   9  10
HETATM   10  C   UNL     1      -8.856   6.592  69.222  1.00  0.00    -0.133 C  
BRANCH  10  11
HETATM   11  O   UNL     1      -7.501   7.010  69.114  1.00  0.00    -0.090 OA 
BRANCH  11  12
HETATM   12  C   UNL     1      -6.851   6.990  70.379  1.00  0.00    -0.057 C  
BRANCH  12  13
HETATM   13  C   UNL     1      -6.488   8.415  70.759  1.00  0.00    -0.038 C  
BRANCH  13  14
HETATM   14  O   UNL     1      -7.213   9.320  69.938  1.00  0.00    -0.058 OA 
BRANCH  14  15
HETATM   15  C   UNL     1      -6.331  10.002  69.054  1.00  0.00    -0.044 C  
BRANCH  15  16
HETATM   16  C   UNL     1      -5.757  11.232  69.735  1.00  0.00    -0.077 C  
BRANCH  16  17
HETATM   17  O   UNL     1      -6.349  12.373  69.127  1.00  0.00    -0.082 OA 
BRANCH  17  18
HETATM   18  C   UNL     1      -6.121  12.421  67.728  1.00  0.00    -0.111 C  
BRANCH  18  19
HETATM   19  C   UNL     1      -6.959  13.552  67.162  1.00  0.00     0.299 C  
BRANCH  19  20
HETATM   20  O   UNL     1      -6.157  14.715  67.012  1.00  0.00    -0.053 OA 
BRANCH  20  21
HETATM   21  C   UNL     1      -6.747  15.852  67.640  1.00  0.00    -0.170 C  
BRANCH  21  22
HETATM   22  C   UNL     1      -6.287  15.973  69.098  1.00  0.00    -0.151 C  
BRANCH  22  23
HETATM   23  O   UNL     1      -7.098  15.267  70.072  1.00  0.00    -0.147 OA 
BRANCH  23  24
HETATM   24  C   UNL     1      -8.527  15.418  69.892  1.00  0.00     0.169 C  
HETATM   25  C   UNL     1      -8.843  16.784  69.349  1.00  0.00     0.168 C  
HETATM   26  C   UNL     1      -8.898  16.875  67.716  1.00  0.00    -0.217 C  
HETATM   27  C   UNL     1      -9.762  15.760  66.865  1.00  0.00    -0.230 C  
HETATM   28  C   UNL     1     -11.197  15.799  66.015  1.00  0.00     0.018 C  
HETATM   29  O   UNL     1      -8.772  15.079  66.081  1.00  0.00    -0.461 OA 
HETATM   30  C   UNL     1     -11.627  14.540  65.257  1.00  0.00    -0.359 C  
HETATM   31  H   UNL     1      -9.271  14.435  65.590  1.00  0.00     0.000 HD 
HETATM   32  C   UNL     1     -11.501  13.438  66.280  1.00  0.00    -0.354 A  
HETATM   33  C   UNL     1     -11.755  12.116  65.968  1.00  0.00    -0.388 A  
HETATM   34  C   UNL     1     -11.321  11.090  66.794  1.00  0.00    -0.052 A  
HETATM   35  C   UNL     1     -10.577  11.380  67.972  1.00  0.00    -0.191 A  
HETATM   36  O   UNL     1      -9.952  10.371  68.636  1.00  0.00    -0.163 OA 
HETATM   37  C   UNL     1     -10.424  12.710  68.358  1.00  0.00    -0.238 A  
HETATM   38  H   UNL     1      -9.455  10.565  69.423  1.00  0.00     0.000 HD 
HETATM   39  C   UNL     1     -10.913  13.759  67.567  1.00  0.00    -0.285 A  
HETATM   40  C   UNL     1     -10.374  15.085  68.028  1.00  0.00    -0.236 C  
HETATM   41  C   UNL     1      -9.177  14.450  68.878  1.00  0.00    -0.084 C  
HETATM   42  C   UNL     1     -11.485  16.450  68.430  1.00  0.00    -0.181 C  
HETATM   43  O   UNL     1      -9.639  13.175  69.401  1.00  0.00     0.619 OA 
HETATM   44  C   UNL     1     -11.764  17.636  67.106  1.00  0.00     1.792 C  
HETATM   45  N   UNL     1     -11.677  17.112  65.722  1.00  0.00     1.556 NA 
BRANCH  45  46
HETATM   46  C   UNL     1     -10.797  17.687  64.720  1.00  0.00     1.174 C  
BRANCH  46  47
HETATM   47  C   UNL     1      -9.829  18.697  65.241  1.00  0.00     1.378 C  
HETATM   48  C   UNL     1      -9.639  18.923  66.545  1.00  0.00    -0.373 C  
ENDBRANCH  46  47
ENDBRANCH  45  46
ENDBRANCH  23  24
ENDBRANCH  22  23
ENDBRANCH  21  22
ENDBRANCH  20  21
ENDBRANCH  19  20
ENDBRANCH  18  19
ENDBRANCH  17  18
ENDBRANCH  16  17
ENDBRANCH  15  16
ENDBRANCH  14  15
ENDBRANCH  13  14
ENDBRANCH  12  13
ENDBRANCH  11  12
ENDBRANCH  10  11
ENDBRANCH   9  10
ENDBRANCH   8   9
ENDBRANCH   7   8
ENDBRANCH   6   7
ENDBRANCH   5   6
ENDBRANCH   4   5
ENDBRANCH   3   4
ENDBRANCH   2   3
TORSDOF 24
ENDMDL
MODEL      210
REMARK 921   NORMALIZED FREE ENERGY PREDICTED BY IDOCK:    5.22 KCAL/MOL
REMARK 922        TOTAL FREE ENERGY PREDICTED BY IDOCK:   10.26 KCAL/MOL
REMARK 923 INTER-LIGAND FREE ENERGY PREDICTED BY IDOCK:    4.94 KCAL/MOL
REMARK 924 INTRA-LIGAND FREE ENERGY PREDICTED BY IDOCK:    5.32 KCAL/MOL
REMARK 927      BINDING AFFINITY PREDICTED BY RF-SCORE:    0.00 PKD
ROOT
HETATM    1  C   UNL     1     -11.490  20.258  68.235  1.00  0.00     1.946 C  
HETATM    2  O   UNL     1     -11.847  19.187  67.372  1.00  0.00     0.948 OA 
ENDROOT
BRANCH   2   3
HETATM    3  C   UNL     1     -12.045  17.977  68.101  1.00  0.00     3.321 C  
BRANCH   3   4
HETATM    4  C   UNL     1     -10.864  17.754  69.035  1.00  0.00     0.359 C  
BRANCH   4   5
HETATM    5  O   UNL     1     -10.940  16.434  69.572  1.00  0.00    -0.309 OA 
BRANCH   5   6
HETATM    6  C   UNL     1     -10.547  15.466  68.602  1.00  0.00    -0.239 C  
BRANCH   6   7
HETATM    7  C   UNL     1      -9.220  14.849  69.011  1.00  0.00    -0.176 C  
BRANCH   7   8
HETATM    8  O   UNL     1      -8.435  14.652  67.837  1.00  0.00    -0.145 OA 
BRANCH   8   9
HETATM    9  C   UNL     1      -8.035  13.293  67.702  1.00  0.00    -0.176 C  
BRANCH   9  10
HETATM   10  C   UNL     1      -9.140  12.401  68.240  1.00  0.00    -0.183 C  
BRANCH  10  11
HETATM   11  O   UNL     1      -9.495  11.464  67.231  1.00  0.00    -0.166 OA 
BRANCH  11  12
HETATM   12  C   UNL     1      -8.908  10.192  67.477  1.00  0.00    -0.125 C  
BRANCH  12  13
HETATM   13  C   UNL     1      -9.769   9.127  66.819  1.00  0.00    -0.210 C  
BRANCH  13  14
HETATM   14  O   UNL     1     -10.017   9.491  65.468  1.00  0.00    -0.304 OA 
BRANCH  14  15
HETATM   15  C   UNL     1      -8.994  10.356  64.992  1.00  0.00    -0.195 C  
BRANCH  15  16
HETATM   16  C   UNL     1      -7.633   9.856  65.445  1.00  0.00    -0.131 C  
BRANCH  16  17
HETATM   17  O   UNL     1      -6.947  10.956  66.029  1.00  0.00    -0.127 OA 
BRANCH  17  18
HETATM   18  C   UNL     1      -5.544  10.752  66.082  1.00  0.00    -0.120 C  
BRANCH  18  19
HETATM   19  C   UNL     1      -5.259   9.798  67.227  1.00  0.00    -0.035 C  
BRANCH  19  20
HETATM   20  O   UNL     1      -6.442   9.593  67.987  1.00  0.00    -0.056 OA 
BRANCH  20  21
HETATM   21  C   UNL     1      -6.516   8.267  68.507  1.00  0.00    -0.054 C  
BRANCH  21  22
HETATM   22  C   UNL     1      -5.162   7.558  68.397  1.00  0.00    -0.025 C  
BRANCH  22  23
HETATM   23  O   UNL     1      -5.215   6.149  68.058  1.00  0.00    -0.004 OA 
BRANCH  23  24
HETATM   24  C   UNL     1      -5.409   5.263  69.188  1.00  0.00    -0.004 C  
HETATM   25  C   UNL     1      -5.324   6.034  70.476  1.00  0.00    -0.013 C  
HETATM   26  C   UNL     1      -6.754   6.609  71.024  1.00  0.00    -0.054 C  
HETATM   27  C   UNL     1      -8.063   5.611  71.097  1.00  0.00    -0.116 C  
HETATM   28  C   UNL     1      -8.907   4.885  72.338  1.00  0.00    -0.123 C  
HETATM   29  O   UNL     1      -8.995   6.193  70.175  1.00  0.00    -0.145 OA 
HETATM   30  C   UNL     1     -10.165   4.084  71.991  1.00  0.00    -0.186 C  
HETATM   31  H   UNL     1      -9.750   5.617  70.216  1.00  0.00     0.000 HD 
HETATM   32  C   UNL     1      -9.717   3.167  70.879  1.00  0.00    -0.170 A  
HETATM   33  C   UNL     1     -10.590   2.303  70.246  1.00  0.00     2.228 A  
HETATM   34  C   UNL     1     -10.265   1.722  69.029  1.00  0.00     0.928 A  
HETATM   35  C   UNL     1      -9.029   2.030  68.392  1.00  0.00    -0.136 A  
HETATM   36  O   UNL     1      -8.830   1.655  67.100  1.00  0.00    -0.104 OA 
HETATM   37  C   UNL     1      -8.095   2.801  69.079  1.00  0.00    -0.055 A  
HETATM   38  H   UNL     1      -8.005   1.860  66.674  1.00  0.00     0.000 HD 
HETATM   39  C   UNL     1      -8.382   3.342  70.339  1.00  0.00    -0.084 A  
HETATM   40  C   UNL     1      -7.354   4.365  70.740  1.00  0.00    -0.048 C  
HETATM   41  C   UNL     1      -6.785   4.564  69.257  1.00  0.00    -0.045 C  
HETATM   42  C   UNL     1      -6.475   4.233  72.311  1.00  0.00    -0.022 C  
HETATM   43  O   UNL     1      -6.902   3.289  68.569  1.00  0.00    -0.044 OA 
HETATM   44  C   UNL     1      -7.167   5.192  73.667  1.00  0.00    -0.083 C  
HETATM   45  N   UNL     1      -8.632   5.419  73.634  1.00  0.00    -0.111 NA 
BRANCH  45  46
HETATM   46  C   UNL     1      -9.220   6.745  73.696  1.00  0.00    -0.155 C  
BRANCH  46  47
HETATM   47  C   UNL     1      -8.254   7.869  73.522  1.00  0.00    -0.251 C  
HETATM   48  C   UNL     1      -7.787   8.596  74.543  1.00  0.00    -0.060 C  
ENDBRANCH  46  47
ENDBRANCH  45  46
ENDBRANCH  23  24
ENDBRANCH  22  23
ENDBRANCH  21  22
ENDBRANCH  20  21
ENDBRANCH  19  20
ENDBRANCH  18  19
ENDBRANCH  17  18
ENDBRANCH  16  17
ENDBRANCH  15  16
ENDBRANCH  14  15
ENDBRANCH  13  14
ENDBRANCH  12  13
ENDBRANCH  11  12
ENDBRANCH  10  11
ENDBRANCH   9  10
ENDBRANCH   8   9
ENDBRANCH   7   8
ENDBRANCH   6   7
ENDBRANCH   5   6
ENDBRANCH   4   5
ENDBRANCH   3   4
ENDBRANCH   2   3
TORSDOF 24
ENDMDL
MODEL      211
REMARK 921   NORMALIZED FREE ENERGY PREDICTED BY IDOCK:    5.34 KCAL/MOL
REMARK 922        TOTAL FREE ENERGY PREDICTED BY IDOCK:   10.55 KCAL/MOL
REMARK 923 INTER-LIGAND FREE ENERGY PREDICTED BY IDOCK:    3.71 KCAL/MOL
REMARK 924 INTRA-LIGAND FREE ENERGY PREDICTED BY IDOCK:    6.84 KCAL/MOL
REMARK 927      BINDING AFFINITY PREDICTED BY RF-SCORE:    0.00 PKD
ROOT
HETATM    1  C   UNL     1     -11.647  15.326  66.182  1.00  0.00     0.008 C  
HETATM    2  O   UNL     1     -12.511  14.983  67.257  1.00  0.00     0.265 OA 
ENDROOT
BRANCH   2   3
HETATM    3  C   UNL     1     -12.211  15.744  68.426  1.00  0.00     0.346 C  
BRANCH   3   4
HETATM    4  C   UNL     1     -12.856  17.117  68.312  1.00  0.00     4.600 C  
BRANCH   4   5
HETATM    5  O   UNL     1     -12.239  17.833  67.242  1.00  0.00     2.593 OA 
BRANCH   5   6
HETATM    6  C   UNL     1     -11.269  18.753  67.736  1.00  0.00     0.292 C  
BRANCH   6   7
HETATM    7  C   UNL     1      -9.964  18.569  66.980  1.00  0.00    -0.344 C  
BRANCH   7   8
HETATM    8  O   UNL     1      -9.906  17.227  66.503  1.00  0.00    -0.272 OA 
BRANCH   8   9
HETATM    9  C   UNL     1      -9.398  16.345  67.497  1.00  0.00    -0.214 C  
BRANCH   9  10
HETATM   10  C   UNL     1      -9.381  17.068  68.832  1.00  0.00    -0.224 C  
BRANCH  10  11
HETATM   11  O   UNL     1      -8.028  17.230  69.240  1.00  0.00    -0.083 OA 
BRANCH  11  12
HETATM   12  C   UNL     1      -7.183  17.505  68.128  1.00  0.00    -0.216 C  
BRANCH  12  13
HETATM   13  C   UNL     1      -6.358  16.266  67.830  1.00  0.00    -0.143 C  
BRANCH  13  14
HETATM   14  O   UNL     1      -6.131  15.549  69.035  1.00  0.00    -0.102 OA 
BRANCH  14  15
HETATM   15  C   UNL     1      -5.141  14.547  68.837  1.00  0.00    -0.088 C  
BRANCH  15  16
HETATM   16  C   UNL     1      -5.788  13.265  68.341  1.00  0.00    -0.087 C  
BRANCH  16  17
HETATM   17  O   UNL     1      -6.769  12.884  69.296  1.00  0.00    -0.109 OA 
BRANCH  17  18
HETATM   18  C   UNL     1      -8.033  13.472  69.038  1.00  0.00     0.199 C  
BRANCH  18  19
HETATM   19  C   UNL     1      -9.088  12.396  69.214  1.00  0.00     0.934 C  
BRANCH  19  20
HETATM   20  O   UNL     1      -8.792  11.290  68.372  1.00  0.00    -0.149 OA 
BRANCH  20  21
HETATM   21  C   UNL     1      -7.667  10.549  68.843  1.00  0.00    -0.117 C  
BRANCH  21  22
HETATM   22  C   UNL     1      -6.957   9.837  67.686  1.00  0.00    -0.086 C  
BRANCH  22  23
HETATM   23  O   UNL     1      -7.766   9.596  66.506  1.00  0.00    -0.097 OA 
BRANCH  23  24
HETATM   24  C   UNL     1      -8.914   8.740  66.725  1.00  0.00    -0.135 C  
HETATM   25  C   UNL     1      -8.977   7.672  65.670  1.00  0.00    -0.036 C  
HETATM   26  C   UNL     1      -8.205   6.282  66.057  1.00  0.00    -0.125 C  
HETATM   27  C   UNL     1      -8.467   5.584  67.527  1.00  0.00    -0.106 C  
HETATM   28  C   UNL     1      -9.276   4.220  68.041  1.00  0.00    -0.142 C  
HETATM   29  O   UNL     1      -7.186   5.639  68.171  1.00  0.00    -0.069 OA 
HETATM   30  C   UNL     1      -9.205   3.847  69.525  1.00  0.00    -0.226 C  
HETATM   31  H   UNL     1      -7.337   5.237  69.018  1.00  0.00     0.000 HD 
HETATM   32  C   UNL     1      -9.561   5.128  70.239  1.00  0.00    -0.249 A  
HETATM   33  C   UNL     1      -9.559   5.223  71.617  1.00  0.00    -0.197 A  
HETATM   34  C   UNL     1      -9.554   6.457  72.250  1.00  0.00    -0.155 A  
HETATM   35  C   UNL     1      -9.521   7.658  71.485  1.00  0.00    -0.143 A  
HETATM   36  O   UNL     1      -9.269   8.841  72.105  1.00  0.00    -0.305 OA 
HETATM   37  C   UNL     1      -9.647   7.574  70.100  1.00  0.00    -0.168 A  
HETATM   38  H   UNL     1      -9.248   9.643  71.595  1.00  0.00     0.000 HD 
HETATM   39  C   UNL     1      -9.718   6.335  69.449  1.00  0.00    -0.162 A  
HETATM   40  C   UNL     1      -9.550   6.491  67.962  1.00  0.00    -0.119 C  
HETATM   41  C   UNL     1      -8.917   7.957  68.057  1.00  0.00    -0.127 C  
HETATM   42  C   UNL     1     -10.774   5.828  66.813  1.00  0.00    -0.369 C  
HETATM   43  O   UNL     1      -9.519   8.621  69.201  1.00  0.00    -0.156 OA 
HETATM   44  C   UNL     1     -10.403   4.202  66.140  1.00  0.00     0.091 C  
HETATM   45  N   UNL     1      -9.604   3.298  67.001  1.00  0.00    -0.124 NA 
BRANCH  45  46
HETATM   46  C   UNL     1      -8.367   2.681  66.555  1.00  0.00    -0.091 C  
BRANCH  46  47
HETATM   47  C   UNL     1      -7.635   1.912  67.604  1.00  0.00    -0.059 C  
HETATM   48  C   UNL     1      -6.307   1.764  67.608  1.00  0.00    -0.024 C  
ENDBRANCH  46  47
ENDBRANCH  45  46
ENDBRANCH  23  24
ENDBRANCH  22  23
ENDBRANCH  21  22
ENDBRANCH  20  21
ENDBRANCH  19  20
ENDBRANCH  18  19
ENDBRANCH  17  18
ENDBRANCH  16  17
ENDBRANCH  15  16
ENDBRANCH  14  15
ENDBRANCH  13  14
ENDBRANCH  12  13
ENDBRANCH  11  12
ENDBRANCH  10  11
ENDBRANCH   9  10
ENDBRANCH   8   9
ENDBRANCH   7   8
ENDBRANCH   6   7
ENDBRANCH   5   6
ENDBRANCH   4   5
ENDBRANCH   3   4
ENDBRANCH   2   3
TORSDOF 24
ENDMDL
MODEL      212
REMARK 921   NORMALIZED FREE ENERGY PREDICTED BY IDOCK:    5.55 KCAL/MOL
REMARK 922        TOTAL FREE ENERGY PREDICTED BY IDOCK:   11.05 KCAL/MOL
REMARK 923 INTER-LIGAND FREE ENERGY PREDICTED BY IDOCK:    0.64 KCAL/MOL
REMARK 924 INTRA-LIGAND FREE ENERGY PREDICTED BY IDOCK:   10.41 KCAL/MOL
REMARK 927      BINDING AFFINITY PREDICTED BY RF-SCORE:    0.00 PKD
ROOT
HETATM    1  C   UNL     1     -12.601  16.694  66.965  1.00  0.00     3.839 C  
HETATM    2  O   UNL     1     -11.831  17.157  68.066  1.00  0.00     0.588 OA 
ENDROOT
BRANCH   2   3
HETATM    3  C   UNL     1     -10.505  17.497  67.665  1.00  0.00    -0.370 C  
BRANCH   3   4
HETATM    4  C   UNL     1      -9.808  18.232  68.801  1.00  0.00    -0.357 C  
BRANCH   4   5
HETATM    5  O   UNL     1      -8.629  17.516  69.164  1.00  0.00    -0.087 OA 
BRANCH   5   6
HETATM    6  C   UNL     1      -8.374  16.454  68.248  1.00  0.00    -0.189 C  
BRANCH   6   7
HETATM    7  C   UNL     1      -7.416  15.459  68.880  1.00  0.00    -0.152 C  
BRANCH   7   8
HETATM    8  O   UNL     1      -6.767  14.735  67.837  1.00  0.00    -0.131 OA 
BRANCH   8   9
HETATM    9  C   UNL     1      -7.683  14.371  66.812  1.00  0.00     0.528 C  
BRANCH   9  10
HETATM   10  C   UNL     1      -8.425  15.614  66.352  1.00  0.00    -0.236 C  
BRANCH  10  11
HETATM   11  O   UNL     1      -9.775  15.259  66.083  1.00  0.00    -0.269 OA 
BRANCH  11  12
HETATM   12  C   UNL     1      -9.927  13.848  65.973  1.00  0.00    -0.310 C  
BRANCH  12  13
HETATM   13  C   UNL     1     -11.212  13.444  66.675  1.00  0.00    -0.309 C  
BRANCH  13  14
HETATM   14  O   UNL     1     -11.713  12.251  66.090  1.00  0.00    -0.412 OA 
BRANCH  14  15
HETATM   15  C   UNL     1     -11.290  11.116  66.837  1.00  0.00    -0.090 C  
BRANCH  15  16
HETATM   16  C   UNL     1     -10.331  11.542  67.935  1.00  0.00    -0.183 C  
BRANCH  16  17
HETATM   17  O   UNL     1     -11.036  11.477  69.167  1.00  0.00    -0.233 OA 
BRANCH  17  18
HETATM   18  C   UNL     1     -11.894  10.350  69.243  1.00  0.00    -0.093 C  
BRANCH  18  19
HETATM   19  C   UNL     1     -11.045   9.147  69.608  1.00  0.00    -0.087 C  
BRANCH  19  20
HETATM   20  O   UNL     1      -9.683   9.537  69.722  1.00  0.00    -0.186 OA 
BRANCH  20  21
HETATM   21  C   UNL     1      -9.547  10.943  69.924  1.00  0.00     0.681 C  
BRANCH  21  22
HETATM   22  C   UNL     1      -8.089  11.382  69.746  1.00  0.00     0.987 C  
BRANCH  22  23
HETATM   23  O   UNL     1      -7.670  11.627  68.379  1.00  0.00    -0.116 OA 
BRANCH  23  24
HETATM   24  C   UNL     1      -6.841  10.587  67.806  1.00  0.00    -0.073 C  
HETATM   25  C   UNL     1      -6.648   9.470  68.793  1.00  0.00    -0.051 C  
HETATM   26  C   UNL     1      -7.756   8.270  68.694  1.00  0.00    -0.114 C  
HETATM   27  C   UNL     1      -8.122   7.615  67.227  1.00  0.00    -0.119 C  
HETATM   28  C   UNL     1      -7.800   6.154  66.491  1.00  0.00    -0.104 C  
HETATM   29  O   UNL     1      -9.506   7.940  67.036  1.00  0.00    -0.154 OA 
HETATM   30  C   UNL     1      -8.416   5.880  65.116  1.00  0.00    -0.130 C  
HETATM   31  H   UNL     1      -9.716   7.562  66.190  1.00  0.00     0.000 HD 
HETATM   32  C   UNL     1      -8.070   7.109  64.311  1.00  0.00    -0.043 A  
HETATM   33  C   UNL     1      -8.497   7.275  63.008  1.00  0.00     0.264 A  
HETATM   34  C   UNL     1      -8.469   8.521  62.399  1.00  0.00    -0.174 A  
HETATM   35  C   UNL     1      -8.021   9.665  63.120  1.00  0.00    -0.140 A  
HETATM   36  O   UNL     1      -8.227  10.906  62.604  1.00  0.00    -0.295 OA 
HETATM   37  C   UNL     1      -7.475   9.486  64.389  1.00  0.00    -0.118 A  
HETATM   38  H   UNL     1      -7.929  11.669  63.085  1.00  0.00     0.000 HD 
HETATM   39  C   UNL     1      -7.437   8.222  64.994  1.00  0.00    -0.090 A  
HETATM   40  C   UNL     1      -7.084   8.327  66.453  1.00  0.00    -0.071 C  
HETATM   41  C   UNL     1      -7.419   9.888  66.555  1.00  0.00    -0.100 C  
HETATM   42  C   UNL     1      -5.706   7.389  67.145  1.00  0.00    -0.030 C  
HETATM   43  O   UNL     1      -7.102  10.489  65.269  1.00  0.00    -0.124 OA 
HETATM   44  C   UNL     1      -6.146   5.827  67.921  1.00  0.00    -0.022 C  
HETATM   45  N   UNL     1      -7.338   5.133  67.377  1.00  0.00    -0.081 NA 
BRANCH  45  46
HETATM   46  C   UNL     1      -8.459   4.733  68.209  1.00  0.00    -0.098 C  
BRANCH  46  47
HETATM   47  C   UNL     1      -8.322   5.077  69.655  1.00  0.00    -0.088 C  
HETATM   48  C   UNL     1      -9.333   4.993  70.525  1.00  0.00    -0.213 C  
ENDBRANCH  46  47
ENDBRANCH  45  46
ENDBRANCH  23  24
ENDBRANCH  22  23
ENDBRANCH  21  22
ENDBRANCH  20  21
ENDBRANCH  19  20
ENDBRANCH  18  19
ENDBRANCH  17  18
ENDBRANCH  16  17
ENDBRANCH  15  16
ENDBRANCH  14  15
ENDBRANCH  13  14
ENDBRANCH  12  13
ENDBRANCH  11  12
ENDBRANCH  10  11
ENDBRANCH   9  10
ENDBRANCH   8   9
ENDBRANCH   7   8
ENDBRANCH   6   7
ENDBRANCH   5   6
ENDBRANCH   4   5
ENDBRANCH   3   4
ENDBRANCH   2   3
TORSDOF 24
ENDMDL
MODEL      213
REMARK 921   NORMALIZED FREE ENERGY PREDICTED BY IDOCK:    6.39 KCAL/MOL
REMARK 922        TOTAL FREE ENERGY PREDICTED BY IDOCK:   13.05 KCAL/MOL
REMARK 923 INTER-LIGAND FREE ENERGY PREDICTED BY IDOCK:    6.64 KCAL/MOL
REMARK 924 INTRA-LIGAND FREE ENERGY PREDICTED BY IDOCK:    6.41 KCAL/MOL
REMARK 927      BINDING AFFINITY PREDICTED BY RF-SCORE:    0.00 PKD
ROOT
HETATM    1  C   UNL     1     -11.501  20.264  68.237  1.00  0.00     1.946 C  
HETATM    2  O   UNL     1     -11.844  19.188  67.375  1.00  0.00     0.948 OA 
ENDROOT
BRANCH   2   3
HETATM    3  C   UNL     1     -12.043  17.980  68.107  1.00  0.00     3.321 C  
BRANCH   3   4
HETATM    4  C   UNL     1     -10.871  17.767  69.054  1.00  0.00     0.359 C  
BRANCH   4   5
HETATM    5  O   UNL     1     -10.937  16.444  69.585  1.00  0.00    -0.323 OA 
BRANCH   5   6
HETATM    6  C   UNL     1     -10.525  15.484  68.615  1.00  0.00    -0.237 C  
BRANCH   6   7
HETATM    7  C   UNL     1      -9.194  14.882  69.032  1.00  0.00    -0.176 C  
BRANCH   7   8
HETATM    8  O   UNL     1      -8.396  14.703  67.864  1.00  0.00    -0.137 OA 
BRANCH   8   9
HETATM    9  C   UNL     1      -7.985  13.348  67.719  1.00  0.00    -0.167 C  
BRANCH   9  10
HETATM   10  C   UNL     1      -9.089  12.443  68.237  1.00  0.00    -0.183 C  
BRANCH  10  11
HETATM   11  O   UNL     1      -9.433  11.519  67.212  1.00  0.00    -0.167 OA 
BRANCH  11  12
HETATM   12  C   UNL     1      -8.844  10.245  67.445  1.00  0.00    -0.131 C  
BRANCH  12  13
HETATM   13  C   UNL     1      -9.700   9.186  66.773  1.00  0.00    -0.210 C  
BRANCH  13  14
HETATM   14  O   UNL     1      -9.957   9.571  65.430  1.00  0.00    -0.284 OA 
BRANCH  14  15
HETATM   15  C   UNL     1      -8.948  10.460  64.967  1.00  0.00    -0.195 C  
BRANCH  15  16
HETATM   16  C   UNL     1      -7.581   9.984  65.429  1.00  0.00    -0.138 C  
BRANCH  16  17
HETATM   17  O   UNL     1      -6.915  11.097  66.011  1.00  0.00    -0.068 OA 
BRANCH  17  18
HETATM   18  C   UNL     1      -5.512  10.908  66.091  1.00  0.00    -0.132 C  
BRANCH  18  19
HETATM   19  C   UNL     1      -5.265   9.528  66.671  1.00  0.00    -0.044 C  
BRANCH  19  20
HETATM   20  O   UNL     1      -6.486   8.982  67.150  1.00  0.00    -0.059 OA 
BRANCH  20  21
HETATM   21  C   UNL     1      -6.543   7.568  66.972  1.00  0.00    -0.062 C  
BRANCH  21  22
HETATM   22  C   UNL     1      -5.159   7.003  66.631  1.00  0.00    -0.021 C  
BRANCH  22  23
HETATM   23  O   UNL     1      -5.143   5.920  65.666  1.00  0.00    -0.009 OA 
BRANCH  23  24
HETATM   24  C   UNL     1      -5.375   4.606  66.229  1.00  0.00    -0.009 C  
HETATM   25  C   UNL     1      -5.377   4.675  67.730  1.00  0.00    -0.012 C  
HETATM   26  C   UNL     1      -6.848   4.927  68.401  1.00  0.00    -0.055 C  
HETATM   27  C   UNL     1      -8.133   4.017  67.917  1.00  0.00    -0.089 C  
HETATM   28  C   UNL     1      -9.023   2.792  68.615  1.00  0.00    -0.136 C  
HETATM   29  O   UNL     1      -9.030   4.969  67.327  1.00  0.00    -0.113 OA 
HETATM   30  C   UNL     1     -10.241   2.254  67.858  1.00  0.00     1.799 C  
HETATM   31  H   UNL     1      -9.771   4.444  67.047  1.00  0.00     0.000 HD 
HETATM   32  C   UNL     1      -9.712   1.972  66.473  1.00  0.00     0.569 A  
HETATM   33  C   UNL     1     -10.528   1.513  65.457  1.00  0.00     1.921 A  
HETATM   34  C   UNL     1     -10.125   1.577  64.131  1.00  0.00     0.018 A  
HETATM   35  C   UNL     1      -8.866   2.146  63.789  1.00  0.00    -0.090 A  
HETATM   36  O   UNL     1      -8.589   2.427  62.487  1.00  0.00    -0.073 OA 
HETATM   37  C   UNL     1      -7.988   2.497  64.812  1.00  0.00    -0.081 A  
HETATM   38  H   UNL     1      -7.748   2.806  62.258  1.00  0.00     0.000 HD 
HETATM   39  C   UNL     1      -8.355   2.378  66.159  1.00  0.00    -0.094 A  
HETATM   40  C   UNL     1      -7.375   3.086  67.055  1.00  0.00    -0.062 C  
HETATM   41  C   UNL     1      -6.734   3.961  65.879  1.00  0.00    -0.045 C  
HETATM   42  C   UNL     1      -6.578   2.224  68.425  1.00  0.00    -0.029 C  
HETATM   43  O   UNL     1      -6.783   3.164  64.664  1.00  0.00    -0.038 OA 
HETATM   44  C   UNL     1      -7.365   2.428  70.030  1.00  0.00    -0.043 C  
HETATM   45  N   UNL     1      -8.831   2.648  70.023  1.00  0.00    -0.074 NA 
BRANCH  45  46
HETATM   46  C   UNL     1      -9.455   3.789  70.670  1.00  0.00    -0.170 C  
BRANCH  46  47
HETATM   47  C   UNL     1      -8.794   4.234  71.932  1.00  0.00    -0.137 C  
HETATM   48  C   UNL     1      -9.255   5.239  72.684  1.00  0.00    -0.144 C  
ENDBRANCH  46  47
ENDBRANCH  45  46
ENDBRANCH  23  24
ENDBRANCH  22  23
ENDBRANCH  21  22
ENDBRANCH  20  21
ENDBRANCH  19  20
ENDBRANCH  18  19
ENDBRANCH  17  18
ENDBRANCH  16  17
ENDBRANCH  15  16
ENDBRANCH  14  15
ENDBRANCH  13  14
ENDBRANCH  12  13
ENDBRANCH  11  12
ENDBRANCH  10  11
ENDBRANCH   9  10
ENDBRANCH   8   9
ENDBRANCH   7   8
ENDBRANCH   6   7
ENDBRANCH   5   6
ENDBRANCH   4   5
ENDBRANCH   3   4
ENDBRANCH   2   3
TORSDOF 24
ENDMDL
MODEL      214
REMARK 921   NORMALIZED FREE ENERGY PREDICTED BY IDOCK:    6.86 KCAL/MOL
REMARK 922        TOTAL FREE ENERGY PREDICTED BY IDOCK:   14.19 KCAL/MOL
REMARK 923 INTER-LIGAND FREE ENERGY PREDICTED BY IDOCK:    0.13 KCAL/MOL
REMARK 924 INTRA-LIGAND FREE ENERGY PREDICTED BY IDOCK:   14.06 KCAL/MOL
REMARK 927      BINDING AFFINITY PREDICTED BY RF-SCORE:    0.00 PKD
ROOT
HETATM    1  C   UNL     1     -12.380  14.924  66.552  1.00  0.00     0.272 C  
HETATM    2  O   UNL     1     -12.734  16.252  66.910  1.00  0.00     2.684 OA 
ENDROOT
BRANCH   2   3
HETATM    3  C   UNL     1     -11.744  17.186  66.483  1.00  0.00     1.928 C  
BRANCH   3   4
HETATM    4  C   UNL     1     -11.243  17.973  67.684  1.00  0.00     0.303 C  
BRANCH   4   5
HETATM    5  O   UNL     1      -9.990  17.434  68.103  1.00  0.00    -0.278 OA 
BRANCH   5   6
HETATM    6  C   UNL     1      -9.157  17.149  66.983  1.00  0.00    -0.230 C  
BRANCH   6   7
HETATM    7  C   UNL     1      -8.204  16.019  67.334  1.00  0.00    -0.167 C  
BRANCH   7   8
HETATM    8  O   UNL     1      -8.971  14.910  67.795  1.00  0.00    -0.171 OA 
BRANCH   8   9
HETATM    9  C   UNL     1     -10.214  14.819  67.110  1.00  0.00    -0.245 C  
BRANCH   9  10
HETATM   10  C   UNL     1     -10.068  13.843  65.955  1.00  0.00    -0.313 C  
BRANCH  10  11
HETATM   11  O   UNL     1     -10.027  12.523  66.483  1.00  0.00    -0.233 OA 
BRANCH  11  12
HETATM   12  C   UNL     1      -8.990  11.758  65.881  1.00  0.00    -0.059 C  
BRANCH  12  13
HETATM   13  C   UNL     1      -8.425  10.806  66.921  1.00  0.00    -0.131 C  
BRANCH  13  14
HETATM   14  O   UNL     1      -7.545  11.517  67.781  1.00  0.00    -0.101 OA 
BRANCH  14  15
HETATM   15  C   UNL     1      -7.997  11.438  69.128  1.00  0.00     0.055 C  
BRANCH  15  16
HETATM   16  C   UNL     1      -8.785  10.157  69.340  1.00  0.00    -0.176 C  
BRANCH  16  17
HETATM   17  O   UNL     1     -10.042  10.517  69.899  1.00  0.00    -0.165 OA 
BRANCH  17  18
HETATM   18  C   UNL     1     -10.413  11.849  69.585  1.00  0.00     0.527 C  
BRANCH  18  19
HETATM   19  C   UNL     1     -11.902  11.986  69.843  1.00  0.00    -0.331 C  
BRANCH  19  20
HETATM   20  O   UNL     1     -12.609  10.983  69.128  1.00  0.00    -0.378 OA 
BRANCH  20  21
HETATM   21  C   UNL     1     -12.252   9.670  69.559  1.00  0.00     0.774 C  
BRANCH  21  22
HETATM   22  C   UNL     1     -11.529   9.716  70.910  1.00  0.00    -0.353 C  
BRANCH  22  23
HETATM   23  O   UNL     1     -11.835   8.632  71.824  1.00  0.00    -0.293 OA 
BRANCH  23  24
HETATM   24  C   UNL     1     -10.893   7.532  71.792  1.00  0.00    -0.227 C  
HETATM   25  C   UNL     1     -11.513   6.333  71.130  1.00  0.00    -0.362 C  
HETATM   26  C   UNL     1     -11.266   6.239  69.516  1.00  0.00    -0.500 C  
HETATM   27  C   UNL     1      -9.748   6.446  68.909  1.00  0.00    -0.126 C  
HETATM   28  C   UNL     1      -8.614   5.427  68.232  1.00  0.00    -0.096 C  
HETATM   29  O   UNL     1      -9.854   7.629  68.104  1.00  0.00    -0.155 OA 
HETATM   30  C   UNL     1      -7.322   6.039  67.684  1.00  0.00    -0.077 C  
HETATM   31  H   UNL     1      -8.978   7.748  67.754  1.00  0.00     0.000 HD 
HETATM   32  C   UNL     1      -6.827   6.913  68.810  1.00  0.00    -0.066 A  
HETATM   33  C   UNL     1      -5.690   7.689  68.689  1.00  0.00    -0.027 A  
HETATM   34  C   UNL     1      -5.433   8.724  69.577  1.00  0.00    -0.034 A  
HETATM   35  C   UNL     1      -6.356   9.025  70.619  1.00  0.00    -0.049 A  
HETATM   36  O   UNL     1      -6.220  10.181  71.322  1.00  0.00    -0.309 OA 
HETATM   37  C   UNL     1      -7.439   8.172  70.822  1.00  0.00    -0.066 A  
HETATM   38  H   UNL     1      -6.836  10.382  72.017  1.00  0.00     0.000 HD 
HETATM   39  C   UNL     1      -7.678   7.083  69.973  1.00  0.00    -0.104 A  
HETATM   40  C   UNL     1      -9.044   6.500  70.207  1.00  0.00    -0.155 C  
HETATM   41  C   UNL     1      -9.601   7.783  70.983  1.00  0.00    -0.159 C  
HETATM   42  C   UNL     1      -9.256   4.744  70.568  1.00  0.00    -0.195 C  
HETATM   43  O   UNL     1      -8.487   8.376  71.704  1.00  0.00    -0.134 OA 
HETATM   44  C   UNL     1      -9.649   3.705  69.153  1.00  0.00    -0.102 C  
HETATM   45  N   UNL     1      -9.123   4.151  67.841  1.00  0.00    -0.126 NA 
BRANCH  45  46
HETATM   46  C   UNL     1      -9.975   4.354  66.683  1.00  0.00    -0.210 C  
BRANCH  46  47
HETATM   47  C   UNL     1     -10.300   5.781  66.385  1.00  0.00    -0.207 C  
HETATM   48  C   UNL     1     -11.534   6.286  66.488  1.00  0.00     0.702 C  
ENDBRANCH  46  47
ENDBRANCH  45  46
ENDBRANCH  23  24
ENDBRANCH  22  23
ENDBRANCH  21  22
ENDBRANCH  20  21
ENDBRANCH  19  20
ENDBRANCH  18  19
ENDBRANCH  17  18
ENDBRANCH  16  17
ENDBRANCH  15  16
ENDBRANCH  14  15
ENDBRANCH  13  14
ENDBRANCH  12  13
ENDBRANCH  11  12
ENDBRANCH  10  11
ENDBRANCH   9  10
ENDBRANCH   8   9
ENDBRANCH   7   8
ENDBRANCH   6   7
ENDBRANCH   5   6
ENDBRANCH   4   5
ENDBRANCH   3   4
ENDBRANCH   2   3
TORSDOF 24
ENDMDL
MODEL      215
REMARK 921   NORMALIZED FREE ENERGY PREDICTED BY IDOCK:    7.90 KCAL/MOL
REMARK 922        TOTAL FREE ENERGY PREDICTED BY IDOCK:   16.69 KCAL/MOL
REMARK 923 INTER-LIGAND FREE ENERGY PREDICTED BY IDOCK:    9.26 KCAL/MOL
REMARK 924 INTRA-LIGAND FREE ENERGY PREDICTED BY IDOCK:    7.43 KCAL/MOL
REMARK 927      BINDING AFFINITY PREDICTED BY RF-SCORE:    0.00 PKD
ROOT
HETATM    1  C   UNL     1     -11.453  16.292  65.230  1.00  0.00     0.271 C  
HETATM    2  O   UNL     1     -12.341  15.947  66.284  1.00  0.00     1.297 OA 
ENDROOT
BRANCH   2   3
HETATM    3  C   UNL     1     -12.067  16.704  67.461  1.00  0.00     1.523 C  
BRANCH   3   4
HETATM    4  C   UNL     1     -12.777  18.047  67.372  1.00  0.00     6.060 C  
BRANCH   4   5
HETATM    5  O   UNL     1     -12.232  18.790  66.283  1.00  0.00     3.464 OA 
BRANCH   5   6
HETATM    6  C   UNL     1     -11.255  19.721  66.739  1.00  0.00     0.185 C  
BRANCH   6   7
HETATM    7  C   UNL     1      -9.967  19.530  65.954  1.00  0.00    -0.305 C  
BRANCH   7   8
HETATM    8  O   UNL     1      -9.922  18.184  65.486  1.00  0.00    -0.440 OA 
BRANCH   8   9
HETATM    9  C   UNL     1      -9.426  17.303  66.486  1.00  0.00    -0.269 C  
BRANCH   9  10
HETATM   10  C   UNL     1      -9.391  18.039  67.814  1.00  0.00    -0.263 C  
BRANCH  10  11
HETATM   11  O   UNL     1      -8.034  18.171  68.220  1.00  0.00    -0.276 OA 
BRANCH  11  12
HETATM   12  C   UNL     1      -7.178  18.379  67.103  1.00  0.00    -0.204 C  
BRANCH  12  13
HETATM   13  C   UNL     1      -6.388  17.106  66.856  1.00  0.00    -0.202 C  
BRANCH  13  14
HETATM   14  O   UNL     1      -6.156  16.448  68.094  1.00  0.00    -0.110 OA 
BRANCH  14  15
HETATM   15  C   UNL     1      -5.201  15.406  67.930  1.00  0.00    -0.113 C  
BRANCH  15  16
HETATM   16  C   UNL     1      -5.900  14.109  67.561  1.00  0.00     0.127 C  
BRANCH  16  17
HETATM   17  O   UNL     1      -5.708  13.199  68.636  1.00  0.00    -0.069 OA 
BRANCH  17  18
HETATM   18  C   UNL     1      -6.723  13.302  69.620  1.00  0.00     0.071 C  
BRANCH  18  19
HETATM   19  C   UNL     1      -7.119  11.894  70.024  1.00  0.00     0.754 C  
BRANCH  19  20
HETATM   20  O   UNL     1      -7.494  11.151  68.872  1.00  0.00    -0.109 OA 
BRANCH  20  21
HETATM   21  C   UNL     1      -6.359  10.631  68.182  1.00  0.00    -0.058 C  
BRANCH  21  22
HETATM   22  C   UNL     1      -6.668  10.430  66.694  1.00  0.00    -0.090 C  
BRANCH  22  23
HETATM   23  O   UNL     1      -8.071  10.280  66.358  1.00  0.00    -0.116 OA 
BRANCH  23  24
HETATM   24  C   UNL     1      -8.719   9.137  66.967  1.00  0.00    -0.123 C  
HETATM   25  C   UNL     1      -9.481   8.357  65.933  1.00  0.00    -0.169 C  
HETATM   26  C   UNL     1      -8.631   7.155  65.219  1.00  0.00    -0.000 C  
HETATM   27  C   UNL     1      -7.774   6.097  66.147  1.00  0.00    -0.099 C  
HETATM   28  C   UNL     1      -7.964   4.494  66.562  1.00  0.00    -0.103 C  
HETATM   29  O   UNL     1      -6.411   6.323  65.763  1.00  0.00    -0.036 OA 
HETATM   30  C   UNL     1      -6.866   3.822  67.392  1.00  0.00    -0.054 C  
HETATM   31  H   UNL     1      -5.917   5.713  66.299  1.00  0.00     0.000 HD 
HETATM   32  C   UNL     1      -6.646   4.774  68.542  1.00  0.00    -0.046 A  
HETATM   33  C   UNL     1      -5.681   4.549  69.505  1.00  0.00    -0.017 A  
HETATM   34  C   UNL     1      -5.259   5.567  70.348  1.00  0.00    -0.005 A  
HETATM   35  C   UNL     1      -5.796   6.879  70.216  1.00  0.00    -0.024 A  
HETATM   36  O   UNL     1      -5.206   7.914  70.872  1.00  0.00    -0.026 OA 
HETATM   37  C   UNL     1      -6.854   7.085  69.333  1.00  0.00    -0.054 A  
HETATM   38  H   UNL     1      -5.564   8.789  70.784  1.00  0.00     0.000 HD 
HETATM   39  C   UNL     1      -7.336   6.050  68.520  1.00  0.00    -0.085 A  
HETATM   40  C   UNL     1      -8.260   6.579  67.457  1.00  0.00    -0.121 C  
HETATM   41  C   UNL     1      -7.772   8.095  67.604  1.00  0.00    -0.102 C  
HETATM   42  C   UNL     1      -9.925   5.911  67.257  1.00  0.00    -0.179 C  
HETATM   43  O   UNL     1      -7.413   8.307  68.996  1.00  0.00    -0.086 OA 
HETATM   44  C   UNL     1     -10.099   4.628  66.007  1.00  0.00    -0.264 C  
HETATM   45  N   UNL     1      -8.908   3.781  65.761  1.00  0.00    -0.119 NA 
BRANCH  45  46
HETATM   46  C   UNL     1      -8.325   3.614  64.441  1.00  0.00    -0.093 C  
BRANCH  46  47
HETATM   47  C   UNL     1      -7.052   2.835  64.411  1.00  0.00    -0.049 C  
HETATM   48  C   UNL     1      -6.098   3.029  63.494  1.00  0.00    -0.014 C  
ENDBRANCH  46  47
ENDBRANCH  45  46
ENDBRANCH  23  24
ENDBRANCH  22  23
ENDBRANCH  21  22
ENDBRANCH  20  21
ENDBRANCH  19  20
ENDBRANCH  18  19
ENDBRANCH  17  18
ENDBRANCH  16  17
ENDBRANCH  15  16
ENDBRANCH  14  15
ENDBRANCH  13  14
ENDBRANCH  12  13
ENDBRANCH  11  12
ENDBRANCH  10  11
ENDBRANCH   9  10
ENDBRANCH   8   9
ENDBRANCH   7   8
ENDBRANCH   6   7
ENDBRANCH   5   6
ENDBRANCH   4   5
ENDBRANCH   3   4
ENDBRANCH   2   3
TORSDOF 24
ENDMDL
MODEL      216
REMARK 921   NORMALIZED FREE ENERGY PREDICTED BY IDOCK:    8.07 KCAL/MOL
REMARK 922        TOTAL FREE ENERGY PREDICTED BY IDOCK:   17.10 KCAL/MOL
REMARK 923 INTER-LIGAND FREE ENERGY PREDICTED BY IDOCK:    0.25 KCAL/MOL
REMARK 924 INTRA-LIGAND FREE ENERGY PREDICTED BY IDOCK:   16.85 KCAL/MOL
REMARK 927      BINDING AFFINITY PREDICTED BY RF-SCORE:    0.00 PKD
ROOT
HETATM    1  C   UNL     1     -13.150   9.233  70.633  1.00  0.00     0.283 C  
HETATM    2  O   UNL     1     -12.051  10.070  70.298  1.00  0.00    -0.234 OA 
ENDROOT
BRANCH   2   3
HETATM    3  C   UNL     1     -11.738   9.983  68.910  1.00  0.00     0.204 C  
BRANCH   3   4
HETATM    4  C   UNL     1     -11.602   8.519  68.516  1.00  0.00     1.432 C  
BRANCH   4   5
HETATM    5  O   UNL     1     -11.194   7.767  69.658  1.00  0.00    -0.110 OA 
BRANCH   5   6
HETATM    6  C   UNL     1     -11.549   6.394  69.517  1.00  0.00    -0.233 C  
BRANCH   6   7
HETATM    7  C   UNL     1     -10.547   5.532  70.267  1.00  0.00    -0.287 C  
BRANCH   7   8
HETATM    8  O   UNL     1      -9.727   4.862  69.312  1.00  0.00    -0.156 OA 
BRANCH   8   9
HETATM    9  C   UNL     1      -8.856   5.770  68.648  1.00  0.00    -0.110 C  
BRANCH   9  10
HETATM   10  C   UNL     1      -9.675   6.928  68.106  1.00  0.00    -0.131 C  
BRANCH  10  11
HETATM   11  O   UNL     1      -9.088   8.143  68.552  1.00  0.00    -0.137 OA 
BRANCH  11  12
HETATM   12  C   UNL     1      -9.040   9.108  67.508  1.00  0.00    -0.124 C  
BRANCH  12  13
HETATM   13  C   UNL     1      -7.630   9.668  67.431  1.00  0.00    -0.095 C  
BRANCH  13  14
HETATM   14  O   UNL     1      -7.074   9.372  66.157  1.00  0.00    -0.089 OA 
BRANCH  14  15
HETATM   15  C   UNL     1      -5.799   8.759  66.304  1.00  0.00    -0.051 C  
BRANCH  15  16
HETATM   16  C   UNL     1      -5.616   7.674  65.256  1.00  0.00    -0.033 C  
BRANCH  16  17
HETATM   17  O   UNL     1      -6.542   7.932  64.209  1.00  0.00    -0.059 OA 
BRANCH  17  18
HETATM   18  C   UNL     1      -6.845   9.312  64.081  1.00  0.00    -0.091 C  
BRANCH  18  19
HETATM   19  C   UNL     1      -5.556  10.088  64.272  1.00  0.00    -0.108 C  
BRANCH  19  20
HETATM   20  O   UNL     1      -5.374  10.388  65.649  1.00  0.00    -0.063 OA 
BRANCH  20  21
HETATM   21  C   UNL     1      -5.129  11.777  65.863  1.00  0.00     0.591 C  
BRANCH  21  22
HETATM   22  C   UNL     1      -6.422  12.588  65.723  1.00  0.00     3.831 C  
BRANCH  22  23
HETATM   23  O   UNL     1      -7.007  13.056  66.965  1.00  0.00    -0.009 OA 
BRANCH  23  24
HETATM   24  C   UNL     1      -8.225  13.825  66.807  1.00  0.00     0.210 C  
HETATM   25  C   UNL     1      -9.316  13.257  67.669  1.00  0.00    -0.212 C  
HETATM   26  C   UNL     1      -9.416  13.912  69.166  1.00  0.00     0.280 C  
HETATM   27  C   UNL     1      -9.407  15.550  69.343  1.00  0.00    -0.279 C  
HETATM   28  C   UNL     1     -10.559  16.684  69.752  1.00  0.00    -0.227 C  
HETATM   29  O   UNL     1      -8.208  15.812  70.085  1.00  0.00     0.358 OA 
HETATM   30  C   UNL     1     -10.120  18.143  69.910  1.00  0.00     0.786 C  
HETATM   31  H   UNL     1      -8.202  16.757  70.187  1.00  0.00     0.000 HD 
HETATM   32  C   UNL     1      -9.340  18.427  68.650  1.00  0.00    -0.339 A  
HETATM   33  C   UNL     1      -8.723  19.643  68.428  1.00  0.00    -0.357 A  
HETATM   34  C   UNL     1      -7.748  19.783  67.452  1.00  0.00    -0.307 A  
HETATM   35  C   UNL     1      -7.343  18.662  66.673  1.00  0.00    -0.229 A  
HETATM   36  O   UNL     1      -6.228  18.752  65.900  1.00  0.00    -0.181 OA 
HETATM   37  C   UNL     1      -8.043  17.466  66.805  1.00  0.00    -0.250 A  
HETATM   38  H   UNL     1      -5.957  18.004  65.380  1.00  0.00     0.000 HD 
HETATM   39  C   UNL     1      -9.075  17.325  67.743  1.00  0.00    -0.235 A  
HETATM   40  C   UNL     1      -9.472  15.883  67.905  1.00  0.00    -0.213 C  
HETATM   41  C   UNL     1      -8.137  15.307  67.235  1.00  0.00    -0.201 C  
HETATM   42  C   UNL     1     -11.188  15.362  67.704  1.00  0.00    -0.311 C  
HETATM   43  O   UNL     1      -7.713  16.255  66.218  1.00  0.00    -0.233 OA 
HETATM   44  C   UNL     1     -12.140  15.232  69.225  1.00  0.00    -0.249 C  
HETATM   45  N   UNL     1     -11.747  16.141  70.329  1.00  0.00    -0.272 NA 
BRANCH  45  46
HETATM   46  C   UNL     1     -11.411  15.660  71.657  1.00  0.00    -0.368 C  
BRANCH  46  47
HETATM   47  C   UNL     1     -12.020  16.435  72.778  1.00  0.00    -0.585 C  
HETATM   48  C   UNL     1     -13.218  16.149  73.298  1.00  0.00    -0.559 C  
ENDBRANCH  46  47
ENDBRANCH  45  46
ENDBRANCH  23  24
ENDBRANCH  22  23
ENDBRANCH  21  22
ENDBRANCH  20  21
ENDBRANCH  19  20
ENDBRANCH  18  19
ENDBRANCH  17  18
ENDBRANCH  16  17
ENDBRANCH  15  16
ENDBRANCH  14  15
ENDBRANCH  13  14
ENDBRANCH  12  13
ENDBRANCH  11  12
ENDBRANCH  10  11
ENDBRANCH   9  10
ENDBRANCH   8   9
ENDBRANCH   7   8
ENDBRANCH   6   7
ENDBRANCH   5   6
ENDBRANCH   4   5
ENDBRANCH   3   4
ENDBRANCH   2   3
TORSDOF 24
ENDMDL
MODEL      217
REMARK 921   NORMALIZED FREE ENERGY PREDICTED BY IDOCK:    8.86 KCAL/MOL
REMARK 922        TOTAL FREE ENERGY PREDICTED BY IDOCK:   19.00 KCAL/MOL
REMARK 923 INTER-LIGAND FREE ENERGY PREDICTED BY IDOCK:    7.33 KCAL/MOL
REMARK 924 INTRA-LIGAND FREE ENERGY PREDICTED BY IDOCK:   11.67 KCAL/MOL
REMARK 927      BINDING AFFINITY PREDICTED BY RF-SCORE:    0.00 PKD
ROOT
HETATM    1  C   UNL     1      -7.047   4.665  66.059  1.00  0.00    -0.075 C  
HETATM    2  O   UNL     1      -8.181   4.548  66.908  1.00  0.00    -0.102 OA 
ENDROOT
BRANCH   2   3
HETATM    3  C   UNL     1      -7.871   4.940  68.244  1.00  0.00    -0.082 C  
BRANCH   3   4
HETATM    4  C   UNL     1      -9.118   5.513  68.902  1.00  0.00    -0.118 C  
BRANCH   4   5
HETATM    5  O   UNL     1     -10.259   4.788  68.444  1.00  0.00    -0.094 OA 
BRANCH   5   6
HETATM    6  C   UNL     1     -11.460   5.337  68.980  1.00  0.00     2.224 C  
BRANCH   6   7
HETATM    7  C   UNL     1     -11.497   5.106  70.481  1.00  0.00     1.594 C  
BRANCH   7   8
HETATM    8  O   UNL     1     -12.755   5.560  70.975  1.00  0.00     2.190 OA 
BRANCH   8   9
HETATM    9  C   UNL     1     -12.681   5.893  72.356  1.00  0.00     0.408 C  
BRANCH   9  10
HETATM   10  C   UNL     1     -11.442   6.740  72.591  1.00  0.00    -0.180 C  
BRANCH  10  11
HETATM   11  O   UNL     1     -11.575   7.948  71.854  1.00  0.00    -0.266 OA 
BRANCH  11  12
HETATM   12  C   UNL     1     -12.801   8.604  72.153  1.00  0.00    -0.391 C  
BRANCH  12  13
HETATM   13  C   UNL     1     -13.787   8.323  71.032  1.00  0.00     0.109 C  
BRANCH  13  14
HETATM   14  O   UNL     1     -13.730   9.375  70.080  1.00  0.00     1.059 OA 
BRANCH  14  15
HETATM   15  C   UNL     1     -13.307  10.583  70.701  1.00  0.00     0.061 C  
BRANCH  15  16
HETATM   16  C   UNL     1     -12.174  11.210  69.908  1.00  0.00    -0.314 C  
BRANCH  16  17
HETATM   17  O   UNL     1     -12.258  12.618  70.082  1.00  0.00    -0.305 OA 
BRANCH  17  18
HETATM   18  C   UNL     1     -11.578  13.061  71.245  1.00  0.00     1.616 C  
BRANCH  18  19
HETATM   19  C   UNL     1     -10.431  13.949  70.800  1.00  0.00     2.441 C  
BRANCH  19  20
HETATM   20  O   UNL     1     -10.517  14.180  69.401  1.00  0.00    -0.126 OA 
BRANCH  20  21
HETATM   21  C   UNL     1     -11.861  14.098  68.929  1.00  0.00    -0.347 C  
BRANCH  21  22
HETATM   22  C   UNL     1     -11.896  13.803  67.426  1.00  0.00    -0.396 C  
BRANCH  22  23
HETATM   23  O   UNL     1     -10.821  14.386  66.645  1.00  0.00    -0.295 OA 
BRANCH  23  24
HETATM   24  C   UNL     1      -9.557  13.685  66.742  1.00  0.00    -0.275 C  
HETATM   25  C   UNL     1      -9.178  13.489  68.183  1.00  0.00    -0.208 C  
HETATM   26  C   UNL     1      -9.699  12.085  68.842  1.00  0.00     0.071 C  
HETATM   27  C   UNL     1      -9.459  10.666  68.039  1.00  0.00    -0.158 C  
HETATM   28  C   UNL     1      -8.455   9.354  68.266  1.00  0.00    -0.120 C  
HETATM   29  O   UNL     1     -10.785  10.198  67.756  1.00  0.00    -0.237 OA 
HETATM   30  C   UNL     1      -8.605   8.152  67.329  1.00  0.00    -0.124 C  
HETATM   31  H   UNL     1     -10.646   9.380  67.292  1.00  0.00     0.000 HD 
HETATM   32  C   UNL     1      -8.582   8.762  65.949  1.00  0.00    -0.174 A  
HETATM   33  C   UNL     1      -8.745   8.000  64.808  1.00  0.00     0.138 A  
HETATM   34  C   UNL     1      -9.057   8.589  63.592  1.00  0.00     0.812 A  
HETATM   35  C   UNL     1      -9.244   9.997  63.502  1.00  0.00    -0.277 A  
HETATM   36  O   UNL     1      -9.785  10.531  62.374  1.00  0.00    -0.574 OA 
HETATM   37  C   UNL     1      -8.963  10.784  64.616  1.00  0.00    -0.175 A  
HETATM   38  H   UNL     1      -9.910  11.471  62.313  1.00  0.00     0.000 HD 
HETATM   39  C   UNL     1      -8.583  10.209  65.837  1.00  0.00    -0.156 A  
HETATM   40  C   UNL     1      -8.624  11.219  66.951  1.00  0.00    -0.150 C  
HETATM   41  C   UNL     1      -9.539  12.259  66.149  1.00  0.00    -0.240 C  
HETATM   42  C   UNL     1      -7.182  11.509  67.996  1.00  0.00    -0.085 C  
HETATM   43  O   UNL     1      -9.199  12.144  64.740  1.00  0.00     0.198 OA 
HETATM   44  C   UNL     1      -7.157  10.600  69.549  1.00  0.00    -0.127 C  
HETATM   45  N   UNL     1      -7.848   9.289  69.557  1.00  0.00    -0.080 NA 
BRANCH  45  46
HETATM   46  C   UNL     1      -8.887   8.957  70.515  1.00  0.00    -0.192 C  
BRANCH  46  47
HETATM   47  C   UNL     1      -8.542   9.239  71.940  1.00  0.00     0.534 C  
HETATM   48  C   UNL     1      -7.327   9.021  72.454  1.00  0.00     0.311 C  
ENDBRANCH  46  47
ENDBRANCH  45  46
ENDBRANCH  23  24
ENDBRANCH  22  23
ENDBRANCH  21  22
ENDBRANCH  20  21
ENDBRANCH  19  20
ENDBRANCH  18  19
ENDBRANCH  17  18
ENDBRANCH  16  17
ENDBRANCH  15  16
ENDBRANCH  14  15
ENDBRANCH  13  14
ENDBRANCH  12  13
ENDBRANCH  11  12
ENDBRANCH  10  11
ENDBRANCH   9  10
ENDBRANCH   8   9
ENDBRANCH   7   8
ENDBRANCH   6   7
ENDBRANCH   5   6
ENDBRANCH   4   5
ENDBRANCH   3   4
ENDBRANCH   2   3
TORSDOF 24
ENDMDL
MODEL      218
REMARK 921   NORMALIZED FREE ENERGY PREDICTED BY IDOCK:    9.46 KCAL/MOL
REMARK 922        TOTAL FREE ENERGY PREDICTED BY IDOCK:   20.45 KCAL/MOL
REMARK 923 INTER-LIGAND FREE ENERGY PREDICTED BY IDOCK:    2.57 KCAL/MOL
REMARK 924 INTRA-LIGAND FREE ENERGY PREDICTED BY IDOCK:   17.87 KCAL/MOL
REMARK 927      BINDING AFFINITY PREDICTED BY RF-SCORE:    0.00 PKD
ROOT
HETATM    1  C   UNL     1      -7.100  11.669  66.111  1.00  0.00     0.368 C  
HETATM    2  O   UNL     1      -7.878  11.781  67.294  1.00  0.00    -0.144 OA 
ENDROOT
BRANCH   2   3
HETATM    3  C   UNL     1      -8.900  10.787  67.339  1.00  0.00    -0.129 C  
BRANCH   3   4
HETATM    4  C   UNL     1      -9.892  11.034  66.212  1.00  0.00    -0.215 C  
BRANCH   4   5
HETATM    5  O   UNL     1     -10.234  12.419  66.190  1.00  0.00    -0.233 OA 
BRANCH   5   6
HETATM    6  C   UNL     1      -9.370  13.144  65.319  1.00  0.00     0.498 C  
BRANCH   6   7
HETATM    7  C   UNL     1      -8.628  14.208  66.111  1.00  0.00     0.712 C  
BRANCH   7   8
HETATM    8  O   UNL     1      -8.380  13.703  67.421  1.00  0.00    -0.173 OA 
BRANCH   8   9
HETATM    9  C   UNL     1      -7.145  14.183  67.936  1.00  0.00    -0.160 C  
BRANCH   9  10
HETATM   10  C   UNL     1      -6.842  15.532  67.308  1.00  0.00    -0.133 C  
BRANCH  10  11
HETATM   11  O   UNL     1      -7.908  15.871  66.431  1.00  0.00    -0.215 OA 
BRANCH  11  12
HETATM   12  C   UNL     1      -9.169  15.750  67.079  1.00  0.00    -0.216 C  
BRANCH  12  13
HETATM   13  C   UNL     1      -9.003  16.147  68.536  1.00  0.00    -0.204 C  
BRANCH  13  14
HETATM   14  O   UNL     1      -9.238  15.015  69.362  1.00  0.00    -0.188 OA 
BRANCH  14  15
HETATM   15  C   UNL     1      -9.318  15.406  70.728  1.00  0.00     1.624 C  
BRANCH  15  16
HETATM   16  C   UNL     1     -10.750  15.764  71.085  1.00  0.00     0.189 C  
BRANCH  16  17
HETATM   17  O   UNL     1     -10.979  15.330  72.420  1.00  0.00    -0.170 OA 
BRANCH  17  18
HETATM   18  C   UNL     1     -12.259  14.744  72.586  1.00  0.00    -0.244 C  
BRANCH  18  19
HETATM   19  C   UNL     1     -12.517  13.848  71.389  1.00  0.00    -0.340 C  
BRANCH  19  20
HETATM   20  O   UNL     1     -11.442  12.931  71.236  1.00  0.00     1.281 OA 
BRANCH  20  21
HETATM   21  C   UNL     1     -11.120  12.714  69.863  1.00  0.00     0.324 C  
BRANCH  21  22
HETATM   22  C   UNL     1     -10.684  11.264  69.626  1.00  0.00    -0.030 C  
BRANCH  22  23
HETATM   23  O   UNL     1     -11.758  10.295  69.512  1.00  0.00    -0.207 OA 
BRANCH  23  24
HETATM   24  C   UNL     1     -11.378   8.933  69.824  1.00  0.00     0.085 C  
HETATM   25  C   UNL     1     -11.320   8.108  68.569  1.00  0.00     0.780 C  
HETATM   26  C   UNL     1      -9.853   8.066  67.845  1.00  0.00    -0.204 C  
HETATM   27  C   UNL     1      -8.508   7.751  68.742  1.00  0.00    -0.129 C  
HETATM   28  C   UNL     1      -7.476   6.448  68.877  1.00  0.00    -0.088 C  
HETATM   29  O   UNL     1      -7.732   8.953  68.639  1.00  0.00    -0.094 OA 
HETATM   30  C   UNL     1      -6.245   6.584  69.778  1.00  0.00    -0.037 C  
HETATM   31  H   UNL     1      -6.956   8.771  69.158  1.00  0.00     0.000 HD 
HETATM   32  C   UNL     1      -6.801   7.116  71.076  1.00  0.00    -0.056 A  
HETATM   33  C   UNL     1      -5.988   7.427  72.149  1.00  0.00    -0.036 A  
HETATM   34  C   UNL     1      -6.451   8.215  73.192  1.00  0.00    -0.101 A  
HETATM   35  C   UNL     1      -7.772   8.744  73.163  1.00  0.00     0.261 A  
HETATM   36  O   UNL     1      -8.128   9.705  74.058  1.00  0.00     1.618 OA 
HETATM   37  C   UNL     1      -8.636   8.336  72.150  1.00  0.00    -0.188 A  
HETATM   38  H   UNL     1      -9.010  10.059  74.038  1.00  0.00     0.000 HD 
HETATM   39  C   UNL     1      -8.203   7.488  71.122  1.00  0.00    -0.101 A  
HETATM   40  C   UNL     1      -9.208   7.431  70.004  1.00  0.00    -0.148 C  
HETATM   41  C   UNL     1      -9.979   8.759  70.455  1.00  0.00    -0.189 C  
HETATM   42  C   UNL     1      -9.861   5.853  69.420  1.00  0.00    -0.207 C  
HETATM   43  O   UNL     1      -9.904   8.837  71.905  1.00  0.00    -0.287 OA 
HETATM   44  C   UNL     1      -9.031   5.156  67.984  1.00  0.00    -0.110 C  
HETATM   45  N   UNL     1      -7.595   5.487  67.827  1.00  0.00    -0.087 NA 
BRANCH  45  46
HETATM   46  C   UNL     1      -7.057   6.087  66.619  1.00  0.00    -0.072 C  
BRANCH  46  47
HETATM   47  C   UNL     1      -5.942   5.325  65.983  1.00  0.00    -0.022 C  
HETATM   48  C   UNL     1      -5.135   4.505  66.664  1.00  0.00    -0.008 C  
ENDBRANCH  46  47
ENDBRANCH  45  46
ENDBRANCH  23  24
ENDBRANCH  22  23
ENDBRANCH  21  22
ENDBRANCH  20  21
ENDBRANCH  19  20
ENDBRANCH  18  19
ENDBRANCH  17  18
ENDBRANCH  16  17
ENDBRANCH  15  16
ENDBRANCH  14  15
ENDBRANCH  13  14
ENDBRANCH  12  13
ENDBRANCH  11  12
ENDBRANCH  10  11
ENDBRANCH   9  10
ENDBRANCH   8   9
ENDBRANCH   7   8
ENDBRANCH   6   7
ENDBRANCH   5   6
ENDBRANCH   4   5
ENDBRANCH   3   4
ENDBRANCH   2   3
TORSDOF 24
ENDMDL
MODEL      219
REMARK 921   NORMALIZED FREE ENERGY PREDICTED BY IDOCK:    9.52 KCAL/MOL
REMARK 922        TOTAL FREE ENERGY PREDICTED BY IDOCK:   20.58 KCAL/MOL
REMARK 923 INTER-LIGAND FREE ENERGY PREDICTED BY IDOCK:   14.91 KCAL/MOL
REMARK 924 INTRA-LIGAND FREE ENERGY PREDICTED BY IDOCK:    5.67 KCAL/MOL
REMARK 927      BINDING AFFINITY PREDICTED BY RF-SCORE:    0.00 PKD
ROOT
HETATM    1  C   UNL     1     -10.916   9.017  73.120  1.00  0.00     2.129 C  
HETATM    2  O   UNL     1      -9.545   8.760  72.849  1.00  0.00    -0.148 OA 
ENDROOT
BRANCH   2   3
HETATM    3  C   UNL     1      -8.770   9.955  72.917  1.00  0.00     5.662 C  
BRANCH   3   4
HETATM    4  C   UNL     1      -7.645   9.769  73.924  1.00  0.00     2.999 C  
BRANCH   4   5
HETATM    5  O   UNL     1      -6.563   9.086  73.291  1.00  0.00    -0.326 OA 
BRANCH   5   6
HETATM    6  C   UNL     1      -6.463   7.745  73.761  1.00  0.00    -0.087 C  
BRANCH   6   7
HETATM    7  C   UNL     1      -7.218   6.820  72.821  1.00  0.00    -0.079 C  
BRANCH   7   8
HETATM    8  O   UNL     1      -7.969   7.620  71.911  1.00  0.00    -0.090 OA 
BRANCH   8   9
HETATM    9  C   UNL     1      -7.364   7.647  70.624  1.00  0.00    -0.067 C  
BRANCH   9  10
HETATM   10  C   UNL     1      -5.913   8.070  70.772  1.00  0.00    -0.033 C  
BRANCH  10  11
HETATM   11  O   UNL     1      -5.768   9.378  70.235  1.00  0.00    -0.033 OA 
BRANCH  11  12
HETATM   12  C   UNL     1      -5.348  10.302  71.233  1.00  0.00    -0.076 C  
BRANCH  12  13
HETATM   13  C   UNL     1      -5.153  11.661  70.582  1.00  0.00    -0.116 C  
BRANCH  13  14
HETATM   14  O   UNL     1      -5.133  12.666  71.586  1.00  0.00    -0.231 OA 
BRANCH  14  15
HETATM   15  C   UNL     1      -5.585  13.906  71.055  1.00  0.00    -0.206 C  
BRANCH  15  16
HETATM   16  C   UNL     1      -6.300  13.680  69.734  1.00  0.00    -0.096 C  
BRANCH  16  17
HETATM   17  O   UNL     1      -7.689  13.877  69.961  1.00  0.00     0.695 OA 
BRANCH  17  18
HETATM   18  C   UNL     1      -8.473  13.576  68.817  1.00  0.00     0.079 C  
BRANCH  18  19
HETATM   19  C   UNL     1      -9.250  12.307  69.111  1.00  0.00     0.616 C  
BRANCH  19  20
HETATM   20  O   UNL     1     -10.477  12.318  68.393  1.00  0.00    -0.221 OA 
BRANCH  20  21
HETATM   21  C   UNL     1     -11.602  12.177  69.258  1.00  0.00    -0.318 C  
BRANCH  21  22
HETATM   22  C   UNL     1     -11.564  13.222  70.379  1.00  0.00     0.062 C  
BRANCH  22  23
HETATM   23  O   UNL     1     -12.782  13.989  70.564  1.00  0.00    -0.327 OA 
BRANCH  23  24
HETATM   24  C   UNL     1     -12.987  15.041  69.589  1.00  0.00     0.338 C  
HETATM   25  C   UNL     1     -12.241  16.281  69.995  1.00  0.00     0.359 C  
HETATM   26  C   UNL     1     -10.722  16.392  69.397  1.00  0.00    -0.324 C  
HETATM   27  C   UNL     1     -10.453  16.119  67.795  1.00  0.00    -0.295 C  
HETATM   28  C   UNL     1     -10.068  17.092  66.496  1.00  0.00    -0.310 C  
HETATM   29  O   UNL     1      -9.610  14.959  67.777  1.00  0.00    -0.205 OA 
HETATM   30  C   UNL     1      -9.795  16.426  65.144  1.00  0.00     0.492 C  
HETATM   31  H   UNL     1      -9.455  14.802  66.852  1.00  0.00     0.000 HD 
HETATM   32  C   UNL     1     -10.976  15.508  64.946  1.00  0.00    -0.452 A  
HETATM   33  C   UNL     1     -11.082  14.677  63.848  1.00  0.00     0.780 A  
HETATM   34  C   UNL     1     -11.974  13.615  63.837  1.00  0.00    -0.455 A  
HETATM   35  C   UNL     1     -12.782  13.342  64.977  1.00  0.00    -0.360 A  
HETATM   36  O   UNL     1     -13.464  12.168  65.050  1.00  0.00     0.143 OA 
HETATM   37  C   UNL     1     -12.771  14.244  66.038  1.00  0.00    -0.211 A  
HETATM   38  H   UNL     1     -14.003  11.986  65.811  1.00  0.00     0.000 HD 
HETATM   39  C   UNL     1     -11.922  15.360  66.037  1.00  0.00     0.467 A  
HETATM   40  C   UNL     1     -11.871  16.007  67.394  1.00  0.00     0.558 C  
HETATM   41  C   UNL     1     -12.471  14.739  68.164  1.00  0.00     0.356 C  
HETATM   42  C   UNL     1     -12.228  17.764  67.600  1.00  0.00     3.304 C  
HETATM   43  O   UNL     1     -13.398  14.077  67.262  1.00  0.00     1.816 OA 
HETATM   44  C   UNL     1     -10.792  18.847  67.627  1.00  0.00    -0.331 C  
HETATM   45  N   UNL     1      -9.613  18.399  66.849  1.00  0.00    -0.292 NA 
BRANCH  45  46
HETATM   46  C   UNL     1      -8.292  18.261  67.437  1.00  0.00    -0.244 C  
BRANCH  46  47
HETATM   47  C   UNL     1      -8.270  18.222  68.929  1.00  0.00    -0.177 C  
HETATM   48  C   UNL     1      -7.515  19.040  69.670  1.00  0.00     0.166 C  
ENDBRANCH  46  47
ENDBRANCH  45  46
ENDBRANCH  23  24
ENDBRANCH  22  23
ENDBRANCH  21  22
ENDBRANCH  20  21
ENDBRANCH  19  20
ENDBRANCH  18  19
ENDBRANCH  17  18
ENDBRANCH  16  17
ENDBRANCH  15  16
ENDBRANCH  14  15
ENDBRANCH  13  14
ENDBRANCH  12  13
ENDBRANCH  11  12
ENDBRANCH  10  11
ENDBRANCH   9  10
ENDBRANCH   8   9
ENDBRANCH   7   8
ENDBRANCH   6   7
ENDBRANCH   5   6
ENDBRANCH   4   5
ENDBRANCH   3   4
ENDBRANCH   2   3
TORSDOF 24
ENDMDL
MODEL      220
REMARK 921   NORMALIZED FREE ENERGY PREDICTED BY IDOCK:    9.57 KCAL/MOL
REMARK 922        TOTAL FREE ENERGY PREDICTED BY IDOCK:   20.71 KCAL/MOL
REMARK 923 INTER-LIGAND FREE ENERGY PREDICTED BY IDOCK:    6.25 KCAL/MOL
REMARK 924 INTRA-LIGAND FREE ENERGY PREDICTED BY IDOCK:   14.46 KCAL/MOL
REMARK 927      BINDING AFFINITY PREDICTED BY RF-SCORE:    0.00 PKD
ROOT
HETATM    1  C   UNL     1     -13.750   4.132  73.287  1.00  0.00     3.510 C  
HETATM    2  O   UNL     1     -13.433   4.724  72.035  1.00  0.00     2.967 OA 
ENDROOT
BRANCH   2   3
HETATM    3  C   UNL     1     -12.027   4.709  71.795  1.00  0.00     2.336 C  
BRANCH   3   4
HETATM    4  C   UNL     1     -11.671   5.823  70.822  1.00  0.00     0.437 C  
BRANCH   4   5
HETATM    5  O   UNL     1     -11.094   5.249  69.650  1.00  0.00     0.021 OA 
BRANCH   5   6
HETATM    6  C   UNL     1     -10.502   6.253  68.829  1.00  0.00    -0.233 C  
BRANCH   6   7
HETATM    7  C   UNL     1     -10.238   7.497  69.660  1.00  0.00    -0.205 C  
BRANCH   7   8
HETATM    8  O   UNL     1      -8.970   8.029  69.283  1.00  0.00    -0.147 OA 
BRANCH   8   9
HETATM    9  C   UNL     1      -8.393   8.790  70.337  1.00  0.00    -0.140 C  
BRANCH   9  10
HETATM   10  C   UNL     1      -9.498   9.527  71.073  1.00  0.00    -0.047 C  
BRANCH  10  11
HETATM   11  O   UNL     1      -9.527   9.067  72.419  1.00  0.00    -0.270 OA 
BRANCH  11  12
HETATM   12  C   UNL     1      -8.647   7.966  72.608  1.00  0.00    -0.153 C  
BRANCH  12  13
HETATM   13  C   UNL     1      -7.666   7.926  71.449  1.00  0.00    -0.084 C  
BRANCH  13  14
HETATM   14  O   UNL     1      -6.634   8.877  71.671  1.00  0.00    -0.081 OA 
BRANCH  14  15
HETATM   15  C   UNL     1      -6.823  10.016  70.840  1.00  0.00     0.122 C  
BRANCH  15  16
HETATM   16  C   UNL     1      -5.696  11.012  71.055  1.00  0.00     0.009 C  
BRANCH  16  17
HETATM   17  O   UNL     1      -5.990  12.164  70.276  1.00  0.00    -0.156 OA 
BRANCH  17  18
HETATM   18  C   UNL     1      -5.141  13.257  70.584  1.00  0.00    -0.117 C  
BRANCH  18  19
HETATM   19  C   UNL     1      -6.017  14.406  71.048  1.00  0.00    -0.159 C  
BRANCH  19  20
HETATM   20  O   UNL     1      -7.131  14.543  70.177  1.00  0.00    -0.061 OA 
BRANCH  20  21
HETATM   21  C   UNL     1      -7.186  13.493  69.214  1.00  0.00     0.095 C  
BRANCH  21  22
HETATM   22  C   UNL     1      -6.580  13.942  67.880  1.00  0.00    -0.161 C  
BRANCH  22  23
HETATM   23  O   UNL     1      -7.344  13.600  66.695  1.00  0.00     0.538 OA 
BRANCH  23  24
HETATM   24  C   UNL     1      -8.607  14.298  66.569  1.00  0.00     0.133 C  
HETATM   25  C   UNL     1      -9.703  13.518  67.239  1.00  0.00    -0.236 C  
HETATM   26  C   UNL     1      -9.955  13.903  68.810  1.00  0.00    -0.139 C  
HETATM   27  C   UNL     1     -10.091  15.484  69.252  1.00  0.00    -0.256 C  
HETATM   28  C   UNL     1     -11.356  16.451  69.748  1.00  0.00    -0.171 C  
HETATM   29  O   UNL     1      -8.968  15.701  70.118  1.00  0.00     0.025 OA 
HETATM   30  C   UNL     1     -11.049  17.889  70.176  1.00  0.00     2.112 C  
HETATM   31  H   UNL     1      -9.047  16.613  70.373  1.00  0.00     0.000 HD 
HETATM   32  C   UNL     1     -10.214  18.435  69.044  1.00  0.00    -0.199 A  
HETATM   33  C   UNL     1      -9.685  19.711  69.073  1.00  0.00    -0.428 A  
HETATM   34  C   UNL     1      -8.662  20.081  68.212  1.00  0.00    -0.186 A  
HETATM   35  C   UNL     1      -8.116  19.138  67.295  1.00  0.00    -0.263 A  
HETATM   36  O   UNL     1      -6.964  19.434  66.636  1.00  0.00    -0.196 OA 
HETATM   37  C   UNL     1      -8.724  17.891  67.175  1.00  0.00    -0.243 A  
HETATM   38  H   UNL     1      -6.599  18.805  66.025  1.00  0.00     0.000 HD 
HETATM   39  C   UNL     1      -9.801  17.523  67.993  1.00  0.00    -0.299 A  
HETATM   40  C   UNL     1     -10.087  16.050  67.886  1.00  0.00    -0.241 C  
HETATM   41  C   UNL     1      -8.669  15.689  67.239  1.00  0.00    -0.194 C  
HETATM   42  C   UNL     1     -11.738  15.452  67.469  1.00  0.00    -0.076 C  
HETATM   43  O   UNL     1      -8.258  16.822  66.426  1.00  0.00    -0.260 OA 
HETATM   44  C   UNL     1     -12.774  15.002  68.870  1.00  0.00     0.527 C  
HETATM   45  N   UNL     1     -12.531  15.737  70.134  1.00  0.00    -0.312 NA 
BRANCH  45  46
HETATM   46  C   UNL     1     -12.245  15.063  71.388  1.00  0.00    -0.328 C  
BRANCH  46  47
HETATM   47  C   UNL     1     -13.223  14.003  71.769  1.00  0.00    -0.454 C  
HETATM   48  C   UNL     1     -13.880  13.999  72.934  1.00  0.00    -0.087 C  
ENDBRANCH  46  47
ENDBRANCH  45  46
ENDBRANCH  23  24
ENDBRANCH  22  23
ENDBRANCH  21  22
ENDBRANCH  20  21
ENDBRANCH  19  20
ENDBRANCH  18  19
ENDBRANCH  17  18
ENDBRANCH  16  17
ENDBRANCH  15  16
ENDBRANCH  14  15
ENDBRANCH  13  14
ENDBRANCH  12  13
ENDBRANCH  11  12
ENDBRANCH  10  11
ENDBRANCH   9  10
ENDBRANCH   8   9
ENDBRANCH   7   8
ENDBRANCH   6   7
ENDBRANCH   5   6
ENDBRANCH   4   5
ENDBRANCH   3   4
ENDBRANCH   2   3
TORSDOF 24
ENDMDL
MODEL      221
REMARK 921   NORMALIZED FREE ENERGY PREDICTED BY IDOCK:    9.90 KCAL/MOL
REMARK 922        TOTAL FREE ENERGY PREDICTED BY IDOCK:   21.50 KCAL/MOL
REMARK 923 INTER-LIGAND FREE ENERGY PREDICTED BY IDOCK:   -0.87 KCAL/MOL
REMARK 924 INTRA-LIGAND FREE ENERGY PREDICTED BY IDOCK:   22.37 KCAL/MOL
REMARK 927      BINDING AFFINITY PREDICTED BY RF-SCORE:    0.00 PKD
ROOT
HETATM    1  C   UNL     1     -10.425  16.465  67.450  1.00  0.00    -0.309 C  
HETATM    2  O   UNL     1      -9.219  17.001  66.924  1.00  0.00    -0.225 OA 
ENDROOT
BRANCH   2   3
HETATM    3  C   UNL     1      -9.475  17.879  65.830  1.00  0.00     0.284 C  
BRANCH   3   4
HETATM    4  C   UNL     1     -10.350  17.168  64.808  1.00  0.00     1.225 C  
BRANCH   4   5
HETATM    5  O   UNL     1     -11.409  16.497  65.491  1.00  0.00     0.123 OA 
BRANCH   5   6
HETATM    6  C   UNL     1     -11.656  15.217  64.916  1.00  0.00    -0.336 C  
BRANCH   6   7
HETATM    7  C   UNL     1     -10.586  14.240  65.375  1.00  0.00    -0.354 C  
BRANCH   7   8
HETATM    8  O   UNL     1     -10.563  14.235  66.800  1.00  0.00    -0.275 OA 
BRANCH   8   9
HETATM    9  C   UNL     1     -11.871  14.382  67.340  1.00  0.00    -0.400 C  
BRANCH   9  10
HETATM   10  C   UNL     1     -11.762  14.945  68.746  1.00  0.00    -0.325 C  
BRANCH  10  11
HETATM   11  O   UNL     1     -11.030  14.025  69.545  1.00  0.00    -0.199 OA 
BRANCH  11  12
HETATM   12  C   UNL     1      -9.912  13.502  68.838  1.00  0.00     0.021 C  
BRANCH  12  13
HETATM   13  C   UNL     1     -10.234  12.082  68.406  1.00  0.00    -0.209 C  
BRANCH  13  14
HETATM   14  O   UNL     1      -9.028  11.400  68.089  1.00  0.00    -0.156 OA 
BRANCH  14  15
HETATM   15  C   UNL     1      -9.193   9.998  68.261  1.00  0.00    -0.129 C  
BRANCH  15  16
HETATM   16  C   UNL     1      -8.448   9.247  67.171  1.00  0.00    -0.124 C  
BRANCH  16  17
HETATM   17  O   UNL     1      -8.475  10.054  66.001  1.00  0.00    -0.126 OA 
BRANCH  17  18
HETATM   18  C   UNL     1      -9.391   9.571  65.032  1.00  0.00    -0.229 C  
BRANCH  18  19
HETATM   19  C   UNL     1     -10.793   9.845  65.544  1.00  0.00     0.901 C  
BRANCH  19  20
HETATM   20  O   UNL     1     -10.853   9.589  66.940  1.00  0.00    -0.161 OA 
BRANCH  20  21
HETATM   21  C   UNL     1     -11.071   8.207  67.219  1.00  0.00     0.406 C  
BRANCH  21  22
HETATM   22  C   UNL     1     -10.009   7.670  68.185  1.00  0.00    -0.175 C  
BRANCH  22  23
HETATM   23  O   UNL     1      -9.453   8.639  69.110  1.00  0.00    -0.156 OA 
BRANCH  23  24
HETATM   24  C   UNL     1      -9.073   8.095  70.398  1.00  0.00    -0.150 C  
HETATM   25  C   UNL     1     -10.263   8.048  71.316  1.00  0.00    -0.230 C  
HETATM   26  C   UNL     1     -11.104   6.645  71.273  1.00  0.00    -0.312 C  
HETATM   27  C   UNL     1     -10.303   5.209  71.378  1.00  0.00    -0.203 C  
HETATM   28  C   UNL     1     -10.158   4.038  72.557  1.00  0.00    -0.168 C  
HETATM   29  O   UNL     1     -10.562   4.574  70.118  1.00  0.00     0.120 OA 
HETATM   30  C   UNL     1      -9.378   2.763  72.225  1.00  0.00    -0.160 C  
HETATM   31  H   UNL     1     -10.099   3.745  70.178  1.00  0.00     0.000 HD 
HETATM   32  C   UNL     1      -8.081   3.270  71.644  1.00  0.00    -0.058 A  
HETATM   33  C   UNL     1      -7.108   2.414  71.165  1.00  0.00    -0.033 A  
HETATM   34  C   UNL     1      -6.091   2.875  70.342  1.00  0.00    -0.023 A  
HETATM   35  C   UNL     1      -6.048   4.243  69.950  1.00  0.00    -0.022 A  
HETATM   36  O   UNL     1      -5.202   4.629  68.957  1.00  0.00    -0.003 OA 
HETATM   37  C   UNL     1      -6.950   5.135  70.524  1.00  0.00    -0.045 A  
HETATM   38  H   UNL     1      -5.172   5.542  68.695  1.00  0.00     0.000 HD 
HETATM   39  C   UNL     1      -7.945   4.696  71.409  1.00  0.00    -0.096 A  
HETATM   40  C   UNL     1      -8.966   5.772  71.658  1.00  0.00    -0.141 C  
HETATM   41  C   UNL     1      -8.552   6.641  70.380  1.00  0.00    -0.143 C  
HETATM   42  C   UNL     1      -9.371   6.299  73.336  1.00  0.00    -0.137 C  
HETATM   43  O   UNL     1      -7.124   6.464  70.174  1.00  0.00    -0.069 OA 
HETATM   44  C   UNL     1     -10.815   5.513  74.066  1.00  0.00    -0.057 C  
HETATM   45  N   UNL     1     -11.118   4.136  73.610  1.00  0.00    -0.261 NA 
BRANCH  45  46
HETATM   46  C   UNL     1     -12.410   3.758  73.063  1.00  0.00     0.953 C  
BRANCH  46  47
HETATM   47  C   UNL     1     -13.006   2.525  73.656  1.00  0.00     1.066 C  
HETATM   48  C   UNL     1     -13.970   1.819  73.057  1.00  0.00     0.229 C  
ENDBRANCH  46  47
ENDBRANCH  45  46
ENDBRANCH  23  24
ENDBRANCH  22  23
ENDBRANCH  21  22
ENDBRANCH  20  21
ENDBRANCH  19  20
ENDBRANCH  18  19
ENDBRANCH  17  18
ENDBRANCH  16  17
ENDBRANCH  15  16
ENDBRANCH  14  15
ENDBRANCH  13  14
ENDBRANCH  12  13
ENDBRANCH  11  12
ENDBRANCH  10  11
ENDBRANCH   9  10
ENDBRANCH   8   9
ENDBRANCH   7   8
ENDBRANCH   6   7
ENDBRANCH   5   6
ENDBRANCH   4   5
ENDBRANCH   3   4
ENDBRANCH   2   3
TORSDOF 24
ENDMDL
MODEL      222
REMARK 921   NORMALIZED FREE ENERGY PREDICTED BY IDOCK:   10.09 KCAL/MOL
REMARK 922        TOTAL FREE ENERGY PREDICTED BY IDOCK:   21.95 KCAL/MOL
REMARK 923 INTER-LIGAND FREE ENERGY PREDICTED BY IDOCK:   10.20 KCAL/MOL
REMARK 924 INTRA-LIGAND FREE ENERGY PREDICTED BY IDOCK:   11.75 KCAL/MOL
REMARK 927      BINDING AFFINITY PREDICTED BY RF-SCORE:    0.00 PKD
ROOT
HETATM    1  C   UNL     1     -14.287   6.829  74.038  1.00  0.00     7.851 C  
HETATM    2  O   UNL     1     -13.439   5.716  73.788  1.00  0.00     3.665 OA 
ENDROOT
BRANCH   2   3
HETATM    3  C   UNL     1     -13.111   5.615  72.403  1.00  0.00     0.964 C  
BRANCH   3   4
HETATM    4  C   UNL     1     -12.617   6.964  71.904  1.00  0.00    -0.297 C  
BRANCH   4   5
HETATM    5  O   UNL     1     -11.295   6.814  71.388  1.00  0.00    -0.255 OA 
BRANCH   5   6
HETATM    6  C   UNL     1     -11.282   6.949  69.970  1.00  0.00    -0.299 C  
BRANCH   6   7
HETATM    7  C   UNL     1      -9.999   6.354  69.415  1.00  0.00    -0.158 C  
BRANCH   7   8
HETATM    8  O   UNL     1     -10.329   5.172  68.689  1.00  0.00    -0.154 OA 
BRANCH   8   9
HETATM    9  C   UNL     1      -9.812   4.010  69.326  1.00  0.00    -0.019 C  
BRANCH   9  10
HETATM   10  C   UNL     1      -9.655   2.911  68.290  1.00  0.00    -0.052 C  
BRANCH  10  11
HETATM   11  O   UNL     1      -8.476   2.175  68.588  1.00  0.00    -0.055 OA 
BRANCH  11  12
HETATM   12  C   UNL     1      -8.046   2.407  69.924  1.00  0.00    -0.041 C  
BRANCH  12  13
HETATM   13  C   UNL     1      -9.082   3.270  70.623  1.00  0.00    -0.120 C  
BRANCH  13  14
HETATM   14  O   UNL     1      -8.428   4.329  71.309  1.00  0.00    -0.093 OA 
BRANCH  14  15
HETATM   15  C   UNL     1      -7.366   3.820  72.107  1.00  0.00    -0.056 C  
BRANCH  15  16
HETATM   16  C   UNL     1      -6.434   2.973  71.257  1.00  0.00    -0.019 C  
BRANCH  16  17
HETATM   17  O   UNL     1      -5.821   3.835  70.307  1.00  0.00    -0.016 OA 
BRANCH  17  18
HETATM   18  C   UNL     1      -6.565   3.930  69.103  1.00  0.00    -0.040 C  
BRANCH  18  19
HETATM   19  C   UNL     1      -5.849   4.911  68.194  1.00  0.00    -0.021 C  
BRANCH  19  20
HETATM   20  O   UNL     1      -5.129   5.853  68.976  1.00  0.00    -0.003 OA 
BRANCH  20  21
HETATM   21  C   UNL     1      -5.659   7.171  68.843  1.00  0.00    -0.018 C  
BRANCH  21  22
HETATM   22  C   UNL     1      -6.993   7.151  68.089  1.00  0.00    -0.076 C  
BRANCH  22  23
HETATM   23  O   UNL     1      -7.735   8.398  68.090  1.00  0.00    -0.099 OA 
BRANCH  23  24
HETATM   24  C   UNL     1      -7.313   9.352  67.085  1.00  0.00    -0.087 C  
HETATM   25  C   UNL     1      -7.783   8.918  65.725  1.00  0.00    -0.094 C  
HETATM   26  C   UNL     1      -9.244   9.508  65.286  1.00  0.00    -0.307 C  
HETATM   27  C   UNL     1      -9.564  11.114  65.463  1.00  0.00    -0.226 C  
HETATM   28  C   UNL     1      -9.737  12.392  64.405  1.00  0.00     0.031 C  
HETATM   29  O   UNL     1     -10.631  11.152  66.421  1.00  0.00    -0.252 OA 
HETATM   30  C   UNL     1     -10.142  13.756  64.971  1.00  0.00    -0.310 C  
HETATM   31  H   UNL     1     -10.816  12.079  66.523  1.00  0.00     0.000 HD 
HETATM   32  C   UNL     1      -9.179  13.976  66.112  1.00  0.00    -0.062 A  
HETATM   33  C   UNL     1      -9.249  15.092  66.924  1.00  0.00    -0.265 A  
HETATM   34  C   UNL     1      -8.600  15.127  68.150  1.00  0.00    -0.158 A  
HETATM   35  C   UNL     1      -7.867  13.996  68.609  1.00  0.00    -0.130 A  
HETATM   36  O   UNL     1      -7.447  13.949  69.901  1.00  0.00    -0.234 OA 
HETATM   37  C   UNL     1      -7.690  12.917  67.746  1.00  0.00    -0.151 A  
HETATM   38  H   UNL     1      -6.958  13.194  70.208  1.00  0.00     0.000 HD 
HETATM   39  C   UNL     1      -8.286  12.892  66.478  1.00  0.00     0.264 A  
HETATM   40  C   UNL     1      -8.201  11.523  65.862  1.00  0.00     0.169 C  
HETATM   41  C   UNL     1      -7.881  10.780  67.243  1.00  0.00    -0.113 C  
HETATM   42  C   UNL     1      -7.484  11.283  64.224  1.00  0.00     1.281 C  
HETATM   43  O   UNL     1      -7.112  11.699  68.066  1.00  0.00    -0.073 OA 
HETATM   44  C   UNL     1      -8.661  11.228  62.864  1.00  0.00    -0.079 C  
HETATM   45  N   UNL     1      -9.908  12.011  63.039  1.00  0.00    -0.316 NA 
BRANCH  45  46
HETATM   46  C   UNL     1     -11.228  11.421  62.910  1.00  0.00     0.460 C  
BRANCH  46  47
HETATM   47  C   UNL     1     -12.223  11.879  63.924  1.00  0.00    -0.497 C  
HETATM   48  C   UNL     1     -13.534  11.637  63.824  1.00  0.00     0.768 C  
ENDBRANCH  46  47
ENDBRANCH  45  46
ENDBRANCH  23  24
ENDBRANCH  22  23
ENDBRANCH  21  22
ENDBRANCH  20  21
ENDBRANCH  19  20
ENDBRANCH  18  19
ENDBRANCH  17  18
ENDBRANCH  16  17
ENDBRANCH  15  16
ENDBRANCH  14  15
ENDBRANCH  13  14
ENDBRANCH  12  13
ENDBRANCH  11  12
ENDBRANCH  10  11
ENDBRANCH   9  10
ENDBRANCH   8   9
ENDBRANCH   7   8
ENDBRANCH   6   7
ENDBRANCH   5   6
ENDBRANCH   4   5
ENDBRANCH   3   4
ENDBRANCH   2   3
TORSDOF 24
ENDMDL
MODEL      223
REMARK 921   NORMALIZED FREE ENERGY PREDICTED BY IDOCK:   10.57 KCAL/MOL
REMARK 922        TOTAL FREE ENERGY PREDICTED BY IDOCK:   23.10 KCAL/MOL
REMARK 923 INTER-LIGAND FREE ENERGY PREDICTED BY IDOCK:    3.06 KCAL/MOL
REMARK 924 INTRA-LIGAND FREE ENERGY PREDICTED BY IDOCK:   20.04 KCAL/MOL
REMARK 927      BINDING AFFINITY PREDICTED BY RF-SCORE:    0.00 PKD
ROOT
HETATM    1  C   UNL     1      -7.707  17.686  67.477  1.00  0.00    -0.201 C  
HETATM    2  O   UNL     1      -8.765  16.753  67.307  1.00  0.00    -0.194 OA 
ENDROOT
BRANCH   2   3
HETATM    3  C   UNL     1      -9.268  16.305  68.565  1.00  0.00    -0.211 C  
BRANCH   3   4
HETATM    4  C   UNL     1      -9.141  17.426  69.585  1.00  0.00     0.823 C  
BRANCH   4   5
HETATM    5  O   UNL     1      -9.361  18.676  68.932  1.00  0.00    -0.312 OA 
BRANCH   5   6
HETATM    6  C   UNL     1      -8.151  19.423  68.840  1.00  0.00    -0.309 C  
BRANCH   6   7
HETATM    7  C   UNL     1      -7.323  18.904  67.676  1.00  0.00    -0.221 C  
BRANCH   7   8
HETATM    8  O   UNL     1      -6.640  17.727  68.100  1.00  0.00    -0.183 OA 
BRANCH   8   9
HETATM    9  C   UNL     1      -6.188  17.845  69.444  1.00  0.00    -0.248 C  
BRANCH   9  10
HETATM   10  C   UNL     1      -5.976  16.453  70.015  1.00  0.00    -0.174 C  
BRANCH  10  11
HETATM   11  O   UNL     1      -6.024  16.536  71.433  1.00  0.00     0.749 OA 
BRANCH  11  12
HETATM   12  C   UNL     1      -5.129  15.608  72.035  1.00  0.00     0.069 C  
BRANCH  12  13
HETATM   13  C   UNL     1      -5.827  14.961  73.218  1.00  0.00     0.535 C  
BRANCH  13  14
HETATM   14  O   UNL     1      -6.780  14.018  72.745  1.00  0.00     1.053 OA 
BRANCH  14  15
HETATM   15  C   UNL     1      -7.145  14.315  71.403  1.00  0.00     2.171 C  
BRANCH  15  16
HETATM   16  C   UNL     1      -7.155  13.044  70.571  1.00  0.00     2.024 C  
BRANCH  16  17
HETATM   17  O   UNL     1      -8.295  13.096  69.724  1.00  0.00     1.430 OA 
BRANCH  17  18
HETATM   18  C   UNL     1      -7.954  13.009  68.350  1.00  0.00    -0.135 C  
BRANCH  18  19
HETATM   19  C   UNL     1      -7.147  11.739  68.154  1.00  0.00    -0.079 C  
BRANCH  19  20
HETATM   20  O   UNL     1      -7.370  11.223  66.849  1.00  0.00    -0.131 OA 
BRANCH  20  21
HETATM   21  C   UNL     1      -7.779   9.857  66.880  1.00  0.00    -0.098 C  
BRANCH  21  22
HETATM   22  C   UNL     1      -7.738   9.242  65.477  1.00  0.00    -0.095 C  
BRANCH  22  23
HETATM   23  O   UNL     1      -8.994   8.700  64.991  1.00  0.00    -0.134 OA 
BRANCH  23  24
HETATM   24  C   UNL     1      -9.620   7.741  65.878  1.00  0.00     0.187 C  
HETATM   25  C   UNL     1      -8.819   6.470  65.922  1.00  0.00    -0.131 C  
HETATM   26  C   UNL     1      -7.686   6.416  67.102  1.00  0.00    -0.100 C  
HETATM   27  C   UNL     1      -8.092   6.834  68.643  1.00  0.00    -0.120 C  
HETATM   28  C   UNL     1      -8.311   5.984  70.061  1.00  0.00    -0.123 C  
HETATM   29  O   UNL     1      -7.290   7.993  68.911  1.00  0.00    -0.077 OA 
HETATM   30  C   UNL     1      -8.597   6.770  71.343  1.00  0.00    -0.124 C  
HETATM   31  H   UNL     1      -7.525   8.234  69.801  1.00  0.00     0.000 HD 
HETATM   32  C   UNL     1      -9.721   7.700  70.957  1.00  0.00    -0.169 A  
HETATM   33  C   UNL     1     -10.240   8.627  71.840  1.00  0.00    -0.404 A  
HETATM   34  C   UNL     1     -11.018   9.685  71.392  1.00  0.00    -0.354 A  
HETATM   35  C   UNL     1     -11.274   9.851  70.001  1.00  0.00    -0.276 A  
HETATM   36  O   UNL     1     -11.822  11.013  69.555  1.00  0.00    -0.281 OA 
HETATM   37  C   UNL     1     -10.858   8.857  69.120  1.00  0.00    -0.070 A  
HETATM   38  H   UNL     1     -11.993  11.125  68.627  1.00  0.00     0.000 HD 
HETATM   39  C   UNL     1     -10.126   7.748  69.565  1.00  0.00    -0.194 A  
HETATM   40  C   UNL     1      -9.544   6.980  68.410  1.00  0.00    -0.135 C  
HETATM   41  C   UNL     1      -9.726   8.172  67.358  1.00  0.00    -0.170 C  
HETATM   42  C   UNL     1      -9.847   5.211  68.222  1.00  0.00    -0.212 C  
HETATM   43  O   UNL     1     -10.919   8.911  67.736  1.00  0.00    -0.112 OA 
HETATM   44  C   UNL     1      -8.567   4.132  68.882  1.00  0.00    -0.084 C  
HETATM   45  N   UNL     1      -7.799   4.651  70.038  1.00  0.00    -0.060 NA 
BRANCH  45  46
HETATM   46  C   UNL     1      -6.349   4.738  70.040  1.00  0.00    -0.030 C  
BRANCH  46  47
HETATM   47  C   UNL     1      -5.653   3.607  70.722  1.00  0.00    -0.013 C  
HETATM   48  C   UNL     1      -6.274   2.759  71.549  1.00  0.00    -0.015 C  
ENDBRANCH  46  47
ENDBRANCH  45  46
ENDBRANCH  23  24
ENDBRANCH  22  23
ENDBRANCH  21  22
ENDBRANCH  20  21
ENDBRANCH  19  20
ENDBRANCH  18  19
ENDBRANCH  17  18
ENDBRANCH  16  17
ENDBRANCH  15  16
ENDBRANCH  14  15
ENDBRANCH  13  14
ENDBRANCH  12  13
ENDBRANCH  11  12
ENDBRANCH  10  11
ENDBRANCH   9  10
ENDBRANCH   8   9
ENDBRANCH   7   8
ENDBRANCH   6   7
ENDBRANCH   5   6
ENDBRANCH   4   5
ENDBRANCH   3   4
ENDBRANCH   2   3
TORSDOF 24
ENDMDL
MODEL      224
REMARK 921   NORMALIZED FREE ENERGY PREDICTED BY IDOCK:   12.02 KCAL/MOL
REMARK 922        TOTAL FREE ENERGY PREDICTED BY IDOCK:   26.60 KCAL/MOL
REMARK 923 INTER-LIGAND FREE ENERGY PREDICTED BY IDOCK:   12.43 KCAL/MOL
REMARK 924 INTRA-LIGAND FREE ENERGY PREDICTED BY IDOCK:   14.17 KCAL/MOL
REMARK 927      BINDING AFFINITY PREDICTED BY RF-SCORE:    0.00 PKD
ROOT
HETATM    1  C   UNL     1     -13.524   5.348  73.045  1.00  0.00     2.128 C  
HETATM    2  O   UNL     1     -12.221   5.915  73.006  1.00  0.00     0.198 OA 
ENDROOT
BRANCH   2   3
HETATM    3  C   UNL     1     -12.050   6.740  71.855  1.00  0.00    -0.334 C  
BRANCH   3   4
HETATM    4  C   UNL     1     -12.667   6.052  70.647  1.00  0.00     1.878 C  
BRANCH   4   5
HETATM    5  O   UNL     1     -11.826   6.259  69.513  1.00  0.00    -0.234 OA 
BRANCH   5   6
HETATM    6  C   UNL     1     -11.589   7.648  69.300  1.00  0.00     0.670 C  
BRANCH   6   7
HETATM    7  C   UNL     1     -12.186   8.445  70.449  1.00  0.00     0.378 C  
BRANCH   7   8
HETATM    8  O   UNL     1     -13.269   9.222  69.943  1.00  0.00     1.316 OA 
BRANCH   8   9
HETATM    9  C   UNL     1     -12.868  10.003  68.824  1.00  0.00     3.325 C  
BRANCH   9  10
HETATM   10  C   UNL     1     -11.524   9.499  68.328  1.00  0.00     0.494 C  
BRANCH  10  11
HETATM   11  O   UNL     1     -10.942  10.502  67.505  1.00  0.00    -0.284 OA 
BRANCH  11  12
HETATM   12  C   UNL     1     -11.278  10.306  66.137  1.00  0.00     0.660 C  
BRANCH  12  13
HETATM   13  C   UNL     1     -11.766  11.626  65.565  1.00  0.00     0.093 C  
BRANCH  13  14
HETATM   14  O   UNL     1     -10.938  12.679  66.037  1.00  0.00    -0.271 OA 
BRANCH  14  15
HETATM   15  C   UNL     1     -10.512  12.415  67.368  1.00  0.00    -0.215 C  
BRANCH  15  16
HETATM   16  C   UNL     1     -10.541  13.693  68.190  1.00  0.00    -0.247 C  
BRANCH  16  17
HETATM   17  O   UNL     1      -9.202  14.154  68.312  1.00  0.00    -0.188 OA 
BRANCH  17  18
HETATM   18  C   UNL     1      -8.896  15.184  67.387  1.00  0.00    -0.186 C  
BRANCH  18  19
HETATM   19  C   UNL     1      -8.157  14.553  66.222  1.00  0.00     1.117 C  
BRANCH  19  20
HETATM   20  O   UNL     1      -7.466  13.392  66.662  1.00  0.00     0.485 OA 
BRANCH  20  21
HETATM   21  C   UNL     1      -6.052  13.581  66.658  1.00  0.00     2.369 C  
BRANCH  21  22
HETATM   22  C   UNL     1      -5.337  12.339  66.114  1.00  0.00     1.418 C  
BRANCH  22  23
HETATM   23  O   UNL     1      -6.125  11.121  66.087  1.00  0.00    -0.136 OA 
BRANCH  23  24
HETATM   24  C   UNL     1      -5.671  10.087  66.994  1.00  0.00    -0.046 C  
HETATM   25  C   UNL     1      -5.832  10.536  68.419  1.00  0.00    -0.043 C  
HETATM   26  C   UNL     1      -7.263  10.134  69.105  1.00  0.00    -0.081 C  
HETATM   27  C   UNL     1      -7.827   8.591  68.973  1.00  0.00    -0.104 C  
HETATM   28  C   UNL     1      -7.987   7.315  70.035  1.00  0.00    -0.117 C  
HETATM   29  O   UNL     1      -9.039   8.727  68.219  1.00  0.00    -0.140 OA 
HETATM   30  C   UNL     1      -8.668   6.036  69.538  1.00  0.00    -0.125 C  
HETATM   31  H   UNL     1      -9.364   7.837  68.143  1.00  0.00     0.000 HD 
HETATM   32  C   UNL     1      -7.958   5.726  68.243  1.00  0.00    -0.104 A  
HETATM   33  C   UNL     1      -8.321   4.656  67.447  1.00  0.00    -0.104 A  
HETATM   34  C   UNL     1      -7.905   4.574  66.126  1.00  0.00    -0.095 A  
HETATM   35  C   UNL     1      -7.115   5.611  65.555  1.00  0.00    -0.066 A  
HETATM   36  O   UNL     1      -6.923   5.642  64.208  1.00  0.00    -0.048 OA 
HETATM   37  C   UNL     1      -6.644   6.628  66.381  1.00  0.00    -0.044 A  
HETATM   38  H   UNL     1      -6.396   6.335  63.827  1.00  0.00     0.000 HD 
HETATM   39  C   UNL     1      -7.002   6.691  67.735  1.00  0.00    -0.083 A  
HETATM   40  C   UNL     1      -6.623   8.017  68.337  1.00  0.00    -0.059 C  
HETATM   41  C   UNL     1      -6.448   8.754  66.927  1.00  0.00    -0.061 C  
HETATM   42  C   UNL     1      -5.606   8.105  69.825  1.00  0.00    -0.026 C  
HETATM   43  O   UNL     1      -5.968   7.767  65.974  1.00  0.00    -0.037 OA 
HETATM   44  C   UNL     1      -6.510   8.273  71.371  1.00  0.00    -0.046 C  
HETATM   45  N   UNL     1      -7.864   7.671  71.413  1.00  0.00    -0.088 NA 
BRANCH  45  46
HETATM   46  C   UNL     1      -9.048   8.428  71.778  1.00  0.00    -0.218 C  
BRANCH  46  47
HETATM   47  C   UNL     1      -9.680   9.184  70.656  1.00  0.00    -0.314 C  
HETATM   48  C   UNL     1     -10.548  10.183  70.846  1.00  0.00     0.050 C  
ENDBRANCH  46  47
ENDBRANCH  45  46
ENDBRANCH  23  24
ENDBRANCH  22  23
ENDBRANCH  21  22
ENDBRANCH  20  21
ENDBRANCH  19  20
ENDBRANCH  18  19
ENDBRANCH  17  18
ENDBRANCH  16  17
ENDBRANCH  15  16
ENDBRANCH  14  15
ENDBRANCH  13  14
ENDBRANCH  12  13
ENDBRANCH  11  12
ENDBRANCH  10  11
ENDBRANCH   9  10
ENDBRANCH   8   9
ENDBRANCH   7   8
ENDBRANCH   6   7
ENDBRANCH   5   6
ENDBRANCH   4   5
ENDBRANCH   3   4
ENDBRANCH   2   3
TORSDOF 24
ENDMDL
MODEL      225
REMARK 921   NORMALIZED FREE ENERGY PREDICTED BY IDOCK:   12.30 KCAL/MOL
REMARK 922        TOTAL FREE ENERGY PREDICTED BY IDOCK:   27.27 KCAL/MOL
REMARK 923 INTER-LIGAND FREE ENERGY PREDICTED BY IDOCK:   16.33 KCAL/MOL
REMARK 924 INTRA-LIGAND FREE ENERGY PREDICTED BY IDOCK:   10.94 KCAL/MOL
REMARK 927      BINDING AFFINITY PREDICTED BY RF-SCORE:    0.00 PKD
ROOT
HETATM    1  C   UNL     1     -13.058   5.898  69.433  1.00  0.00     8.377 C  
HETATM    2  O   UNL     1     -12.887   6.572  68.194  1.00  0.00     5.462 OA 
ENDROOT
BRANCH   2   3
HETATM    3  C   UNL     1     -12.447   7.915  68.391  1.00  0.00     5.561 C  
BRANCH   3   4
HETATM    4  C   UNL     1     -11.198   7.912  69.259  1.00  0.00     0.261 C  
BRANCH   4   5
HETATM    5  O   UNL     1     -11.378   6.988  70.331  1.00  0.00    -0.286 OA 
BRANCH   5   6
HETATM    6  C   UNL     1     -11.991   7.620  71.452  1.00  0.00    -0.310 C  
BRANCH   6   7
HETATM    7  C   UNL     1     -13.459   7.871  71.153  1.00  0.00    -0.050 C  
BRANCH   7   8
HETATM    8  O   UNL     1     -13.970   8.772  72.133  1.00  0.00    -0.421 OA 
BRANCH   8   9
HETATM    9  C   UNL     1     -14.162  10.074  71.591  1.00  0.00     0.479 C  
BRANCH   9  10
HETATM   10  C   UNL     1     -13.642  11.099  72.583  1.00  0.00     1.052 C  
BRANCH  10  11
HETATM   11  O   UNL     1     -12.591  11.832  71.966  1.00  0.00    -0.091 OA 
BRANCH  11  12
HETATM   12  C   UNL     1     -11.933  11.054  70.973  1.00  0.00    -0.229 C  
BRANCH  12  13
HETATM   13  C   UNL     1     -12.143  11.717  69.622  1.00  0.00    -0.280 C  
BRANCH  13  14
HETATM   14  O   UNL     1     -11.067  11.376  68.759  1.00  0.00    -0.199 OA 
BRANCH  14  15
HETATM   15  C   UNL     1     -10.622  12.524  68.046  1.00  0.00    -0.223 C  
BRANCH  15  16
HETATM   16  C   UNL     1     -10.055  12.114  66.698  1.00  0.00    -0.199 C  
BRANCH  16  17
HETATM   17  O   UNL     1      -9.129  13.117  66.301  1.00  0.00    -0.127 OA 
BRANCH  17  18
HETATM   18  C   UNL     1      -9.474  14.400  66.799  1.00  0.00    -0.267 C  
BRANCH  18  19
HETATM   19  C   UNL     1      -8.403  15.374  66.346  1.00  0.00    -0.045 C  
BRANCH  19  20
HETATM   20  O   UNL     1      -7.116  14.822  66.591  1.00  0.00     0.357 OA 
BRANCH  20  21
HETATM   21  C   UNL     1      -7.172  13.725  67.500  1.00  0.00    -0.158 C  
BRANCH  21  22
HETATM   22  C   UNL     1      -7.329  14.217  68.943  1.00  0.00    -0.126 C  
BRANCH  22  23
HETATM   23  O   UNL     1      -6.780  13.348  69.967  1.00  0.00     0.058 OA 
BRANCH  23  24
HETATM   24  C   UNL     1      -6.142  12.149  69.463  1.00  0.00    -0.117 C  
HETATM   25  C   UNL     1      -5.644  11.304  70.602  1.00  0.00    -0.133 C  
HETATM   26  C   UNL     1      -6.711  10.186  71.141  1.00  0.00     0.380 C  
HETATM   27  C   UNL     1      -7.485   9.210  70.063  1.00  0.00    -0.077 C  
HETATM   28  C   UNL     1      -7.372   7.595  69.663  1.00  0.00    -0.089 C  
HETATM   29  O   UNL     1      -8.868   9.560  70.208  1.00  0.00    -0.216 OA 
HETATM   30  C   UNL     1      -8.365   7.025  68.646  1.00  0.00    -0.122 C  
HETATM   31  H   UNL     1      -9.315   8.997  69.586  1.00  0.00     0.000 HD 
HETATM   32  C   UNL     1      -8.295   7.992  67.489  1.00  0.00    -0.123 A  
HETATM   33  C   UNL     1      -9.094   7.854  66.371  1.00  0.00    -0.221 A  
HETATM   34  C   UNL     1      -9.269   8.906  65.483  1.00  0.00    -0.242 A  
HETATM   35  C   UNL     1      -8.647  10.163  65.725  1.00  0.00    -0.149 A  
HETATM   36  O   UNL     1      -9.018  11.247  64.991  1.00  0.00    -0.355 OA 
HETATM   37  C   UNL     1      -7.745  10.273  66.780  1.00  0.00    -0.111 A  
HETATM   38  H   UNL     1      -8.603  12.086  65.153  1.00  0.00     0.000 HD 
HETATM   39  C   UNL     1      -7.507   9.200  67.649  1.00  0.00    -0.084 A  
HETATM   40  C   UNL     1      -6.737   9.643  68.864  1.00  0.00    -0.046 C  
HETATM   41  C   UNL     1      -7.054  11.198  68.657  1.00  0.00    -0.090 C  
HETATM   42  C   UNL     1      -5.200   8.826  69.339  1.00  0.00    -0.035 C  
HETATM   43  O   UNL     1      -7.144  11.439  67.226  1.00  0.00    -0.102 OA 
HETATM   44  C   UNL     1      -5.362   7.535  70.582  1.00  0.00    -0.023 C  
HETATM   45  N   UNL     1      -6.650   6.800  70.606  1.00  0.00    -0.051 NA 
BRANCH  45  46
HETATM   46  C   UNL     1      -7.465   6.689  71.802  1.00  0.00    -0.091 C  
BRANCH  46  47
HETATM   47  C   UNL     1      -7.965   5.313  72.095  1.00  0.00    -0.110 C  
HETATM   48  C   UNL     1      -7.661   4.250  71.344  1.00  0.00    -0.064 C  
ENDBRANCH  46  47
ENDBRANCH  45  46
ENDBRANCH  23  24
ENDBRANCH  22  23
ENDBRANCH  21  22
ENDBRANCH  20  21
ENDBRANCH  19  20
ENDBRANCH  18  19
ENDBRANCH  17  18
ENDBRANCH  16  17
ENDBRANCH  15  16
ENDBRANCH  14  15
ENDBRANCH  13  14
ENDBRANCH  12  13
ENDBRANCH  11  12
ENDBRANCH  10  11
ENDBRANCH   9  10
ENDBRANCH   8   9
ENDBRANCH   7   8
ENDBRANCH   6   7
ENDBRANCH   5   6
ENDBRANCH   4   5
ENDBRANCH   3   4
ENDBRANCH   2   3
TORSDOF 24
ENDMDL
MODEL      226
REMARK 921   NORMALIZED FREE ENERGY PREDICTED BY IDOCK:   12.51 KCAL/MOL
REMARK 922        TOTAL FREE ENERGY PREDICTED BY IDOCK:   27.78 KCAL/MOL
REMARK 923 INTER-LIGAND FREE ENERGY PREDICTED BY IDOCK:    6.67 KCAL/MOL
REMARK 924 INTRA-LIGAND FREE ENERGY PREDICTED BY IDOCK:   21.11 KCAL/MOL
REMARK 927      BINDING AFFINITY PREDICTED BY RF-SCORE:    0.00 PKD
ROOT
HETATM    1  C   UNL     1      -7.311   2.603  71.150  1.00  0.00    -0.033 C  
HETATM    2  O   UNL     1      -7.790   3.078  69.899  1.00  0.00    -0.043 OA 
ENDROOT
BRANCH   2   3
HETATM    3  C   UNL     1      -6.715   3.349  69.001  1.00  0.00    -0.037 C  
BRANCH   3   4
HETATM    4  C   UNL     1      -6.395   4.836  69.036  1.00  0.00    -0.032 C  
BRANCH   4   5
HETATM    5  O   UNL     1      -7.432   5.519  69.739  1.00  0.00    -0.067 OA 
BRANCH   5   6
HETATM    6  C   UNL     1      -8.594   4.701  69.855  1.00  0.00    -0.073 C  
BRANCH   6   7
HETATM    7  C   UNL     1      -9.810   5.580  70.096  1.00  0.00    -0.198 C  
BRANCH   7   8
HETATM    8  O   UNL     1      -9.366   6.921  70.284  1.00  0.00    -0.162 OA 
BRANCH   8   9
HETATM    9  C   UNL     1     -10.111   7.577  71.303  1.00  0.00    -0.187 C  
BRANCH   9  10
HETATM   10  C   UNL     1     -11.587   7.513  70.949  1.00  0.00    -0.286 C  
BRANCH  10  11
HETATM   11  O   UNL     1     -12.304   7.059  72.090  1.00  0.00    -0.275 OA 
BRANCH  11  12
HETATM   12  C   UNL     1     -12.499   8.109  73.030  1.00  0.00     0.479 C  
BRANCH  12  13
HETATM   13  C   UNL     1     -13.973   8.475  73.047  1.00  0.00     0.332 C  
BRANCH  13  14
HETATM   14  O   UNL     1     -14.164   9.693  72.341  1.00  0.00    -0.183 OA 
BRANCH  14  15
HETATM   15  C   UNL     1     -13.258  10.685  72.810  1.00  0.00     1.327 C  
BRANCH  15  16
HETATM   16  C   UNL     1     -12.146  10.898  71.798  1.00  0.00     0.358 C  
BRANCH  16  17
HETATM   17  O   UNL     1     -11.858  12.290  71.767  1.00  0.00     1.161 OA 
BRANCH  17  18
HETATM   18  C   UNL     1     -11.309  12.702  70.526  1.00  0.00     0.881 C  
BRANCH  18  19
HETATM   19  C   UNL     1     -10.341  13.837  70.802  1.00  0.00     3.099 C  
BRANCH  19  20
HETATM   20  O   UNL     1     -11.049  15.067  70.869  1.00  0.00    -0.267 OA 
BRANCH  20  21
HETATM   21  C   UNL     1     -12.449  14.887  70.660  1.00  0.00    -0.352 C  
BRANCH  21  22
HETATM   22  C   UNL     1     -12.720  13.633  69.822  1.00  0.00     0.179 C  
BRANCH  22  23
HETATM   23  O   UNL     1     -12.564  13.790  68.388  1.00  0.00     0.108 OA 
BRANCH  23  24
HETATM   24  C   UNL     1     -11.219  14.109  67.958  1.00  0.00    -0.281 C  
HETATM   25  C   UNL     1     -10.229  13.749  69.031  1.00  0.00    -0.040 C  
HETATM   26  C   UNL     1      -9.619  12.235  68.917  1.00  0.00     0.165 C  
HETATM   27  C   UNL     1      -9.046  11.691  67.472  1.00  0.00    -0.172 C  
HETATM   28  C   UNL     1      -7.524  11.379  66.864  1.00  0.00    -0.147 C  
HETATM   29  O   UNL     1      -9.914  10.598  67.142  1.00  0.00    -0.184 OA 
HETATM   30  C   UNL     1      -7.410  10.771  65.463  1.00  0.00     0.016 C  
HETATM   31  H   UNL     1      -9.583  10.284  66.308  1.00  0.00     0.000 HD 
HETATM   32  C   UNL     1      -8.286  11.656  64.611  1.00  0.00     1.071 A  
HETATM   33  C   UNL     1      -8.493  11.407  63.268  1.00  0.00     0.357 A  
HETATM   34  C   UNL     1      -9.541  12.005  62.582  1.00  0.00     0.787 A  
HETATM   35  C   UNL     1     -10.444  12.870  63.261  1.00  0.00     0.627 A  
HETATM   36  O   UNL     1     -11.597  13.251  62.647  1.00  0.00    -0.289 OA 
HETATM   37  C   UNL     1     -10.171  13.223  64.581  1.00  0.00    -0.313 A  
HETATM   38  H   UNL     1     -12.200  13.829  63.100  1.00  0.00     0.000 HD 
HETATM   39  C   UNL     1      -9.080  12.677  65.269  1.00  0.00     0.659 A  
HETATM   40  C   UNL     1      -9.163  12.971  66.742  1.00  0.00    -0.229 C  
HETATM   41  C   UNL     1     -10.719  13.345  66.711  1.00  0.00    -0.277 C  
HETATM   42  C   UNL     1      -7.796  13.768  67.611  1.00  0.00    -0.185 C  
HETATM   43  O   UNL     1     -10.997  13.953  65.421  1.00  0.00    -0.300 OA 
HETATM   44  C   UNL     1      -6.658  12.654  68.448  1.00  0.00    -0.081 C  
HETATM   45  N   UNL     1      -6.495  11.307  67.852  1.00  0.00    -0.057 NA 
BRANCH  45  46
HETATM   46  C   UNL     1      -6.699  10.085  68.610  1.00  0.00    -0.053 C  
BRANCH  46  47
HETATM   47  C   UNL     1      -6.795   8.844  67.787  1.00  0.00    -0.070 C  
HETATM   48  C   UNL     1      -6.166   8.692  66.617  1.00  0.00    -0.058 C  
ENDBRANCH  46  47
ENDBRANCH  45  46
ENDBRANCH  23  24
ENDBRANCH  22  23
ENDBRANCH  21  22
ENDBRANCH  20  21
ENDBRANCH  19  20
ENDBRANCH  18  19
ENDBRANCH  17  18
ENDBRANCH  16  17
ENDBRANCH  15  16
ENDBRANCH  14  15
ENDBRANCH  13  14
ENDBRANCH  12  13
ENDBRANCH  11  12
ENDBRANCH  10  11
ENDBRANCH   9  10
ENDBRANCH   8   9
ENDBRANCH   7   8
ENDBRANCH   6   7
ENDBRANCH   5   6
ENDBRANCH   4   5
ENDBRANCH   3   4
ENDBRANCH   2   3
TORSDOF 24
ENDMDL
MODEL      227
REMARK 921   NORMALIZED FREE ENERGY PREDICTED BY IDOCK:   12.65 KCAL/MOL
REMARK 922        TOTAL FREE ENERGY PREDICTED BY IDOCK:   28.11 KCAL/MOL
REMARK 923 INTER-LIGAND FREE ENERGY PREDICTED BY IDOCK:   14.07 KCAL/MOL
REMARK 924 INTRA-LIGAND FREE ENERGY PREDICTED BY IDOCK:   14.05 KCAL/MOL
REMARK 927      BINDING AFFINITY PREDICTED BY RF-SCORE:    0.00 PKD
ROOT
HETATM    1  C   UNL     1      -9.910  19.382  66.913  1.00  0.00    -0.352 C  
HETATM    2  O   UNL     1     -10.181  18.007  66.674  1.00  0.00    -0.338 OA 
ENDROOT
BRANCH   2   3
HETATM    3  C   UNL     1     -11.105  17.488  67.628  1.00  0.00     0.047 C  
BRANCH   3   4
HETATM    4  C   UNL     1     -10.561  17.717  69.031  1.00  0.00    -0.081 C  
BRANCH   4   5
HETATM    5  O   UNL     1      -9.151  17.923  68.955  1.00  0.00    -0.238 OA 
BRANCH   5   6
HETATM    6  C   UNL     1      -8.484  16.736  68.538  1.00  0.00    -0.244 C  
BRANCH   6   7
HETATM    7  C   UNL     1      -9.504  15.633  68.311  1.00  0.00    -0.200 C  
BRANCH   7   8
HETATM    8  O   UNL     1      -9.020  14.440  68.922  1.00  0.00    -0.159 OA 
BRANCH   8   9
HETATM    9  C   UNL     1      -8.415  13.577  67.966  1.00  0.00    -0.176 C  
BRANCH   9  10
HETATM   10  C   UNL     1      -9.505  12.825  67.223  1.00  0.00    -0.204 C  
BRANCH  10  11
HETATM   11  O   UNL     1     -10.702  13.589  67.286  1.00  0.00    -0.264 OA 
BRANCH  11  12
HETATM   12  C   UNL     1     -11.628  13.024  68.207  1.00  0.00    -0.340 C  
BRANCH  12  13
HETATM   13  C   UNL     1     -12.368  11.892  67.515  1.00  0.00     0.897 C  
BRANCH  13  14
HETATM   14  O   UNL     1     -12.686  10.886  68.467  1.00  0.00     0.186 OA 
BRANCH  14  15
HETATM   15  C   UNL     1     -13.483  11.427  69.513  1.00  0.00     2.683 C  
BRANCH  15  16
HETATM   16  C   UNL     1     -12.921  11.016  70.863  1.00  0.00    -0.224 C  
BRANCH  16  17
HETATM   17  O   UNL     1     -13.522   9.776  71.216  1.00  0.00    -0.376 OA 
BRANCH  17  18
HETATM   18  C   UNL     1     -13.156   9.348  72.518  1.00  0.00    -0.299 C  
BRANCH  18  19
HETATM   19  C   UNL     1     -11.947   8.441  72.383  1.00  0.00    -0.384 C  
BRANCH  19  20
HETATM   20  O   UNL     1     -12.053   7.360  73.299  1.00  0.00     0.390 OA 
BRANCH  20  21
HETATM   21  C   UNL     1     -10.891   6.533  73.283  1.00  0.00    -0.248 C  
BRANCH  21  22
HETATM   22  C   UNL     1      -9.727   7.238  72.578  1.00  0.00    -0.154 C  
BRANCH  22  23
HETATM   23  O   UNL     1     -10.009   7.736  71.245  1.00  0.00    -0.175 OA 
BRANCH  23  24
HETATM   24  C   UNL     1     -10.226   6.707  70.250  1.00  0.00    -0.188 C  
HETATM   25  C   UNL     1     -11.291   7.136  69.279  1.00  0.00     0.041 C  
HETATM   26  C   UNL     1     -10.734   7.921  67.956  1.00  0.00    -0.119 C  
HETATM   27  C   UNL     1      -9.471   7.292  67.105  1.00  0.00    -0.145 C  
HETATM   28  C   UNL     1      -9.322   6.552  65.618  1.00  0.00     0.262 C  
HETATM   29  O   UNL     1      -8.434   8.274  67.245  1.00  0.00    -0.122 OA 
HETATM   30  C   UNL     1      -7.920   6.187  65.124  1.00  0.00    -0.117 C  
HETATM   31  H   UNL     1      -7.706   7.911  66.754  1.00  0.00     0.000 HD 
HETATM   32  C   UNL     1      -7.306   5.447  66.288  1.00  0.00    -0.082 A  
HETATM   33  C   UNL     1      -6.003   4.987  66.258  1.00  0.00    -0.023 A  
HETATM   34  C   UNL     1      -5.348   4.619  67.424  1.00  0.00    -0.012 A  
HETATM   35  C   UNL     1      -6.001   4.736  68.684  1.00  0.00    -0.026 A  
HETATM   36  O   UNL     1      -5.276   4.609  69.828  1.00  0.00     0.000 OA 
HETATM   37  C   UNL     1      -7.350   5.081  68.711  1.00  0.00    -0.062 A  
HETATM   38  H   UNL     1      -5.712   4.687  70.669  1.00  0.00     0.000 HD 
HETATM   39  C   UNL     1      -8.045   5.394  67.535  1.00  0.00    -0.101 A  
HETATM   40  C   UNL     1      -9.381   6.014  67.841  1.00  0.00    -0.110 C  
HETATM   41  C   UNL     1      -9.011   6.377  69.355  1.00  0.00    -0.131 C  
HETATM   42  C   UNL     1     -10.903   5.332  67.151  1.00  0.00     0.002 C  
HETATM   43  O   UNL     1      -8.104   5.351  69.842  1.00  0.00    -0.086 OA 
HETATM   44  C   UNL     1     -11.489   6.120  65.644  1.00  0.00     3.045 C  
HETATM   45  N   UNL     1     -10.455   6.709  64.761  1.00  0.00     4.431 NA 
BRANCH  45  46
HETATM   46  C   UNL     1     -10.490   8.096  64.330  1.00  0.00     7.735 C  
BRANCH  46  47
HETATM   47  C   UNL     1      -9.868   9.065  65.280  1.00  0.00     0.308 C  
HETATM   48  C   UNL     1      -8.639   8.909  65.783  1.00  0.00    -0.181 C  
ENDBRANCH  46  47
ENDBRANCH  45  46
ENDBRANCH  23  24
ENDBRANCH  22  23
ENDBRANCH  21  22
ENDBRANCH  20  21
ENDBRANCH  19  20
ENDBRANCH  18  19
ENDBRANCH  17  18
ENDBRANCH  16  17
ENDBRANCH  15  16
ENDBRANCH  14  15
ENDBRANCH  13  14
ENDBRANCH  12  13
ENDBRANCH  11  12
ENDBRANCH  10  11
ENDBRANCH   9  10
ENDBRANCH   8   9
ENDBRANCH   7   8
ENDBRANCH   6   7
ENDBRANCH   5   6
ENDBRANCH   4   5
ENDBRANCH   3   4
ENDBRANCH   2   3
TORSDOF 24
ENDMDL
MODEL      228
REMARK 921   NORMALIZED FREE ENERGY PREDICTED BY IDOCK:   12.73 KCAL/MOL
REMARK 922        TOTAL FREE ENERGY PREDICTED BY IDOCK:   28.31 KCAL/MOL
REMARK 923 INTER-LIGAND FREE ENERGY PREDICTED BY IDOCK:    1.65 KCAL/MOL
REMARK 924 INTRA-LIGAND FREE ENERGY PREDICTED BY IDOCK:   26.65 KCAL/MOL
REMARK 927      BINDING AFFINITY PREDICTED BY RF-SCORE:    0.00 PKD
ROOT
HETATM    1  C   UNL     1      -8.081   1.876  67.726  1.00  0.00    -0.060 C  
HETATM    2  O   UNL     1      -8.472   2.705  68.812  1.00  0.00    -0.062 OA 
ENDROOT
BRANCH   2   3
HETATM    3  C   UNL     1      -8.667   1.943  70.002  1.00  0.00    -0.057 C  
BRANCH   3   4
HETATM    4  C   UNL     1      -8.348   2.809  71.212  1.00  0.00    -0.062 C  
BRANCH   4   5
HETATM    5  O   UNL     1      -7.909   4.091  70.763  1.00  0.00    -0.051 OA 
BRANCH   5   6
HETATM    6  C   UNL     1      -7.595   4.937  71.865  1.00  0.00    -0.097 C  
BRANCH   6   7
HETATM    7  C   UNL     1      -7.474   6.373  71.383  1.00  0.00    -0.089 C  
BRANCH   7   8
HETATM    8  O   UNL     1      -6.302   6.944  71.960  1.00  0.00    -0.044 OA 
BRANCH   8   9
HETATM    9  C   UNL     1      -5.150   6.674  71.170  1.00  0.00    -0.019 C  
BRANCH   9  10
HETATM   10  C   UNL     1      -5.568   5.864  69.955  1.00  0.00    -0.012 C  
BRANCH  10  11
HETATM   11  O   UNL     1      -5.904   6.764  68.907  1.00  0.00    -0.017 OA 
BRANCH  11  12
HETATM   12  C   UNL     1      -5.409   8.072  69.171  1.00  0.00    -0.026 C  
BRANCH  12  13
HETATM   13  C   UNL     1      -5.299   8.821  67.854  1.00  0.00    -0.035 C  
BRANCH  13  14
HETATM   14  O   UNL     1      -5.786  10.145  68.023  1.00  0.00    -0.039 OA 
BRANCH  14  15
HETATM   15  C   UNL     1      -5.986  10.427  69.403  1.00  0.00    -0.038 C  
BRANCH  15  16
HETATM   16  C   UNL     1      -5.590  11.862  69.706  1.00  0.00    -0.096 C  
BRANCH  16  17
HETATM   17  O   UNL     1      -6.519  12.710  69.044  1.00  0.00    -0.085 OA 
BRANCH  17  18
HETATM   18  C   UNL     1      -7.431  11.987  68.234  1.00  0.00    -0.106 C  
BRANCH  18  19
HETATM   19  C   UNL     1      -7.250  12.459  66.803  1.00  0.00     0.237 C  
BRANCH  19  20
HETATM   20  O   UNL     1      -8.475  12.987  66.313  1.00  0.00     0.251 OA 
BRANCH  20  21
HETATM   21  C   UNL     1      -9.603  12.281  66.828  1.00  0.00    -0.218 C  
BRANCH  21  22
HETATM   22  C   UNL     1     -10.361  11.566  65.705  1.00  0.00    -0.261 C  
BRANCH  22  23
HETATM   23  O   UNL     1     -10.315  10.116  65.740  1.00  0.00    -0.234 OA 
BRANCH  23  24
HETATM   24  C   UNL     1      -9.528   9.563  66.823  1.00  0.00    -0.167 C  
HETATM   25  C   UNL     1     -10.159   9.893  68.147  1.00  0.00    -0.193 C  
HETATM   26  C   UNL     1     -11.215   8.772  68.700  1.00  0.00     0.401 C  
HETATM   27  C   UNL     1     -10.789   7.180  68.704  1.00  0.00    -0.108 C  
HETATM   28  C   UNL     1     -10.393   6.084  69.896  1.00  0.00    -0.227 C  
HETATM   29  O   UNL     1     -11.717   6.570  67.796  1.00  0.00    -0.552 OA 
HETATM   30  C   UNL     1     -10.145   4.627  69.492  1.00  0.00    -0.212 C  
HETATM   31  H   UNL     1     -11.470   5.652  67.799  1.00  0.00     0.000 HD 
HETATM   32  C   UNL     1      -9.170   4.729  68.345  1.00  0.00    -0.162 A  
HETATM   33  C   UNL     1      -8.728   3.615  67.658  1.00  0.00    -0.125 A  
HETATM   34  C   UNL     1      -8.114   3.734  66.420  1.00  0.00    -0.097 A  
HETATM   35  C   UNL     1      -7.951   5.014  65.818  1.00  0.00    -0.107 A  
HETATM   36  O   UNL     1      -7.577   5.098  64.513  1.00  0.00    -0.073 OA 
HETATM   37  C   UNL     1      -8.281   6.149  66.555  1.00  0.00    -0.111 A  
HETATM   38  H   UNL     1      -7.469   5.952  64.111  1.00  0.00     0.000 HD 
HETATM   39  C   UNL     1      -8.843   6.048  67.835  1.00  0.00    -0.110 A  
HETATM   40  C   UNL     1      -9.381   7.374  68.300  1.00  0.00    -0.140 C  
HETATM   41  C   UNL     1      -9.404   8.023  66.838  1.00  0.00    -0.164 C  
HETATM   42  C   UNL     1      -8.865   8.085  69.876  1.00  0.00    -0.144 C  
HETATM   43  O   UNL     1      -8.297   7.453  66.088  1.00  0.00    -0.124 OA 
HETATM   44  C   UNL     1      -9.964   7.765  71.265  1.00  0.00    -0.175 C  
HETATM   45  N   UNL     1     -10.733   6.498  71.220  1.00  0.00    -0.231 NA 
BRANCH  45  46
HETATM   46  C   UNL     1     -12.180   6.456  71.335  1.00  0.00    -0.131 C  
BRANCH  46  47
HETATM   47  C   UNL     1     -12.918   6.670  70.056  1.00  0.00     2.026 C  
HETATM   48  C   UNL     1     -12.898   7.826  69.384  1.00  0.00     3.799 C  
ENDBRANCH  46  47
ENDBRANCH  45  46
ENDBRANCH  23  24
ENDBRANCH  22  23
ENDBRANCH  21  22
ENDBRANCH  20  21
ENDBRANCH  19  20
ENDBRANCH  18  19
ENDBRANCH  17  18
ENDBRANCH  16  17
ENDBRANCH  15  16
ENDBRANCH  14  15
ENDBRANCH  13  14
ENDBRANCH  12  13
ENDBRANCH  11  12
ENDBRANCH  10  11
ENDBRANCH   9  10
ENDBRANCH   8   9
ENDBRANCH   7   8
ENDBRANCH   6   7
ENDBRANCH   5   6
ENDBRANCH   4   5
ENDBRANCH   3   4
ENDBRANCH   2   3
TORSDOF 24
ENDMDL
MODEL      229
REMARK 921   NORMALIZED FREE ENERGY PREDICTED BY IDOCK:   12.86 KCAL/MOL
REMARK 922        TOTAL FREE ENERGY PREDICTED BY IDOCK:   28.62 KCAL/MOL
REMARK 923 INTER-LIGAND FREE ENERGY PREDICTED BY IDOCK:   16.59 KCAL/MOL
REMARK 924 INTRA-LIGAND FREE ENERGY PREDICTED BY IDOCK:   12.03 KCAL/MOL
REMARK 927      BINDING AFFINITY PREDICTED BY RF-SCORE:    0.00 PKD
ROOT
HETATM    1  C   UNL     1      -6.304  14.527  68.891  1.00  0.00    -0.089 C  
HETATM    2  O   UNL     1      -5.490  13.363  68.943  1.00  0.00    -0.071 OA 
ENDROOT
BRANCH   2   3
HETATM    3  C   UNL     1      -5.932  12.467  69.960  1.00  0.00    -0.149 C  
BRANCH   3   4
HETATM    4  C   UNL     1      -5.330  11.091  69.714  1.00  0.00    -0.044 C  
BRANCH   4   5
HETATM    5  O   UNL     1      -6.379  10.124  69.684  1.00  0.00    -0.046 OA 
BRANCH   5   6
HETATM    6  C   UNL     1      -7.051  10.061  70.939  1.00  0.00     0.266 C  
BRANCH   6   7
HETATM    7  C   UNL     1      -8.245   9.126  70.828  1.00  0.00    -0.190 C  
BRANCH   7   8
HETATM    8  O   UNL     1      -8.967   9.172  72.056  1.00  0.00    -0.337 OA 
BRANCH   8   9
HETATM    9  C   UNL     1      -9.215   7.865  72.561  1.00  0.00    -0.190 C  
BRANCH   9  10
HETATM   10  C   UNL     1      -8.134   6.928  72.049  1.00  0.00    -0.099 C  
BRANCH  10  11
HETATM   11  O   UNL     1      -7.536   7.515  70.901  1.00  0.00    -0.071 OA 
BRANCH  11  12
HETATM   12  C   UNL     1      -6.976   6.524  70.046  1.00  0.00    -0.063 C  
BRANCH  12  13
HETATM   13  C   UNL     1      -6.083   7.212  69.029  1.00  0.00    -0.023 C  
BRANCH  13  14
HETATM   14  O   UNL     1      -5.154   6.272  68.506  1.00  0.00    -0.006 OA 
BRANCH  14  15
HETATM   15  C   UNL     1      -5.831   5.273  67.752  1.00  0.00    -0.018 C  
BRANCH  15  16
HETATM   16  C   UNL     1      -7.322   5.559  67.727  1.00  0.00    -0.076 C  
BRANCH  16  17
HETATM   17  O   UNL     1      -7.535   6.643  66.831  1.00  0.00    -0.083 OA 
BRANCH  17  18
HETATM   18  C   UNL     1      -7.801   7.860  67.508  1.00  0.00    -0.122 C  
BRANCH  18  19
HETATM   19  C   UNL     1      -7.572   8.994  66.526  1.00  0.00    -0.089 C  
BRANCH  19  20
HETATM   20  O   UNL     1      -6.380   8.759  65.790  1.00  0.00    -0.055 OA 
BRANCH  20  21
HETATM   21  C   UNL     1      -6.536   9.078  64.408  1.00  0.00    -0.075 C  
BRANCH  21  22
HETATM   22  C   UNL     1      -6.351  10.580  64.169  1.00  0.00     0.038 C  
BRANCH  22  23
HETATM   23  O   UNL     1      -6.935  11.452  65.170  1.00  0.00     0.713 OA 
BRANCH  23  24
HETATM   24  C   UNL     1      -7.865  12.433  64.648  1.00  0.00     4.405 C  
HETATM   25  C   UNL     1      -9.168  11.776  64.288  1.00  0.00     0.236 C  
HETATM   26  C   UNL     1     -10.279  11.757  65.489  1.00  0.00    -0.291 C  
HETATM   27  C   UNL     1     -10.603  13.139  66.325  1.00  0.00    -0.284 C  
HETATM   28  C   UNL     1     -11.891  14.197  66.373  1.00  0.00    -0.423 C  
HETATM   29  O   UNL     1     -10.194  12.838  67.666  1.00  0.00    -0.213 OA 
HETATM   30  C   UNL     1     -11.851  15.347  67.384  1.00  0.00     0.083 C  
HETATM   31  H   UNL     1     -10.380  13.636  68.148  1.00  0.00     0.000 HD 
HETATM   32  C   UNL     1     -10.496  15.975  67.167  1.00  0.00    -0.308 A  
HETATM   33  C   UNL     1     -10.048  17.032  67.935  1.00  0.00    -0.306 A  
HETATM   34  C   UNL     1      -8.705  17.378  67.962  1.00  0.00    -0.241 A  
HETATM   35  C   UNL     1      -7.753  16.627  67.216  1.00  0.00    -0.169 A  
HETATM   36  O   UNL     1      -6.425  16.816  67.440  1.00  0.00    -0.133 OA 
HETATM   37  C   UNL     1      -8.211  15.640  66.346  1.00  0.00    -0.098 A  
HETATM   38  H   UNL     1      -5.790  16.315  66.942  1.00  0.00     0.000 HD 
HETATM   39  C   UNL     1      -9.573  15.321  66.259  1.00  0.00    -0.331 A  
HETATM   40  C   UNL     1      -9.785  14.045  65.491  1.00  0.00    -0.141 C  
HETATM   41  C   UNL     1      -8.268  13.557  65.628  1.00  0.00     2.865 C  
HETATM   42  C   UNL     1     -10.897  13.989  64.070  1.00  0.00     0.286 C  
HETATM   43  O   UNL     1      -7.426  14.743  65.639  1.00  0.00     3.634 OA 
HETATM   44  C   UNL     1     -12.569  13.422  64.418  1.00  0.00    -0.190 C  
HETATM   45  N   UNL     1     -13.090  13.699  65.777  1.00  0.00    -0.385 NA 
BRANCH  45  46
HETATM   46  C   UNL     1     -13.611  12.656  66.644  1.00  0.00     6.331 C  
BRANCH  46  47
HETATM   47  C   UNL     1     -12.648  11.559  66.955  1.00  0.00     2.881 C  
HETATM   48  C   UNL     1     -12.218  11.293  68.192  1.00  0.00     0.256 C  
ENDBRANCH  46  47
ENDBRANCH  45  46
ENDBRANCH  23  24
ENDBRANCH  22  23
ENDBRANCH  21  22
ENDBRANCH  20  21
ENDBRANCH  19  20
ENDBRANCH  18  19
ENDBRANCH  17  18
ENDBRANCH  16  17
ENDBRANCH  15  16
ENDBRANCH  14  15
ENDBRANCH  13  14
ENDBRANCH  12  13
ENDBRANCH  11  12
ENDBRANCH  10  11
ENDBRANCH   9  10
ENDBRANCH   8   9
ENDBRANCH   7   8
ENDBRANCH   6   7
ENDBRANCH   5   6
ENDBRANCH   4   5
ENDBRANCH   3   4
ENDBRANCH   2   3
TORSDOF 24
ENDMDL
MODEL      230
REMARK 921   NORMALIZED FREE ENERGY PREDICTED BY IDOCK:   13.30 KCAL/MOL
REMARK 922        TOTAL FREE ENERGY PREDICTED BY IDOCK:   29.67 KCAL/MOL
REMARK 923 INTER-LIGAND FREE ENERGY PREDICTED BY IDOCK:    2.72 KCAL/MOL
REMARK 924 INTRA-LIGAND FREE ENERGY PREDICTED BY IDOCK:   26.95 KCAL/MOL
REMARK 927      BINDING AFFINITY PREDICTED BY RF-SCORE:    0.00 PKD
ROOT
HETATM    1  C   UNL     1     -11.252  13.357  64.531  1.00  0.00    -0.372 C  
HETATM    2  O   UNL     1     -11.477  13.951  63.260  1.00  0.00     0.446 OA 
ENDROOT
BRANCH   2   3
HETATM    3  C   UNL     1     -12.827  13.771  62.834  1.00  0.00     1.688 C  
BRANCH   3   4
HETATM    4  C   UNL     1     -13.766  14.120  63.980  1.00  0.00     3.933 C  
BRANCH   4   5
HETATM    5  O   UNL     1     -13.128  13.805  65.217  1.00  0.00    -0.756 OA 
BRANCH   5   6
HETATM    6  C   UNL     1     -11.716  13.701  65.050  1.00  0.00    -0.339 C  
BRANCH   6   7
HETATM    7  C   UNL     1     -11.264  12.299  65.421  1.00  0.00    -0.328 C  
BRANCH   7   8
HETATM    8  O   UNL     1     -10.210  11.918  64.539  1.00  0.00    -0.261 OA 
BRANCH   8   9
HETATM    9  C   UNL     1     -10.332  10.557  64.143  1.00  0.00    -0.098 C  
BRANCH   9  10
HETATM   10  C   UNL     1      -9.929   9.669  65.307  1.00  0.00    -0.089 C  
BRANCH  10  11
HETATM   11  O   UNL     1     -10.329  10.301  66.516  1.00  0.00    -0.232 OA 
BRANCH  11  12
HETATM   12  C   UNL     1     -10.383   9.372  67.592  1.00  0.00    -0.246 C  
BRANCH  12  13
HETATM   13  C   UNL     1     -11.728   9.509  68.283  1.00  0.00     1.166 C  
BRANCH  13  14
HETATM   14  O   UNL     1     -11.679  10.593  69.200  1.00  0.00    -0.283 OA 
BRANCH  14  15
HETATM   15  C   UNL     1     -10.665  11.516  68.821  1.00  0.00    -0.211 C  
BRANCH  15  16
HETATM   16  C   UNL     1      -9.292  10.907  69.047  1.00  0.00    -0.131 C  
BRANCH  16  17
HETATM   17  O   UNL     1      -8.409  11.964  69.400  1.00  0.00     0.436 OA 
BRANCH  17  18
HETATM   18  C   UNL     1      -7.238  11.497  70.049  1.00  0.00     0.681 C  
BRANCH  18  19
HETATM   19  C   UNL     1      -6.328  12.690  70.276  1.00  0.00     0.146 C  
BRANCH  19  20
HETATM   20  O   UNL     1      -5.145  12.546  69.503  1.00  0.00    -0.069 OA 
BRANCH  20  21
HETATM   21  C   UNL     1      -5.238  11.458  68.584  1.00  0.00    -0.043 C  
BRANCH  21  22
HETATM   22  C   UNL     1      -5.815  10.213  69.268  1.00  0.00    -0.037 C  
BRANCH  22  23
HETATM   23  O   UNL     1      -5.144   9.797  70.485  1.00  0.00    -0.030 OA 
BRANCH  23  24
HETATM   24  C   UNL     1      -5.172   8.370  70.732  1.00  0.00    -0.025 C  
HETATM   25  C   UNL     1      -5.701   8.090  72.110  1.00  0.00    -0.037 C  
HETATM   26  C   UNL     1      -7.320   7.863  72.188  1.00  0.00    -0.092 C  
HETATM   27  C   UNL     1      -8.053   6.838  71.126  1.00  0.00    -0.111 C  
HETATM   28  C   UNL     1      -8.743   5.326  71.255  1.00  0.00    -0.129 C  
HETATM   29  O   UNL     1      -8.926   7.688  70.370  1.00  0.00    -0.149 OA 
HETATM   30  C   UNL     1      -9.428   4.731  70.021  1.00  0.00    -0.240 C  
HETATM   31  H   UNL     1      -9.349   7.097  69.757  1.00  0.00     0.000 HD 
HETATM   32  C   UNL     1      -8.404   4.893  68.924  1.00  0.00    -0.082 A  
HETATM   33  C   UNL     1      -8.663   4.518  67.619  1.00  0.00    -0.111 A  
HETATM   34  C   UNL     1      -7.871   4.969  66.574  1.00  0.00    -0.100 A  
HETATM   35  C   UNL     1      -6.785   5.855  66.825  1.00  0.00    -0.058 A  
HETATM   36  O   UNL     1      -6.175   6.480  65.782  1.00  0.00    -0.035 OA 
HETATM   37  C   UNL     1      -6.442   6.139  68.145  1.00  0.00    -0.049 A  
HETATM   38  H   UNL     1      -5.450   7.071  65.950  1.00  0.00     0.000 HD 
HETATM   39  C   UNL     1      -7.195   5.639  69.216  1.00  0.00    -0.066 A  
HETATM   40  C   UNL     1      -6.818   6.313  70.507  1.00  0.00    -0.062 C  
HETATM   41  C   UNL     1      -6.091   7.550  69.800  1.00  0.00    -0.027 C  
HETATM   42  C   UNL     1      -6.323   5.347  71.950  1.00  0.00    -0.039 C  
HETATM   43  O   UNL     1      -5.499   7.063  68.566  1.00  0.00    -0.016 OA 
HETATM   44  C   UNL     1      -7.631   5.006  73.138  1.00  0.00    -0.093 C  
HETATM   45  N   UNL     1      -9.006   4.906  72.594  1.00  0.00    -0.127 NA 
BRANCH  45  46
HETATM   46  C   UNL     1     -10.107   5.708  73.097  1.00  0.00    -0.181 C  
BRANCH  46  47
HETATM   47  C   UNL     1     -11.438   5.033  73.073  1.00  0.00    -0.344 C  
HETATM   48  C   UNL     1     -11.618   3.758  73.434  1.00  0.00    -0.079 C  
ENDBRANCH  46  47
ENDBRANCH  45  46
ENDBRANCH  23  24
ENDBRANCH  22  23
ENDBRANCH  21  22
ENDBRANCH  20  21
ENDBRANCH  19  20
ENDBRANCH  18  19
ENDBRANCH  17  18
ENDBRANCH  16  17
ENDBRANCH  15  16
ENDBRANCH  14  15
ENDBRANCH  13  14
ENDBRANCH  12  13
ENDBRANCH  11  12
ENDBRANCH  10  11
ENDBRANCH   9  10
ENDBRANCH   8   9
ENDBRANCH   7   8
ENDBRANCH   6   7
ENDBRANCH   5   6
ENDBRANCH   4   5
ENDBRANCH   3   4
ENDBRANCH   2   3
TORSDOF 24
ENDMDL
MODEL      231
REMARK 921   NORMALIZED FREE ENERGY PREDICTED BY IDOCK:   13.49 KCAL/MOL
REMARK 922        TOTAL FREE ENERGY PREDICTED BY IDOCK:   30.13 KCAL/MOL
REMARK 923 INTER-LIGAND FREE ENERGY PREDICTED BY IDOCK:   19.02 KCAL/MOL
REMARK 924 INTRA-LIGAND FREE ENERGY PREDICTED BY IDOCK:   11.11 KCAL/MOL
REMARK 927      BINDING AFFINITY PREDICTED BY RF-SCORE:    0.00 PKD
ROOT
HETATM    1  C   UNL     1     -12.349  10.430  63.208  1.00  0.00     5.024 C  
HETATM    2  O   UNL     1     -11.752  10.427  64.497  1.00  0.00     2.040 OA 
ENDROOT
BRANCH   2   3
HETATM    3  C   UNL     1     -12.398   9.499  65.366  1.00  0.00    11.317 C  
BRANCH   3   4
HETATM    4  C   UNL     1     -11.932   9.738  66.794  1.00  0.00     4.334 C  
BRANCH   4   5
HETATM    5  O   UNL     1     -11.307  11.018  66.871  1.00  0.00    -0.357 OA 
BRANCH   5   6
HETATM    6  C   UNL     1     -12.221  12.054  66.522  1.00  0.00     0.520 C  
BRANCH   6   7
HETATM    7  C   UNL     1     -11.685  12.822  65.325  1.00  0.00    -0.368 C  
BRANCH   7   8
HETATM    8  O   UNL     1     -11.198  14.082  65.780  1.00  0.00    -0.298 OA 
BRANCH   8   9
HETATM    9  C   UNL     1      -9.875  13.973  66.291  1.00  0.00    -0.305 C  
BRANCH   9  10
HETATM   10  C   UNL     1      -9.165  15.302  66.102  1.00  0.00    -0.310 C  
BRANCH  10  11
HETATM   11  O   UNL     1      -8.125  15.399  67.066  1.00  0.00    -0.198 OA 
BRANCH  11  12
HETATM   12  C   UNL     1      -8.223  16.606  67.813  1.00  0.00    -0.177 C  
BRANCH  12  13
HETATM   13  C   UNL     1      -7.717  16.346  69.221  1.00  0.00    -0.171 C  
BRANCH  13  14
HETATM   14  O   UNL     1      -6.644  15.417  69.172  1.00  0.00    -0.118 OA 
BRANCH  14  15
HETATM   15  C   UNL     1      -6.649  14.719  67.933  1.00  0.00    -0.161 C  
BRANCH  15  16
HETATM   16  C   UNL     1      -7.869  13.818  67.846  1.00  0.00    -0.159 C  
BRANCH  16  17
HETATM   17  O   UNL     1      -7.404  12.482  67.697  1.00  0.00    -0.109 OA 
BRANCH  17  18
HETATM   18  C   UNL     1      -6.072  12.423  67.215  1.00  0.00    -0.143 C  
BRANCH  18  19
HETATM   19  C   UNL     1      -5.162  12.173  68.402  1.00  0.00    -0.051 C  
BRANCH  19  20
HETATM   20  O   UNL     1      -5.876  12.395  69.611  1.00  0.00    -0.090 OA 
BRANCH  20  21
HETATM   21  C   UNL     1      -6.265  11.171  70.231  1.00  0.00    -0.134 C  
BRANCH  21  22
HETATM   22  C   UNL     1      -7.754  10.889  69.999  1.00  0.00     0.558 C  
BRANCH  22  23
HETATM   23  O   UNL     1      -8.054   9.878  69.003  1.00  0.00    -0.097 OA 
BRANCH  23  24
HETATM   24  C   UNL     1      -7.048   8.845  68.870  1.00  0.00    -0.066 C  
HETATM   25  C   UNL     1      -7.398   7.662  69.730  1.00  0.00    -0.081 C  
HETATM   26  C   UNL     1      -8.291   6.513  68.983  1.00  0.00    -0.116 C  
HETATM   27  C   UNL     1      -7.839   5.965  67.496  1.00  0.00    -0.098 C  
HETATM   28  C   UNL     1      -7.180   4.541  66.931  1.00  0.00    -0.076 C  
HETATM   29  O   UNL     1      -8.921   6.353  66.638  1.00  0.00    -0.130 OA 
HETATM   30  C   UNL     1      -6.990   4.377  65.420  1.00  0.00    -0.058 C  
HETATM   31  H   UNL     1      -8.659   6.037  65.781  1.00  0.00     0.000 HD 
HETATM   32  C   UNL     1      -6.275   5.639  65.004  1.00  0.00    -0.029 A  
HETATM   33  C   UNL     1      -5.961   5.903  63.685  1.00  0.00    -0.022 A  
HETATM   34  C   UNL     1      -5.620   7.182  63.272  1.00  0.00    -0.037 A  
HETATM   35  C   UNL     1      -5.614   8.261  64.201  1.00  0.00    -0.056 A  
HETATM   36  O   UNL     1      -5.521   9.538  63.745  1.00  0.00    -0.068 OA 
HETATM   37  C   UNL     1      -5.809   7.983  65.552  1.00  0.00    -0.037 A  
HETATM   38  H   UNL     1      -5.517  10.258  64.365  1.00  0.00     0.000 HD 
HETATM   39  C   UNL     1      -6.091   6.683  65.995  1.00  0.00    -0.034 A  
HETATM   40  C   UNL     1      -6.550   6.684  67.428  1.00  0.00    -0.057 C  
HETATM   41  C   UNL     1      -6.889   8.247  67.454  1.00  0.00    -0.070 C  
HETATM   42  C   UNL     1      -5.734   5.654  68.666  1.00  0.00    -0.018 C  
HETATM   43  O   UNL     1      -5.949   8.914  66.568  1.00  0.00    -0.054 OA 
HETATM   44  C   UNL     1      -6.513   4.064  68.983  1.00  0.00    -0.037 C  
HETATM   45  N   UNL     1      -7.247   3.450  67.851  1.00  0.00    -0.051 NA 
BRANCH  45  46
HETATM   46  C   UNL     1      -8.637   3.042  67.947  1.00  0.00    -0.095 C  
BRANCH  46  47
HETATM   47  C   UNL     1      -8.902   1.942  68.920  1.00  0.00    -0.135 C  
HETATM   48  C   UNL     1      -8.608   2.030  70.221  1.00  0.00    -0.099 C  
ENDBRANCH  46  47
ENDBRANCH  45  46
ENDBRANCH  23  24
ENDBRANCH  22  23
ENDBRANCH  21  22
ENDBRANCH  20  21
ENDBRANCH  19  20
ENDBRANCH  18  19
ENDBRANCH  17  18
ENDBRANCH  16  17
ENDBRANCH  15  16
ENDBRANCH  14  15
ENDBRANCH  13  14
ENDBRANCH  12  13
ENDBRANCH  11  12
ENDBRANCH  10  11
ENDBRANCH   9  10
ENDBRANCH   8   9
ENDBRANCH   7   8
ENDBRANCH   6   7
ENDBRANCH   5   6
ENDBRANCH   4   5
ENDBRANCH   3   4
ENDBRANCH   2   3
TORSDOF 24
ENDMDL
MODEL      232
REMARK 921   NORMALIZED FREE ENERGY PREDICTED BY IDOCK:   13.91 KCAL/MOL
REMARK 922        TOTAL FREE ENERGY PREDICTED BY IDOCK:   31.14 KCAL/MOL
REMARK 923 INTER-LIGAND FREE ENERGY PREDICTED BY IDOCK:   -0.23 KCAL/MOL
REMARK 924 INTRA-LIGAND FREE ENERGY PREDICTED BY IDOCK:   31.37 KCAL/MOL
REMARK 927      BINDING AFFINITY PREDICTED BY RF-SCORE:    0.00 PKD
ROOT
HETATM    1  C   UNL     1     -11.058  18.070  69.066  1.00  0.00     1.122 C  
HETATM    2  O   UNL     1      -9.650  18.264  69.043  1.00  0.00    -0.264 OA 
ENDROOT
BRANCH   2   3
HETATM    3  C   UNL     1      -9.264  19.361  69.869  1.00  0.00     0.715 C  
BRANCH   3   4
HETATM    4  C   UNL     1      -8.134  20.124  69.195  1.00  0.00     0.340 C  
BRANCH   4   5
HETATM    5  O   UNL     1      -7.117  19.202  68.806  1.00  0.00    -0.302 OA 
BRANCH   5   6
HETATM    6  C   UNL     1      -6.937  19.209  67.392  1.00  0.00    -0.207 C  
BRANCH   6   7
HETATM    7  C   UNL     1      -8.283  19.038  66.709  1.00  0.00    -0.279 C  
BRANCH   7   8
HETATM    8  O   UNL     1      -9.212  18.532  67.664  1.00  0.00    -0.277 OA 
BRANCH   8   9
HETATM    9  C   UNL     1      -8.547  18.014  68.810  1.00  0.00    -0.200 C  
BRANCH   9  10
HETATM   10  C   UNL     1      -8.252  16.542  68.584  1.00  0.00    -0.234 C  
BRANCH  10  11
HETATM   11  O   UNL     1      -7.913  16.355  67.216  1.00  0.00    -0.149 OA 
BRANCH  11  12
HETATM   12  C   UNL     1      -8.997  16.703  66.362  1.00  0.00    -0.291 C  
BRANCH  12  13
HETATM   13  C   UNL     1      -9.201  15.583  65.357  1.00  0.00     0.364 C  
BRANCH  13  14
HETATM   14  O   UNL     1      -9.740  14.448  66.020  1.00  0.00    -0.300 OA 
BRANCH  14  15
HETATM   15  C   UNL     1      -9.105  13.260  65.564  1.00  0.00     0.752 C  
BRANCH  15  16
HETATM   16  C   UNL     1      -9.662  12.054  66.301  1.00  0.00    -0.235 C  
BRANCH  16  17
HETATM   17  O   UNL     1     -10.997  12.364  66.681  1.00  0.00    -0.249 OA 
BRANCH  17  18
HETATM   18  C   UNL     1     -11.830  12.626  65.564  1.00  0.00    -0.431 C  
BRANCH  18  19
HETATM   19  C   UNL     1     -11.949  11.342  64.764  1.00  0.00     0.645 C  
BRANCH  19  20
HETATM   20  O   UNL     1     -10.835  10.502  65.036  1.00  0.00    -0.052 OA 
BRANCH  20  21
HETATM   21  C   UNL     1     -11.133   9.530  66.037  1.00  0.00     1.422 C  
BRANCH  21  22
HETATM   22  C   UNL     1     -10.007   8.497  66.149  1.00  0.00    -0.090 C  
BRANCH  22  23
HETATM   23  O   UNL     1      -9.601   8.154  67.499  1.00  0.00    -0.148 OA 
BRANCH  23  24
HETATM   24  C   UNL     1      -9.784   6.761  67.849  1.00  0.00    -0.127 C  
HETATM   25  C   UNL     1      -9.536   5.885  66.653  1.00  0.00    -0.174 C  
HETATM   26  C   UNL     1      -7.993   5.364  66.495  1.00  0.00    -0.105 C  
HETATM   27  C   UNL     1      -7.215   4.712  67.792  1.00  0.00    -0.066 C  
HETATM   28  C   UNL     1      -6.740   3.169  68.211  1.00  0.00    -0.045 C  
HETATM   29  O   UNL     1      -6.130   5.618  68.038  1.00  0.00    -0.017 OA 
HETATM   30  C   UNL     1      -5.928   2.981  69.496  1.00  0.00    -0.024 C  
HETATM   31  H   UNL     1      -5.681   5.242  68.786  1.00  0.00     0.000 HD 
HETATM   32  C   UNL     1      -6.721   3.729  70.540  1.00  0.00    -0.033 A  
HETATM   33  C   UNL     1      -6.288   3.843  71.847  1.00  0.00    -0.014 A  
HETATM   34  C   UNL     1      -6.830   4.792  72.701  1.00  0.00    -0.069 A  
HETATM   35  C   UNL     1      -7.831   5.691  72.235  1.00  0.00    -0.103 A  
HETATM   36  O   UNL     1      -8.175   6.764  72.996  1.00  0.00    -0.108 OA 
HETATM   37  C   UNL     1      -8.360   5.503  70.960  1.00  0.00    -0.121 A  
HETATM   38  H   UNL     1      -8.843   7.364  72.685  1.00  0.00     0.000 HD 
HETATM   39  C   UNL     1      -7.867   4.507  70.106  1.00  0.00    -0.060 A  
HETATM   40  C   UNL     1      -8.378   4.690  68.703  1.00  0.00    -0.084 C  
HETATM   41  C   UNL     1      -8.821   6.211  68.925  1.00  0.00    -0.122 C  
HETATM   42  C   UNL     1      -9.224   3.350  67.839  1.00  0.00    -0.237 C  
HETATM   43  O   UNL     1      -9.246   6.346  70.309  1.00  0.00    -0.153 OA 
HETATM   44  C   UNL     1      -8.189   2.355  66.755  1.00  0.00    -0.085 C  
HETATM   45  N   UNL     1      -6.762   2.229  67.136  1.00  0.00    -0.039 NA 
BRANCH  45  46
HETATM   46  C   UNL     1      -5.677   2.570  66.233  1.00  0.00    -0.022 C  
BRANCH  46  47
HETATM   47  C   UNL     1      -6.044   2.578  64.786  1.00  0.00    -0.019 C  
HETATM   48  C   UNL     1      -7.259   2.243  64.338  1.00  0.00    -0.054 C  
ENDBRANCH  46  47
ENDBRANCH  45  46
ENDBRANCH  23  24
ENDBRANCH  22  23
ENDBRANCH  21  22
ENDBRANCH  20  21
ENDBRANCH  19  20
ENDBRANCH  18  19
ENDBRANCH  17  18
ENDBRANCH  16  17
ENDBRANCH  15  16
ENDBRANCH  14  15
ENDBRANCH  13  14
ENDBRANCH  12  13
ENDBRANCH  11  12
ENDBRANCH  10  11
ENDBRANCH   9  10
ENDBRANCH   8   9
ENDBRANCH   7   8
ENDBRANCH   6   7
ENDBRANCH   5   6
ENDBRANCH   4   5
ENDBRANCH   3   4
ENDBRANCH   2   3
TORSDOF 24
ENDMDL
MODEL      233
REMARK 921   NORMALIZED FREE ENERGY PREDICTED BY IDOCK:   14.28 KCAL/MOL
REMARK 922        TOTAL FREE ENERGY PREDICTED BY IDOCK:   32.02 KCAL/MOL
REMARK 923 INTER-LIGAND FREE ENERGY PREDICTED BY IDOCK:    6.78 KCAL/MOL
REMARK 924 INTRA-LIGAND FREE ENERGY PREDICTED BY IDOCK:   25.24 KCAL/MOL
REMARK 927      BINDING AFFINITY PREDICTED BY RF-SCORE:    0.00 PKD
ROOT
HETATM    1  C   UNL     1      -5.710  16.618  68.144  1.00  0.00    -0.116 C  
HETATM    2  O   UNL     1      -6.339  15.352  67.997  1.00  0.00    -0.114 OA 
ENDROOT
BRANCH   2   3
HETATM    3  C   UNL     1      -5.403  14.288  68.159  1.00  0.00    -0.120 C  
BRANCH   3   4
HETATM    4  C   UNL     1      -5.762  13.488  69.403  1.00  0.00    -0.089 C  
BRANCH   4   5
HETATM    5  O   UNL     1      -6.906  14.077  70.020  1.00  0.00    -0.022 OA 
BRANCH   5   6
HETATM    6  C   UNL     1      -8.102  13.422  69.608  1.00  0.00     1.279 C  
BRANCH   6   7
HETATM    7  C   UNL     1      -8.907  14.351  68.715  1.00  0.00    -0.131 C  
BRANCH   7   8
HETATM    8  O   UNL     1     -10.184  13.760  68.486  1.00  0.00    -0.233 OA 
BRANCH   8   9
HETATM    9  C   UNL     1     -11.090  14.692  67.907  1.00  0.00    -0.291 C  
BRANCH   9  10
HETATM   10  C   UNL     1     -12.437  14.560  68.595  1.00  0.00     0.172 C  
BRANCH  10  11
HETATM   11  O   UNL     1     -12.568  15.617  69.536  1.00  0.00    -0.139 OA 
BRANCH  11  12
HETATM   12  C   UNL     1     -12.670  16.879  68.885  1.00  0.00     3.553 C  
BRANCH  12  13
HETATM   13  C   UNL     1     -11.401  17.112  68.083  1.00  0.00     0.197 C  
BRANCH  13  14
HETATM   14  O   UNL     1     -11.697  17.022  66.696  1.00  0.00     1.144 OA 
BRANCH  14  15
HETATM   15  C   UNL     1     -10.696  16.269  66.023  1.00  0.00    -0.214 C  
BRANCH  15  16
HETATM   16  C   UNL     1      -9.346  16.952  66.162  1.00  0.00    -0.236 C  
BRANCH  16  17
HETATM   17  O   UNL     1      -8.659  16.325  67.237  1.00  0.00    -0.171 OA 
BRANCH  17  18
HETATM   18  C   UNL     1      -8.556  14.920  67.069  1.00  0.00    -0.238 C  
BRANCH  18  19
HETATM   19  C   UNL     1      -9.829  14.442  66.396  1.00  0.00    -0.295 C  
BRANCH  19  20
HETATM   20  O   UNL     1      -9.509  13.515  65.367  1.00  0.00     0.038 OA 
BRANCH  20  21
HETATM   21  C   UNL     1     -10.115  12.243  65.590  1.00  0.00    -0.252 C  
BRANCH  21  22
HETATM   22  C   UNL     1     -10.476  11.569  64.261  1.00  0.00    -0.338 C  
BRANCH  22  23
HETATM   23  O   UNL     1      -9.392  10.871  63.596  1.00  0.00    -0.224 OA 
BRANCH  23  24
HETATM   24  C   UNL     1      -8.491  10.169  64.485  1.00  0.00    -0.177 C  
HETATM   25  C   UNL     1      -8.379  10.895  65.796  1.00  0.00    -0.133 C  
HETATM   26  C   UNL     1      -9.448  10.415  66.937  1.00  0.00    -0.196 C  
HETATM   27  C   UNL     1      -9.649   8.808  67.244  1.00  0.00    -0.165 C  
HETATM   28  C   UNL     1      -9.227   7.801  68.503  1.00  0.00    -0.137 C  
HETATM   29  O   UNL     1     -11.013   8.553  66.877  1.00  0.00    -0.285 OA 
HETATM   30  C   UNL     1      -9.694   6.343  68.457  1.00  0.00    -0.134 C  
HETATM   31  H   UNL     1     -11.128   7.626  67.054  1.00  0.00     0.000 HD 
HETATM   32  C   UNL     1      -9.291   5.875  67.081  1.00  0.00    -0.118 A  
HETATM   33  C   UNL     1      -9.586   4.605  66.623  1.00  0.00    -0.192 A  
HETATM   34  C   UNL     1      -9.519   4.298  65.272  1.00  0.00    -0.173 A  
HETATM   35  C   UNL     1      -9.169   5.300  64.322  1.00  0.00     0.301 A  
HETATM   36  O   UNL     1      -9.344   5.056  62.996  1.00  0.00    -0.351 OA 
HETATM   37  C   UNL     1      -8.751   6.545  64.785  1.00  0.00     0.285 A  
HETATM   38  H   UNL     1      -9.110   5.725  62.362  1.00  0.00     0.000 HD 
HETATM   39  C   UNL     1      -8.752   6.852  66.153  1.00  0.00    -0.153 A  
HETATM   40  C   UNL     1      -8.551   8.325  66.381  1.00  0.00    -0.144 C  
HETATM   41  C   UNL     1      -8.924   8.740  64.881  1.00  0.00    -0.012 C  
HETATM   42  C   UNL     1      -7.234   8.929  67.457  1.00  0.00    -0.080 C  
HETATM   43  O   UNL     1      -8.489   7.662  64.008  1.00  0.00     0.056 OA 
HETATM   44  C   UNL     1      -7.722   9.284  69.152  1.00  0.00    -0.078 C  
HETATM   45  N   UNL     1      -8.839   8.478  69.699  1.00  0.00    -0.136 NA 
BRANCH  45  46
HETATM   46  C   UNL     1     -10.031   9.078  70.271  1.00  0.00    -0.195 C  
BRANCH  46  47
HETATM   47  C   UNL     1      -9.822  10.415  70.900  1.00  0.00     1.453 C  
HETATM   48  C   UNL     1     -10.762  11.042  71.615  1.00  0.00     4.388 C  
ENDBRANCH  46  47
ENDBRANCH  45  46
ENDBRANCH  23  24
ENDBRANCH  22  23
ENDBRANCH  21  22
ENDBRANCH  20  21
ENDBRANCH  19  20
ENDBRANCH  18  19
ENDBRANCH  17  18
ENDBRANCH  16  17
ENDBRANCH  15  16
ENDBRANCH  14  15
ENDBRANCH  13  14
ENDBRANCH  12  13
ENDBRANCH  11  12
ENDBRANCH  10  11
ENDBRANCH   9  10
ENDBRANCH   8   9
ENDBRANCH   7   8
ENDBRANCH   6   7
ENDBRANCH   5   6
ENDBRANCH   4   5
ENDBRANCH   3   4
ENDBRANCH   2   3
TORSDOF 24
ENDMDL
MODEL      234
REMARK 921   NORMALIZED FREE ENERGY PREDICTED BY IDOCK:   15.74 KCAL/MOL
REMARK 922        TOTAL FREE ENERGY PREDICTED BY IDOCK:   35.54 KCAL/MOL
REMARK 923 INTER-LIGAND FREE ENERGY PREDICTED BY IDOCK:   15.27 KCAL/MOL
REMARK 924 INTRA-LIGAND FREE ENERGY PREDICTED BY IDOCK:   20.27 KCAL/MOL
REMARK 927      BINDING AFFINITY PREDICTED BY RF-SCORE:    0.00 PKD
ROOT
HETATM    1  C   UNL     1     -14.307   6.802  74.231  1.00  0.00    10.081 C  
HETATM    2  O   UNL     1     -13.426   5.774  73.799  1.00  0.00     3.752 OA 
ENDROOT
BRANCH   2   3
HETATM    3  C   UNL     1     -13.189   5.850  72.395  1.00  0.00     0.780 C  
BRANCH   3   4
HETATM    4  C   UNL     1     -12.855   7.286  72.019  1.00  0.00    -0.178 C  
BRANCH   4   5
HETATM    5  O   UNL     1     -11.623   7.303  71.299  1.00  0.00    -0.266 OA 
BRANCH   5   6
HETATM    6  C   UNL     1     -11.814   7.786  69.972  1.00  0.00     0.349 C  
BRANCH   6   7
HETATM    7  C   UNL     1     -10.624   7.391  69.113  1.00  0.00    -0.204 C  
BRANCH   7   8
HETATM    8  O   UNL     1     -11.057   7.307  67.757  1.00  0.00    -0.104 OA 
BRANCH   8   9
HETATM    9  C   UNL     1     -11.009   5.968  67.279  1.00  0.00    -0.261 C  
BRANCH   9  10
HETATM   10  C   UNL     1     -10.812   5.991  65.774  1.00  0.00     1.188 C  
BRANCH  10  11
HETATM   11  O   UNL     1      -9.944   4.923  65.416  1.00  0.00    -0.123 OA 
BRANCH  11  12
HETATM   12  C   UNL     1      -9.815   3.985  66.478  1.00  0.00    -0.152 C  
BRANCH  12  13
HETATM   13  C   UNL     1     -10.740   4.402  67.607  1.00  0.00     1.088 C  
BRANCH  13  14
HETATM   14  O   UNL     1     -10.029   4.366  68.837  1.00  0.00    -0.129 OA 
BRANCH  14  15
HETATM   15  C   UNL     1      -9.343   3.128  68.977  1.00  0.00    -0.160 C  
BRANCH  15  16
HETATM   16  C   UNL     1      -8.692   2.740  67.661  1.00  0.00    -0.113 C  
BRANCH  16  17
HETATM   17  O   UNL     1      -7.789   3.779  67.307  1.00  0.00    -0.079 OA 
BRANCH  17  18
HETATM   18  C   UNL     1      -8.414   4.807  66.555  1.00  0.00    -0.110 C  
BRANCH  18  19
HETATM   19  C   UNL     1      -7.369   5.867  66.264  1.00  0.00    -0.081 C  
BRANCH  19  20
HETATM   20  O   UNL     1      -6.400   5.885  67.303  1.00  0.00    -0.038 OA 
BRANCH  20  21
HETATM   21  C   UNL     1      -6.356   7.145  67.969  1.00  0.00    -0.044 C  
BRANCH  21  22
HETATM   22  C   UNL     1      -7.389   8.112  67.379  1.00  0.00    -0.089 C  
BRANCH  22  23
HETATM   23  O   UNL     1      -7.654   9.304  68.163  1.00  0.00    -0.083 OA 
BRANCH  23  24
HETATM   24  C   UNL     1      -6.624  10.319  68.085  1.00  0.00    -0.057 C  
HETATM   25  C   UNL     1      -6.938  11.298  66.989  1.00  0.00    -0.126 C  
HETATM   26  C   UNL     1      -7.808  12.600  67.464  1.00  0.00    -0.175 C  
HETATM   27  C   UNL     1      -7.353  13.442  68.805  1.00  0.00    -0.076 C  
HETATM   28  C   UNL     1      -6.663  14.938  69.062  1.00  0.00    -0.117 C  
HETATM   29  O   UNL     1      -8.450  13.270  69.713  1.00  0.00     0.857 OA 
HETATM   30  C   UNL     1      -6.479  15.416  70.505  1.00  0.00     0.186 C  
HETATM   31  H   UNL     1      -8.186  13.756  70.487  1.00  0.00     0.000 HD 
HETATM   32  C   UNL     1      -5.799  14.256  71.189  1.00  0.00    -0.200 A  
HETATM   33  C   UNL     1      -5.500  14.273  72.538  1.00  0.00    -0.158 A  
HETATM   34  C   UNL     1      -5.194  13.103  73.218  1.00  0.00     0.170 A  
HETATM   35  C   UNL     1      -5.208  11.852  72.540  1.00  0.00     0.507 A  
HETATM   36  O   UNL     1      -5.149  10.699  73.259  1.00  0.00    -0.330 OA 
HETATM   37  C   UNL     1      -5.386  11.840  71.158  1.00  0.00    -0.063 A  
HETATM   38  H   UNL     1      -5.159   9.863  72.806  1.00  0.00     0.000 HD 
HETATM   39  C   UNL     1      -5.634  13.021  70.446  1.00  0.00    -0.159 A  
HETATM   40  C   UNL     1      -6.082  12.725  69.040  1.00  0.00    -0.089 C  
HETATM   41  C   UNL     1      -6.460  11.200  69.344  1.00  0.00    -0.100 C  
HETATM   42  C   UNL     1      -5.233  13.449  67.622  1.00  0.00    -0.004 C  
HETATM   43  O   UNL     1      -5.543  10.716  70.363  1.00  0.00    -0.063 OA 
HETATM   44  C   UNL     1      -5.970  14.952  66.964  1.00  0.00     1.016 C  
HETATM   45  N   UNL     1      -6.697  15.809  67.931  1.00  0.00    -0.131 NA 
BRANCH  45  46
HETATM   46  C   UNL     1      -8.076  16.219  67.733  1.00  0.00    -0.149 C  
BRANCH  46  47
HETATM   47  C   UNL     1      -8.989  15.919  68.875  1.00  0.00    -0.228 C  
HETATM   48  C   UNL     1     -10.228  16.413  68.968  1.00  0.00    -0.269 C  
ENDBRANCH  46  47
ENDBRANCH  45  46
ENDBRANCH  23  24
ENDBRANCH  22  23
ENDBRANCH  21  22
ENDBRANCH  20  21
ENDBRANCH  19  20
ENDBRANCH  18  19
ENDBRANCH  17  18
ENDBRANCH  16  17
ENDBRANCH  15  16
ENDBRANCH  14  15
ENDBRANCH  13  14
ENDBRANCH  12  13
ENDBRANCH  11  12
ENDBRANCH  10  11
ENDBRANCH   9  10
ENDBRANCH   8   9
ENDBRANCH   7   8
ENDBRANCH   6   7
ENDBRANCH   5   6
ENDBRANCH   4   5
ENDBRANCH   3   4
ENDBRANCH   2   3
TORSDOF 24
ENDMDL
MODEL      235
REMARK 921   NORMALIZED FREE ENERGY PREDICTED BY IDOCK:   17.18 KCAL/MOL
REMARK 922        TOTAL FREE ENERGY PREDICTED BY IDOCK:   38.99 KCAL/MOL
REMARK 923 INTER-LIGAND FREE ENERGY PREDICTED BY IDOCK:   19.79 KCAL/MOL
REMARK 924 INTRA-LIGAND FREE ENERGY PREDICTED BY IDOCK:   19.20 KCAL/MOL
REMARK 927      BINDING AFFINITY PREDICTED BY RF-SCORE:    0.00 PKD
ROOT
HETATM    1  C   UNL     1     -11.210  16.242  72.499  1.00  0.00     0.684 C  
HETATM    2  O   UNL     1     -10.872  16.945  71.311  1.00  0.00     0.569 OA 
ENDROOT
BRANCH   2   3
HETATM    3  C   UNL     1     -10.899  16.085  70.174  1.00  0.00    -0.346 C  
BRANCH   3   4
HETATM    4  C   UNL     1     -10.176  16.759  69.017  1.00  0.00    -0.310 C  
BRANCH   4   5
HETATM    5  O   UNL     1      -9.073  15.945  68.620  1.00  0.00    -0.188 OA 
BRANCH   5   6
HETATM    6  C   UNL     1      -9.523  14.729  68.028  1.00  0.00    -0.204 C  
BRANCH   6   7
HETATM    7  C   UNL     1      -8.533  13.618  68.336  1.00  0.00    -0.147 C  
BRANCH   7   8
HETATM    8  O   UNL     1      -7.254  14.206  68.563  1.00  0.00    -0.095 OA 
BRANCH   8   9
HETATM    9  C   UNL     1      -6.317  13.809  67.569  1.00  0.00    -0.045 C  
BRANCH   9  10
HETATM   10  C   UNL     1      -6.998  13.841  66.212  1.00  0.00     3.635 C  
BRANCH  10  11
HETATM   11  O   UNL     1      -8.330  14.304  66.387  1.00  0.00     0.223 OA 
BRANCH  11  12
HETATM   12  C   UNL     1      -9.276  13.335  65.950  1.00  0.00     0.203 C  
BRANCH  12  13
HETATM   13  C   UNL     1      -8.523  12.172  65.326  1.00  0.00     1.223 C  
BRANCH  13  14
HETATM   14  O   UNL     1      -9.401  11.442  64.481  1.00  0.00    -0.183 OA 
BRANCH  14  15
HETATM   15  C   UNL     1     -10.135  10.486  65.236  1.00  0.00    -0.300 C  
BRANCH  15  16
HETATM   16  C   UNL     1     -11.235  11.176  66.025  1.00  0.00     0.034 C  
BRANCH  16  17
HETATM   17  O   UNL     1     -11.207  12.555  65.681  1.00  0.00    -0.295 OA 
BRANCH  17  18
HETATM   18  C   UNL     1     -12.505  13.089  65.478  1.00  0.00    -0.438 C  
BRANCH  18  19
HETATM   19  C   UNL     1     -13.208  13.117  66.823  1.00  0.00     2.907 C  
BRANCH  19  20
HETATM   20  O   UNL     1     -13.089  11.849  67.453  1.00  0.00     2.885 OA 
BRANCH  20  21
HETATM   21  C   UNL     1     -12.587  11.961  68.783  1.00  0.00     0.942 C  
BRANCH  21  22
HETATM   22  C   UNL     1     -11.084  11.662  68.827  1.00  0.00    -0.230 C  
BRANCH  22  23
HETATM   23  O   UNL     1     -10.603  11.038  70.046  1.00  0.00    -0.047 OA 
BRANCH  23  24
HETATM   24  C   UNL     1      -9.189  10.724  70.046  1.00  0.00     0.862 C  
HETATM   25  C   UNL     1      -8.595  10.992  71.401  1.00  0.00     7.637 C  
HETATM   26  C   UNL     1      -8.606   9.709  72.417  1.00  0.00     2.811 C  
HETATM   27  C   UNL     1      -8.069   8.244  71.889  1.00  0.00    -0.141 C  
HETATM   28  C   UNL     1      -6.711   7.324  72.188  1.00  0.00    -0.055 C  
HETATM   29  O   UNL     1      -9.229   7.403  71.959  1.00  0.00    -0.132 OA 
HETATM   30  C   UNL     1      -6.623   5.930  71.560  1.00  0.00    -0.054 C  
HETATM   31  H   UNL     1      -8.919   6.557  71.654  1.00  0.00     0.000 HD 
HETATM   32  C   UNL     1      -6.946   6.166  70.105  1.00  0.00    -0.062 A  
HETATM   33  C   UNL     1      -7.021   5.130  69.194  1.00  0.00    -0.055 A  
HETATM   34  C   UNL     1      -7.636   5.303  67.963  1.00  0.00    -0.080 A  
HETATM   35  C   UNL     1      -8.230   6.552  67.624  1.00  0.00    -0.122 A  
HETATM   36  O   UNL     1      -9.036   6.636  66.532  1.00  0.00    -0.141 OA 
HETATM   37  C   UNL     1      -8.052   7.634  68.483  1.00  0.00    -0.124 A  
HETATM   38  H   UNL     1      -9.433   7.470  66.306  1.00  0.00     0.000 HD 
HETATM   39  C   UNL     1      -7.377   7.492  69.703  1.00  0.00    -0.090 A  
HETATM   40  C   UNL     1      -7.569   8.702  70.576  1.00  0.00    -0.077 C  
HETATM   41  C   UNL     1      -8.835   9.247  69.763  1.00  0.00    -0.167 C  
HETATM   42  C   UNL     1      -6.154   9.594  71.254  1.00  0.00    -0.035 C  
HETATM   43  O   UNL     1      -8.653   8.877  68.369  1.00  0.00    -0.132 OA 
HETATM   44  C   UNL     1      -5.678   9.133  72.926  1.00  0.00    -0.020 C  
HETATM   45  N   UNL     1      -5.956   7.734  73.330  1.00  0.00    -0.058 NA 
BRANCH  45  46
HETATM   46  C   UNL     1      -6.731   7.399  74.512  1.00  0.00    -0.096 C  
BRANCH  46  47
HETATM   47  C   UNL     1      -8.211   7.407  74.315  1.00  0.00    -0.220 C  
HETATM   48  C   UNL     1      -8.844   6.559  73.497  1.00  0.00    -0.135 C  
ENDBRANCH  46  47
ENDBRANCH  45  46
ENDBRANCH  23  24
ENDBRANCH  22  23
ENDBRANCH  21  22
ENDBRANCH  20  21
ENDBRANCH  19  20
ENDBRANCH  18  19
ENDBRANCH  17  18
ENDBRANCH  16  17
ENDBRANCH  15  16
ENDBRANCH  14  15
ENDBRANCH  13  14
ENDBRANCH  12  13
ENDBRANCH  11  12
ENDBRANCH  10  11
ENDBRANCH   9  10
ENDBRANCH   8   9
ENDBRANCH   7   8
ENDBRANCH   6   7
ENDBRANCH   5   6
ENDBRANCH   4   5
ENDBRANCH   3   4
ENDBRANCH   2   3
TORSDOF 24
ENDMDL
MODEL      236
REMARK 921   NORMALIZED FREE ENERGY PREDICTED BY IDOCK:   17.33 KCAL/MOL
REMARK 922        TOTAL FREE ENERGY PREDICTED BY IDOCK:   39.34 KCAL/MOL
REMARK 923 INTER-LIGAND FREE ENERGY PREDICTED BY IDOCK:   31.50 KCAL/MOL
REMARK 924 INTRA-LIGAND FREE ENERGY PREDICTED BY IDOCK:    7.84 KCAL/MOL
REMARK 927      BINDING AFFINITY PREDICTED BY RF-SCORE:    0.00 PKD
ROOT
HETATM    1  C   UNL     1     -10.914   9.078  73.142  1.00  0.00     2.129 C  
HETATM    2  O   UNL     1      -9.516   8.972  72.911  1.00  0.00     0.032 OA 
ENDROOT
BRANCH   2   3
HETATM    3  C   UNL     1      -8.867  10.232  73.070  1.00  0.00     9.335 C  
BRANCH   3   4
HETATM    4  C   UNL     1      -7.771  10.104  74.117  1.00  0.00     4.840 C  
BRANCH   4   5
HETATM    5  O   UNL     1      -6.594   9.586  73.498  1.00  0.00    -0.006 OA 
BRANCH   5   6
HETATM    6  C   UNL     1      -6.393   8.219  73.847  1.00  0.00    -0.116 C  
BRANCH   6   7
HETATM    7  C   UNL     1      -7.014   7.328  72.784  1.00  0.00    -0.068 C  
BRANCH   7   8
HETATM    8  O   UNL     1      -7.808   8.141  71.923  1.00  0.00    -0.094 OA 
BRANCH   8   9
HETATM    9  C   UNL     1      -7.246   8.218  70.618  1.00  0.00    -0.049 C  
BRANCH   9  10
HETATM   10  C   UNL     1      -5.797   8.658  70.733  1.00  0.00    -0.033 C  
BRANCH  10  11
HETATM   11  O   UNL     1      -5.691   9.991  70.248  1.00  0.00    -0.044 OA 
BRANCH  11  12
HETATM   12  C   UNL     1      -5.267  10.882  71.273  1.00  0.00    -0.071 C  
BRANCH  12  13
HETATM   13  C   UNL     1      -5.137  12.274  70.680  1.00  0.00    -0.120 C  
BRANCH  13  14
HETATM   14  O   UNL     1      -5.151  13.235  71.727  1.00  0.00    -0.157 OA 
BRANCH  14  15
HETATM   15  C   UNL     1      -5.710  14.460  71.268  1.00  0.00    -0.171 C  
BRANCH  15  16
HETATM   16  C   UNL     1      -6.454  14.237  69.962  1.00  0.00    -0.126 C  
BRANCH  16  17
HETATM   17  O   UNL     1      -7.846  14.295  70.248  1.00  0.00     0.730 OA 
BRANCH  17  18
HETATM   18  C   UNL     1      -8.642  13.883  69.149  1.00  0.00     0.350 C  
BRANCH  18  19
HETATM   19  C   UNL     1      -7.747  13.120  68.191  1.00  0.00    -0.143 C  
BRANCH  19  20
HETATM   20  O   UNL     1      -8.529  12.228  67.409  1.00  0.00    -0.159 OA 
BRANCH  20  21
HETATM   21  C   UNL     1      -8.112  10.873  67.569  1.00  0.00    -0.116 C  
BRANCH  21  22
HETATM   22  C   UNL     1      -8.185  10.448  69.040  1.00  0.00    -0.141 C  
BRANCH  22  23
HETATM   23  O   UNL     1      -8.922   9.227  69.305  1.00  0.00    -0.138 OA 
BRANCH  23  24
HETATM   24  C   UNL     1     -10.362   9.361  69.223  1.00  0.00    -0.208 C  
HETATM   25  C   UNL     1     -10.919   9.823  70.540  1.00  0.00    -0.384 C  
HETATM   26  C   UNL     1     -11.047  11.447  70.696  1.00  0.00     0.895 C  
HETATM   27  C   UNL     1     -11.743  12.331  69.493  1.00  0.00    -0.332 C  
HETATM   28  C   UNL     1     -13.194  13.138  69.329  1.00  0.00     2.318 C  
HETATM   29  O   UNL     1     -10.683  13.175  69.023  1.00  0.00    -0.366 OA 
HETATM   30  C   UNL     1     -13.436  13.948  68.053  1.00  0.00     5.228 C  
HETATM   31  H   UNL     1     -11.085  13.685  68.329  1.00  0.00     0.000 HD 
HETATM   32  C   UNL     1     -13.093  12.987  66.941  1.00  0.00     2.541 A  
HETATM   33  C   UNL     1     -13.135  13.359  65.612  1.00  0.00     0.085 A  
HETATM   34  C   UNL     1     -12.508  12.599  64.635  1.00  0.00    -0.538 A  
HETATM   35  C   UNL     1     -11.781  11.428  64.992  1.00  0.00     0.258 A  
HETATM   36  O   UNL     1     -10.973  10.834  64.072  1.00  0.00    -0.377 OA 
HETATM   37  C   UNL     1     -11.836  10.979  66.309  1.00  0.00     1.267 A  
HETATM   38  H   UNL     1     -10.488  10.053  64.310  1.00  0.00     0.000 HD 
HETATM   39  C   UNL     1     -12.520  11.702  67.296  1.00  0.00     1.741 A  
HETATM   40  C   UNL     1     -12.193  11.188  68.672  1.00  0.00    -0.012 C  
HETATM   41  C   UNL     1     -10.877  10.404  68.208  1.00  0.00    -0.254 C  
HETATM   42  C   UNL     1     -13.500  10.686  69.812  1.00  0.00     1.306 C  
HETATM   43  O   UNL     1     -11.103   9.935  66.850  1.00  0.00    -0.071 OA 
HETATM   44  C   UNL     1     -14.019  11.939  70.993  1.00  0.00     2.358 C  
HETATM   45  N   UNL     1     -13.895  13.350  70.555  1.00  0.00     1.179 NA 
BRANCH  45  46
HETATM   46  C   UNL     1     -13.159  14.345  71.316  1.00  0.00    -0.351 C  
BRANCH  46  47
HETATM   47  C   UNL     1     -12.645  13.872  72.635  1.00  0.00    -0.148 C  
HETATM   48  C   UNL     1     -12.631  14.638  73.731  1.00  0.00    -0.295 C  
ENDBRANCH  46  47
ENDBRANCH  45  46
ENDBRANCH  23  24
ENDBRANCH  22  23
ENDBRANCH  21  22
ENDBRANCH  20  21
ENDBRANCH  19  20
ENDBRANCH  18  19
ENDBRANCH  17  18
ENDBRANCH  16  17
ENDBRANCH  15  16
ENDBRANCH  14  15
ENDBRANCH  13  14
ENDBRANCH  12  13
ENDBRANCH  11  12
ENDBRANCH  10  11
ENDBRANCH   9  10
ENDBRANCH   8   9
ENDBRANCH   7   8
ENDBRANCH   6   7
ENDBRANCH   5   6
ENDBRANCH   4   5
ENDBRANCH   3   4
ENDBRANCH   2   3
TORSDOF 24
ENDMDL
MODEL      237
REMARK 921   NORMALIZED FREE ENERGY PREDICTED BY IDOCK:   17.44 KCAL/MOL
REMARK 922        TOTAL FREE ENERGY PREDICTED BY IDOCK:   39.62 KCAL/MOL
REMARK 923 INTER-LIGAND FREE ENERGY PREDICTED BY IDOCK:    7.72 KCAL/MOL
REMARK 924 INTRA-LIGAND FREE ENERGY PREDICTED BY IDOCK:   31.90 KCAL/MOL
REMARK 927      BINDING AFFINITY PREDICTED BY RF-SCORE:    0.00 PKD
ROOT
HETATM    1  C   UNL     1      -7.636   9.064  74.300  1.00  0.00     0.462 C  
HETATM    2  O   UNL     1      -8.610   8.531  73.414  1.00  0.00    -0.350 OA 
ENDROOT
BRANCH   2   3
HETATM    3  C   UNL     1      -9.228   9.559  72.643  1.00  0.00     2.839 C  
BRANCH   3   4
HETATM    4  C   UNL     1      -8.593   9.602  71.261  1.00  0.00     0.765 C  
BRANCH   4   5
HETATM    5  O   UNL     1      -7.947   8.355  71.008  1.00  0.00    -0.087 OA 
BRANCH   5   6
HETATM    6  C   UNL     1      -8.461   7.332  71.856  1.00  0.00    -0.107 C  
BRANCH   6   7
HETATM    7  C   UNL     1      -7.919   5.984  71.412  1.00  0.00    -0.113 C  
BRANCH   7   8
HETATM    8  O   UNL     1      -6.952   6.204  70.387  1.00  0.00    -0.055 OA 
BRANCH   8   9
HETATM    9  C   UNL     1      -6.464   7.540  70.412  1.00  0.00    -0.038 C  
BRANCH   9  10
HETATM   10  C   UNL     1      -6.902   8.247  69.141  1.00  0.00    -0.051 C  
BRANCH  10  11
HETATM   11  O   UNL     1      -8.281   8.575  69.260  1.00  0.00    -0.111 OA 
BRANCH  11  12
HETATM   12  C   UNL     1      -8.892   8.709  67.982  1.00  0.00    -0.141 C  
BRANCH  12  13
HETATM   13  C   UNL     1      -7.902   9.372  67.040  1.00  0.00    -0.098 C  
BRANCH  13  14
HETATM   14  O   UNL     1      -6.778   8.522  66.862  1.00  0.00    -0.060 OA 
BRANCH  14  15
HETATM   15  C   UNL     1      -5.579   9.286  66.827  1.00  0.00    -0.043 C  
BRANCH  15  16
HETATM   16  C   UNL     1      -5.558  10.279  67.977  1.00  0.00    -0.037 C  
BRANCH  16  17
HETATM   17  O   UNL     1      -5.719  11.578  67.422  1.00  0.00    -0.057 OA 
BRANCH  17  18
HETATM   18  C   UNL     1      -6.938  11.717  66.712  1.00  0.00    -0.080 C  
BRANCH  18  19
HETATM   19  C   UNL     1      -6.938  13.084  66.055  1.00  0.00     3.760 C  
BRANCH  19  20
HETATM   20  O   UNL     1      -6.747  14.090  67.040  1.00  0.00    -0.022 OA 
BRANCH  20  21
HETATM   21  C   UNL     1      -7.798  14.096  68.006  1.00  0.00    -0.146 C  
BRANCH  21  22
HETATM   22  C   UNL     1      -7.702  12.873  68.925  1.00  0.00     0.096 C  
BRANCH  22  23
HETATM   23  O   UNL     1      -8.960  12.221  69.237  1.00  0.00     0.519 OA 
BRANCH  23  24
HETATM   24  C   UNL     1     -10.139  12.965  68.844  1.00  0.00     0.060 C  
HETATM   25  C   UNL     1     -10.045  14.386  69.326  1.00  0.00    -0.038 C  
HETATM   26  C   UNL     1      -9.363  15.426  68.262  1.00  0.00    -0.193 C  
HETATM   27  C   UNL     1      -9.868  15.437  66.694  1.00  0.00    -0.255 C  
HETATM   28  C   UNL     1     -10.767  16.492  65.767  1.00  0.00    -0.225 C  
HETATM   29  O   UNL     1      -8.707  15.036  65.953  1.00  0.00    -0.367 OA 
HETATM   30  C   UNL     1     -10.941  16.185  64.277  1.00  0.00     0.279 C  
HETATM   31  H   UNL     1      -8.999  15.042  65.048  1.00  0.00     0.000 HD 
HETATM   32  C   UNL     1     -11.391  14.745  64.252  1.00  0.00    -0.097 A  
HETATM   33  C   UNL     1     -11.611  14.067  63.069  1.00  0.00     1.591 A  
HETATM   34  C   UNL     1     -11.692  12.682  63.043  1.00  0.00    -0.037 A  
HETATM   35  C   UNL     1     -11.521  11.928  64.238  1.00  0.00    -0.346 A  
HETATM   36  O   UNL     1     -11.357  10.580  64.163  1.00  0.00     0.410 OA 
HETATM   37  C   UNL     1     -11.422  12.607  65.450  1.00  0.00    -0.338 A  
HETATM   38  H   UNL     1     -11.243  10.077  64.961  1.00  0.00     0.000 HD 
HETATM   39  C   UNL     1     -11.403  14.007  65.502  1.00  0.00    -0.313 A  
HETATM   40  C   UNL     1     -10.995  14.497  66.864  1.00  0.00    -0.316 C  
HETATM   41  C   UNL     1     -10.367  13.098  67.321  1.00  0.00    -0.243 C  
HETATM   42  C   UNL     1     -12.026  15.660  67.782  1.00  0.00     0.259 C  
HETATM   43  O   UNL     1     -11.137  12.043  66.684  1.00  0.00    -0.278 OA 
HETATM   44  C   UNL     1     -11.572  17.393  67.618  1.00  0.00     0.934 C  
HETATM   45  N   UNL     1     -10.934  17.790  66.340  1.00  0.00     0.101 NA 
BRANCH  45  46
HETATM   46  C   UNL     1      -9.650  18.465  66.282  1.00  0.00    -0.261 C  
BRANCH  46  47
HETATM   47  C   UNL     1      -8.467  17.584  66.513  1.00  0.00    -0.300 C  
HETATM   48  C   UNL     1      -7.996  16.735  65.593  1.00  0.00     0.856 C  
ENDBRANCH  46  47
ENDBRANCH  45  46
ENDBRANCH  23  24
ENDBRANCH  22  23
ENDBRANCH  21  22
ENDBRANCH  20  21
ENDBRANCH  19  20
ENDBRANCH  18  19
ENDBRANCH  17  18
ENDBRANCH  16  17
ENDBRANCH  15  16
ENDBRANCH  14  15
ENDBRANCH  13  14
ENDBRANCH  12  13
ENDBRANCH  11  12
ENDBRANCH  10  11
ENDBRANCH   9  10
ENDBRANCH   8   9
ENDBRANCH   7   8
ENDBRANCH   6   7
ENDBRANCH   5   6
ENDBRANCH   4   5
ENDBRANCH   3   4
ENDBRANCH   2   3
TORSDOF 24
ENDMDL
MODEL      238
REMARK 921   NORMALIZED FREE ENERGY PREDICTED BY IDOCK:   18.45 KCAL/MOL
REMARK 922        TOTAL FREE ENERGY PREDICTED BY IDOCK:   42.05 KCAL/MOL
REMARK 923 INTER-LIGAND FREE ENERGY PREDICTED BY IDOCK:    1.06 KCAL/MOL
REMARK 924 INTRA-LIGAND FREE ENERGY PREDICTED BY IDOCK:   40.99 KCAL/MOL
REMARK 927      BINDING AFFINITY PREDICTED BY RF-SCORE:    0.00 PKD
ROOT
HETATM    1  C   UNL     1      -5.715  16.636  68.147  1.00  0.00    -0.116 C  
HETATM    2  O   UNL     1      -6.445  15.427  67.990  1.00  0.00    -0.111 OA 
ENDROOT
BRANCH   2   3
HETATM    3  C   UNL     1      -5.598  14.288  68.130  1.00  0.00    -0.124 C  
BRANCH   3   4
HETATM    4  C   UNL     1      -6.008  13.506  69.369  1.00  0.00    -0.097 C  
BRANCH   4   5
HETATM    5  O   UNL     1      -7.405  13.694  69.596  1.00  0.00     0.207 OA 
BRANCH   5   6
HETATM    6  C   UNL     1      -8.169  12.692  68.932  1.00  0.00     0.244 C  
BRANCH   6   7
HETATM    7  C   UNL     1      -8.946  13.323  67.788  1.00  0.00    -0.196 C  
BRANCH   7   8
HETATM    8  O   UNL     1      -9.852  12.351  67.270  1.00  0.00    -0.203 OA 
BRANCH   8   9
HETATM    9  C   UNL     1     -10.826  12.950  66.423  1.00  0.00    -0.274 C  
BRANCH   9  10
HETATM   10  C   UNL     1     -12.179  12.325  66.713  1.00  0.00     0.276 C  
BRANCH  10  11
HETATM   11  O   UNL     1     -12.908  13.201  67.562  1.00  0.00     0.545 OA 
BRANCH  11  12
HETATM   12  C   UNL     1     -13.149  14.453  66.930  1.00  0.00     1.822 C  
BRANCH  12  13
HETATM   13  C   UNL     1     -11.816  15.145  66.705  1.00  0.00     0.044 C  
BRANCH  13  14
HETATM   14  O   UNL     1     -11.483  15.091  65.325  1.00  0.00    -0.348 OA 
BRANCH  14  15
HETATM   15  C   UNL     1     -10.120  14.721  65.158  1.00  0.00    -0.323 C  
BRANCH  15  16
HETATM   16  C   UNL     1      -9.215  15.756  65.802  1.00  0.00    -0.219 C  
BRANCH  16  17
HETATM   17  O   UNL     1      -8.893  15.290  67.106  1.00  0.00    -0.186 OA 
BRANCH  17  18
HETATM   18  C   UNL     1      -8.381  13.967  67.098  1.00  0.00    -0.156 C  
BRANCH  18  19
HETATM   19  C   UNL     1      -9.140  13.186  66.042  1.00  0.00     0.213 C  
BRANCH  19  20
HETATM   20  O   UNL     1      -8.231  12.413  65.270  1.00  0.00     1.524 OA 
BRANCH  20  21
HETATM   21  C   UNL     1      -8.511  11.017  65.357  1.00  0.00    -0.030 C  
BRANCH  21  22
HETATM   22  C   UNL     1      -8.209  10.315  64.028  1.00  0.00    -0.151 C  
BRANCH  22  23
HETATM   23  O   UNL     1      -6.820   9.964  63.804  1.00  0.00    -0.116 OA 
BRANCH  23  24
HETATM   24  C   UNL     1      -6.100   9.558  64.994  1.00  0.00    -0.073 C  
HETATM   25  C   UNL     1      -6.565  10.354  66.181  1.00  0.00    -0.112 C  
HETATM   26  C   UNL     1      -7.795   9.676  67.020  1.00  0.00    -0.098 C  
HETATM   27  C   UNL     1      -7.711   8.089  67.454  1.00  0.00    -0.102 C  
HETATM   28  C   UNL     1      -7.479   7.286  68.897  1.00  0.00    -0.101 C  
HETATM   29  O   UNL     1      -8.800   7.478  66.748  1.00  0.00    -0.129 OA 
HETATM   30  C   UNL     1      -7.567   5.757  68.901  1.00  0.00    -0.089 C  
HETATM   31  H   UNL     1      -8.752   6.562  66.998  1.00  0.00     0.000 HD 
HETATM   32  C   UNL     1      -6.665   5.338  67.767  1.00  0.00    -0.055 A  
HETATM   33  C   UNL     1      -6.509   4.014  67.405  1.00  0.00    -0.038 A  
HETATM   34  C   UNL     1      -5.962   3.666  66.179  1.00  0.00    -0.023 A  
HETATM   35  C   UNL     1      -5.573   4.675  65.253  1.00  0.00    -0.014 A  
HETATM   36  O   UNL     1      -5.272   4.328  63.972  1.00  0.00    -0.011 OA 
HETATM   37  C   UNL     1      -5.612   6.007  65.656  1.00  0.00    -0.020 A  
HETATM   38  H   UNL     1      -5.013   5.001  63.354  1.00  0.00     0.000 HD 
HETATM   39  C   UNL     1      -6.103   6.372  66.917  1.00  0.00    -0.025 A  
HETATM   40  C   UNL     1      -6.321   7.857  67.008  1.00  0.00    -0.055 C  
HETATM   41  C   UNL     1      -6.299   8.088  65.424  1.00  0.00    -0.048 C  
HETATM   42  C   UNL     1      -5.572   8.829  68.331  1.00  0.00    -0.038 C  
HETATM   43  O   UNL     1      -5.384   7.113  64.853  1.00  0.00    -0.027 OA 
HETATM   44  C   UNL     1      -6.624   9.133  69.759  1.00  0.00    -0.046 C  
HETATM   45  N   UNL     1      -7.642   8.099  70.060  1.00  0.00    -0.076 NA 
BRANCH  45  46
HETATM   46  C   UNL     1      -9.056   8.405  70.188  1.00  0.00    -0.150 C  
BRANCH  46  47
HETATM   47  C   UNL     1      -9.359   9.781  70.679  1.00  0.00    -0.029 C  
HETATM   48  C   UNL     1     -10.589  10.184  71.012  1.00  0.00     0.197 C  
ENDBRANCH  46  47
ENDBRANCH  45  46
ENDBRANCH  23  24
ENDBRANCH  22  23
ENDBRANCH  21  22
ENDBRANCH  20  21
ENDBRANCH  19  20
ENDBRANCH  18  19
ENDBRANCH  17  18
ENDBRANCH  16  17
ENDBRANCH  15  16
ENDBRANCH  14  15
ENDBRANCH  13  14
ENDBRANCH  12  13
ENDBRANCH  11  12
ENDBRANCH  10  11
ENDBRANCH   9  10
ENDBRANCH   8   9
ENDBRANCH   7   8
ENDBRANCH   6   7
ENDBRANCH   5   6
ENDBRANCH   4   5
ENDBRANCH   3   4
ENDBRANCH   2   3
TORSDOF 24
ENDMDL
MODEL      239
REMARK 921   NORMALIZED FREE ENERGY PREDICTED BY IDOCK:   20.08 KCAL/MOL
REMARK 922        TOTAL FREE ENERGY PREDICTED BY IDOCK:   45.95 KCAL/MOL
REMARK 923 INTER-LIGAND FREE ENERGY PREDICTED BY IDOCK:   25.24 KCAL/MOL
REMARK 924 INTRA-LIGAND FREE ENERGY PREDICTED BY IDOCK:   20.72 KCAL/MOL
REMARK 927      BINDING AFFINITY PREDICTED BY RF-SCORE:    0.00 PKD
ROOT
HETATM    1  C   UNL     1      -9.493  10.750  65.675  1.00  0.00    -0.209 C  
HETATM    2  O   UNL     1     -10.296  11.779  66.237  1.00  0.00    -0.213 OA 
ENDROOT
BRANCH   2   3
HETATM    3  C   UNL     1     -11.588  11.291  66.596  1.00  0.00     0.209 C  
BRANCH   3   4
HETATM    4  C   UNL     1     -11.672  11.157  68.109  1.00  0.00    -0.232 C  
BRANCH   4   5
HETATM    5  O   UNL     1     -12.364  12.287  68.638  1.00  0.00    -0.119 OA 
BRANCH   5   6
HETATM    6  C   UNL     1     -11.994  12.524  69.993  1.00  0.00    -0.299 C  
BRANCH   6   7
HETATM    7  C   UNL     1     -11.617  13.986  70.168  1.00  0.00    -0.204 C  
BRANCH   7   8
HETATM    8  O   UNL     1     -11.385  14.548  68.878  1.00  0.00    -0.246 OA 
BRANCH   8   9
HETATM    9  C   UNL     1      -9.995  14.720  68.631  1.00  0.00    -0.232 C  
BRANCH   9  10
HETATM   10  C   UNL     1      -9.212  13.847  69.596  1.00  0.00     1.159 C  
BRANCH  10  11
HETATM   11  O   UNL     1      -8.907  12.619  68.947  1.00  0.00     0.117 OA 
BRANCH  11  12
HETATM   12  C   UNL     1      -8.828  11.547  69.880  1.00  0.00     1.915 C  
BRANCH  12  13
HETATM   13  C   UNL     1     -10.234  11.200  70.337  1.00  0.00     1.608 C  
BRANCH  13  14
HETATM   14  O   UNL     1     -10.168  10.500  71.572  1.00  0.00     1.819 OA 
BRANCH  14  15
HETATM   15  C   UNL     1      -9.556   9.229  71.390  1.00  0.00    -0.158 C  
BRANCH  15  16
HETATM   16  C   UNL     1      -8.140   9.248  71.941  1.00  0.00     0.645 C  
BRANCH  16  17
HETATM   17  O   UNL     1      -7.668  10.587  71.861  1.00  0.00     3.227 OA 
BRANCH  17  18
HETATM   18  C   UNL     1      -6.309  10.659  71.462  1.00  0.00     1.031 C  
BRANCH  18  19
HETATM   19  C   UNL     1      -6.120   9.709  70.294  1.00  0.00    -0.062 C  
BRANCH  19  20
HETATM   20  O   UNL     1      -5.390   8.566  70.718  1.00  0.00    -0.028 OA 
BRANCH  20  21
HETATM   21  C   UNL     1      -5.400   7.532  69.735  1.00  0.00    -0.023 C  
BRANCH  21  22
HETATM   22  C   UNL     1      -6.540   6.541  69.995  1.00  0.00    -0.048 C  
BRANCH  22  23
HETATM   23  O   UNL     1      -7.814   7.130  70.359  1.00  0.00    -0.097 OA 
BRANCH  23  24
HETATM   24  C   UNL     1      -8.933   6.697  69.547  1.00  0.00    -0.138 C  
HETATM   25  C   UNL     1      -9.591   7.879  68.893  1.00  0.00    -0.155 C  
HETATM   26  C   UNL     1      -9.008   8.252  67.410  1.00  0.00    -0.142 C  
HETATM   27  C   UNL     1      -8.821   7.065  66.283  1.00  0.00    -0.148 C  
HETATM   28  C   UNL     1      -9.619   6.659  64.876  1.00  0.00     1.705 C  
HETATM   29  O   UNL     1      -7.407   7.029  66.047  1.00  0.00    -0.072 OA 
HETATM   30  C   UNL     1      -9.063   5.509  64.031  1.00  0.00     0.432 C  
HETATM   31  H   UNL     1      -7.300   6.344  65.397  1.00  0.00     0.000 HD 
HETATM   32  C   UNL     1      -8.874   4.388  65.022  1.00  0.00    -0.141 A  
HETATM   33  C   UNL     1      -8.333   3.170  64.657  1.00  0.00    -0.090 A  
HETATM   34  C   UNL     1      -7.856   2.283  65.611  1.00  0.00    -0.077 A  
HETATM   35  C   UNL     1      -7.889   2.626  66.992  1.00  0.00    -0.071 A  
HETATM   36  O   UNL     1      -7.202   1.867  67.888  1.00  0.00    -0.045 OA 
HETATM   37  C   UNL     1      -8.542   3.795  67.378  1.00  0.00    -0.103 A  
HETATM   38  H   UNL     1      -7.224   2.096  68.810  1.00  0.00     0.000 HD 
HETATM   39  C   UNL     1      -9.087   4.671  66.430  1.00  0.00    -0.120 A  
HETATM   40  C   UNL     1      -9.467   5.984  67.057  1.00  0.00    -0.137 C  
HETATM   41  C   UNL     1      -8.580   5.762  68.370  1.00  0.00    -0.112 C  
HETATM   42  C   UNL     1     -11.136   6.649  66.884  1.00  0.00    -0.319 C  
HETATM   43  O   UNL     1      -8.568   4.336  68.653  1.00  0.00    -0.090 OA 
HETATM   44  C   UNL     1     -11.361   7.837  65.553  1.00  0.00     6.950 C  
HETATM   45  N   UNL     1     -10.483   7.677  64.369  1.00  0.00     7.082 NA 
BRANCH  45  46
HETATM   46  C   UNL     1      -9.647   8.751  63.863  1.00  0.00     1.843 C  
BRANCH  46  47
HETATM   47  C   UNL     1      -9.412   9.870  64.823  1.00  0.00    -0.356 C  
HETATM   48  C   UNL     1      -8.428  10.763  64.678  1.00  0.00    -0.020 C  
ENDBRANCH  46  47
ENDBRANCH  45  46
ENDBRANCH  23  24
ENDBRANCH  22  23
ENDBRANCH  21  22
ENDBRANCH  20  21
ENDBRANCH  19  20
ENDBRANCH  18  19
ENDBRANCH  17  18
ENDBRANCH  16  17
ENDBRANCH  15  16
ENDBRANCH  14  15
ENDBRANCH  13  14
ENDBRANCH  12  13
ENDBRANCH  11  12
ENDBRANCH  10  11
ENDBRANCH   9  10
ENDBRANCH   8   9
ENDBRANCH   7   8
ENDBRANCH   6   7
ENDBRANCH   5   6
ENDBRANCH   4   5
ENDBRANCH   3   4
ENDBRANCH   2   3
TORSDOF 24
ENDMDL
MODEL      240
REMARK 921   NORMALIZED FREE ENERGY PREDICTED BY IDOCK:   20.20 KCAL/MOL
REMARK 922        TOTAL FREE ENERGY PREDICTED BY IDOCK:   46.26 KCAL/MOL
REMARK 923 INTER-LIGAND FREE ENERGY PREDICTED BY IDOCK:    4.62 KCAL/MOL
REMARK 924 INTRA-LIGAND FREE ENERGY PREDICTED BY IDOCK:   41.64 KCAL/MOL
REMARK 927      BINDING AFFINITY PREDICTED BY RF-SCORE:    0.00 PKD
ROOT
HETATM    1  C   UNL     1      -6.678   6.914  64.486  1.00  0.00    -0.042 C  
HETATM    2  O   UNL     1      -6.314   8.170  65.044  1.00  0.00    -0.048 OA 
ENDROOT
BRANCH   2   3
HETATM    3  C   UNL     1      -7.061   8.447  66.227  1.00  0.00    -0.077 C  
BRANCH   3   4
HETATM    4  C   UNL     1      -7.964   9.647  65.982  1.00  0.00    -0.108 C  
BRANCH   4   5
HETATM    5  O   UNL     1      -8.939   9.715  67.022  1.00  0.00    -0.133 OA 
BRANCH   5   6
HETATM    6  C   UNL     1     -10.258   9.709  66.485  1.00  0.00    -0.224 C  
BRANCH   6   7
HETATM    7  C   UNL     1     -10.196   9.935  64.984  1.00  0.00     0.114 C  
BRANCH   7   8
HETATM    8  O   UNL     1      -9.072   9.225  64.469  1.00  0.00    -0.200 OA 
BRANCH   8   9
HETATM    9  C   UNL     1      -8.627   8.226  65.380  1.00  0.00    -0.151 C  
BRANCH   9  10
HETATM   10  C   UNL     1      -7.844   7.176  64.613  1.00  0.00    -0.123 C  
BRANCH  10  11
HETATM   11  O   UNL     1      -7.772   7.573  63.249  1.00  0.00    -0.117 OA 
BRANCH  11  12
HETATM   12  C   UNL     1      -8.806   6.970  62.480  1.00  0.00     0.540 C  
BRANCH  12  13
HETATM   13  C   UNL     1     -10.070   6.925  63.321  1.00  0.00     6.291 C  
BRANCH  13  14
HETATM   14  O   UNL     1     -10.418   5.571  63.576  1.00  0.00     2.222 OA 
BRANCH  14  15
HETATM   15  C   UNL     1      -9.259   4.814  63.900  1.00  0.00     0.025 C  
BRANCH  15  16
HETATM   16  C   UNL     1      -9.506   3.987  65.150  1.00  0.00    -0.172 C  
BRANCH  16  17
HETATM   17  O   UNL     1     -10.296   4.773  66.033  1.00  0.00    -0.262 OA 
BRANCH  17  18
HETATM   18  C   UNL     1     -10.341   4.236  67.344  1.00  0.00     0.357 C  
BRANCH  18  19
HETATM   19  C   UNL     1      -9.837   5.302  68.298  1.00  0.00    -0.155 C  
BRANCH  19  20
HETATM   20  O   UNL     1      -9.031   4.705  69.305  1.00  0.00    -0.090 OA 
BRANCH  20  21
HETATM   21  C   UNL     1      -7.894   4.043  68.754  1.00  0.00    -0.067 C  
BRANCH  21  22
HETATM   22  C   UNL     1      -6.919   5.052  68.137  1.00  0.00    -0.061 C  
BRANCH  22  23
HETATM   23  O   UNL     1      -5.875   5.537  69.020  1.00  0.00    -0.020 OA 
BRANCH  23  24
HETATM   24  C   UNL     1      -6.347   6.041  70.294  1.00  0.00    -0.032 C  
HETATM   25  C   UNL     1      -6.736   7.488  70.170  1.00  0.00    -0.050 C  
HETATM   26  C   UNL     1      -8.307   7.743  69.791  1.00  0.00    -0.131 C  
HETATM   27  C   UNL     1      -9.488   6.952  70.625  1.00  0.00    -0.165 C  
HETATM   28  C   UNL     1     -10.621   7.412  71.758  1.00  0.00    -0.201 C  
HETATM   29  O   UNL     1     -10.122   6.130  69.635  1.00  0.00    -0.163 OA 
HETATM   30  C   UNL     1     -11.637   6.369  72.236  1.00  0.00    -0.341 C  
HETATM   31  H   UNL     1     -10.803   5.674  70.116  1.00  0.00     0.000 HD 
HETATM   32  C   UNL     1     -10.788   5.178  72.606  1.00  0.00    -0.303 A  
HETATM   33  C   UNL     1     -11.343   3.990  73.043  1.00  0.00    -0.075 A  
HETATM   34  C   UNL     1     -10.603   2.817  73.056  1.00  0.00    -0.246 A  
HETATM   35  C   UNL     1      -9.258   2.809  72.590  1.00  0.00    -0.087 A  
HETATM   36  O   UNL     1      -8.629   1.622  72.377  1.00  0.00    -0.056 OA 
HETATM   37  C   UNL     1      -8.654   4.021  72.264  1.00  0.00    -0.105 A  
HETATM   38  H   UNL     1      -7.731   1.616  72.066  1.00  0.00     0.000 HD 
HETATM   39  C   UNL     1      -9.368   5.226  72.307  1.00  0.00    -0.160 A  
HETATM   40  C   UNL     1      -8.605   6.336  71.638  1.00  0.00    -0.133 C  
HETATM   41  C   UNL     1      -7.613   5.356  70.854  1.00  0.00    -0.089 C  
HETATM   42  C   UNL     1      -8.263   7.883  72.503  1.00  0.00    -0.184 C  
HETATM   43  O   UNL     1      -7.404   4.185  71.689  1.00  0.00    -0.055 OA 
HETATM   44  C   UNL     1      -9.425   9.220  72.185  1.00  0.00     0.710 C  
HETATM   45  N   UNL     1     -10.816   8.823  71.863  1.00  0.00    -0.339 NA 
BRANCH  45  46
HETATM   46  C   UNL     1     -11.497   9.263  70.659  1.00  0.00    -0.274 C  
BRANCH  46  47
HETATM   47  C   UNL     1     -12.861   9.828  70.880  1.00  0.00    -0.314 C  
HETATM   48  C   UNL     1     -13.132  11.135  70.805  1.00  0.00    -0.081 C  
ENDBRANCH  46  47
ENDBRANCH  45  46
ENDBRANCH  23  24
ENDBRANCH  22  23
ENDBRANCH  21  22
ENDBRANCH  20  21
ENDBRANCH  19  20
ENDBRANCH  18  19
ENDBRANCH  17  18
ENDBRANCH  16  17
ENDBRANCH  15  16
ENDBRANCH  14  15
ENDBRANCH  13  14
ENDBRANCH  12  13
ENDBRANCH  11  12
ENDBRANCH  10  11
ENDBRANCH   9  10
ENDBRANCH   8   9
ENDBRANCH   7   8
ENDBRANCH   6   7
ENDBRANCH   5   6
ENDBRANCH   4   5
ENDBRANCH   3   4
ENDBRANCH   2   3
TORSDOF 24
ENDMDL
MODEL      241
REMARK 921   NORMALIZED FREE ENERGY PREDICTED BY IDOCK:   20.86 KCAL/MOL
REMARK 922        TOTAL FREE ENERGY PREDICTED BY IDOCK:   47.83 KCAL/MOL
REMARK 923 INTER-LIGAND FREE ENERGY PREDICTED BY IDOCK:   29.17 KCAL/MOL
REMARK 924 INTRA-LIGAND FREE ENERGY PREDICTED BY IDOCK:   18.66 KCAL/MOL
REMARK 927      BINDING AFFINITY PREDICTED BY RF-SCORE:    0.00 PKD
ROOT
HETATM    1  C   UNL     1     -13.372  15.769  71.436  1.00  0.00    -0.257 C  
HETATM    2  O   UNL     1     -12.520  16.612  72.200  1.00  0.00     0.011 OA 
ENDROOT
BRANCH   2   3
HETATM    3  C   UNL     1     -13.031  17.942  72.267  1.00  0.00    10.015 C  
BRANCH   3   4
HETATM    4  C   UNL     1     -12.573  18.719  71.042  1.00  0.00    18.256 C  
BRANCH   4   5
HETATM    5  O   UNL     1     -11.226  18.357  70.739  1.00  0.00     2.623 OA 
BRANCH   5   6
HETATM    6  C   UNL     1     -10.747  19.075  69.605  1.00  0.00     1.440 C  
BRANCH   6   7
HETATM    7  C   UNL     1     -10.996  18.259  68.347  1.00  0.00     0.334 C  
BRANCH   7   8
HETATM    8  O   UNL     1      -9.784  17.596  67.995  1.00  0.00    -0.280 OA 
BRANCH   8   9
HETATM    9  C   UNL     1      -8.861  17.593  69.076  1.00  0.00    -0.020 C  
BRANCH   9  10
HETATM   10  C   UNL     1      -8.765  16.184  69.636  1.00  0.00     0.201 C  
BRANCH  10  11
HETATM   11  O   UNL     1      -9.797  16.011  70.599  1.00  0.00     0.630 OA 
BRANCH  11  12
HETATM   12  C   UNL     1     -11.073  15.917  69.977  1.00  0.00    -0.354 C  
BRANCH  12  13
HETATM   13  C   UNL     1     -11.235  14.516  69.414  1.00  0.00    -0.280 C  
BRANCH  13  14
HETATM   14  O   UNL     1     -11.465  14.595  68.014  1.00  0.00    -0.295 OA 
BRANCH  14  15
HETATM   15  C   UNL     1     -10.267  14.320  67.298  1.00  0.00    -0.252 C  
BRANCH  15  16
HETATM   16  C   UNL     1     -10.040  12.821  67.215  1.00  0.00    -0.226 C  
BRANCH  16  17
HETATM   17  O   UNL     1     -11.237  12.183  67.640  1.00  0.00    -0.250 OA 
BRANCH  17  18
HETATM   18  C   UNL     1     -12.362  12.572  66.869  1.00  0.00     0.396 C  
BRANCH  18  19
HETATM   19  C   UNL     1     -12.442  11.646  65.670  1.00  0.00     1.700 C  
BRANCH  19  20
HETATM   20  O   UNL     1     -11.148  11.144  65.363  1.00  0.00    -0.145 OA 
BRANCH  20  21
HETATM   21  C   UNL     1     -10.420  12.030  64.515  1.00  0.00    -0.299 C  
BRANCH  21  22
HETATM   22  C   UNL     1     -10.017  11.333  63.211  1.00  0.00    -0.393 C  
BRANCH  22  23
HETATM   23  O   UNL     1      -8.825  10.510  63.281  1.00  0.00    -0.178 OA 
BRANCH  23  24
HETATM   24  C   UNL     1      -8.164  10.513  64.569  1.00  0.00    -0.077 C  
HETATM   25  C   UNL     1      -9.037  11.169  65.602  1.00  0.00    -0.221 C  
HETATM   26  C   UNL     1     -10.023  10.147  66.413  1.00  0.00    -0.295 C  
HETATM   27  C   UNL     1      -9.413   8.755  67.050  1.00  0.00    -0.169 C  
HETATM   28  C   UNL     1      -9.084   8.229  68.598  1.00  0.00    -0.140 C  
HETATM   29  O   UNL     1     -10.099   7.716  66.338  1.00  0.00    -0.448 OA 
HETATM   30  C   UNL     1      -8.599   6.789  68.789  1.00  0.00    -0.123 C  
HETATM   31  H   UNL     1      -9.746   6.914  66.705  1.00  0.00     0.000 HD 
HETATM   32  C   UNL     1      -7.469   6.652  67.797  1.00  0.00    -0.098 A  
HETATM   33  C   UNL     1      -6.789   5.462  67.622  1.00  0.00    -0.060 A  
HETATM   34  C   UNL     1      -6.001   5.247  66.500  1.00  0.00    -0.023 A  
HETATM   35  C   UNL     1      -5.901   6.244  65.490  1.00  0.00    -0.025 A  
HETATM   36  O   UNL     1      -5.333   5.932  64.294  1.00  0.00    -0.016 OA 
HETATM   37  C   UNL     1      -6.482   7.490  65.716  1.00  0.00    -0.045 A  
HETATM   38  H   UNL     1      -5.265   6.597  63.619  1.00  0.00     0.000 HD 
HETATM   39  C   UNL     1      -7.228   7.745  66.874  1.00  0.00    -0.089 A  
HETATM   40  C   UNL     1      -7.992   9.036  66.757  1.00  0.00    -0.107 C  
HETATM   41  C   UNL     1      -7.856   9.121  65.164  1.00  0.00    -0.106 C  
HETATM   42  C   UNL     1      -7.830  10.329  68.005  1.00  0.00    -0.100 C  
HETATM   43  O   UNL     1      -6.580   8.526  64.802  1.00  0.00    -0.064 OA 
HETATM   44  C   UNL     1      -9.092  10.328  69.287  1.00  0.00    -0.194 C  
HETATM   45  N   UNL     1      -9.683   9.013  69.631  1.00  0.00    -0.168 NA 
BRANCH  45  46
HETATM   46  C   UNL     1     -11.113   8.764  69.598  1.00  0.00    -0.028 C  
BRANCH  46  47
HETATM   47  C   UNL     1     -11.761   8.643  70.937  1.00  0.00    -0.287 C  
HETATM   48  C   UNL     1     -11.791   7.503  71.634  1.00  0.00    -0.322 C  
ENDBRANCH  46  47
ENDBRANCH  45  46
ENDBRANCH  23  24
ENDBRANCH  22  23
ENDBRANCH  21  22
ENDBRANCH  20  21
ENDBRANCH  19  20
ENDBRANCH  18  19
ENDBRANCH  17  18
ENDBRANCH  16  17
ENDBRANCH  15  16
ENDBRANCH  14  15
ENDBRANCH  13  14
ENDBRANCH  12  13
ENDBRANCH  11  12
ENDBRANCH  10  11
ENDBRANCH   9  10
ENDBRANCH   8   9
ENDBRANCH   7   8
ENDBRANCH   6   7
ENDBRANCH   5   6
ENDBRANCH   4   5
ENDBRANCH   3   4
ENDBRANCH   2   3
TORSDOF 24
ENDMDL
MODEL      242
REMARK 921   NORMALIZED FREE ENERGY PREDICTED BY IDOCK:   22.22 KCAL/MOL
REMARK 922        TOTAL FREE ENERGY PREDICTED BY IDOCK:   51.10 KCAL/MOL
REMARK 923 INTER-LIGAND FREE ENERGY PREDICTED BY IDOCK:   30.71 KCAL/MOL
REMARK 924 INTRA-LIGAND FREE ENERGY PREDICTED BY IDOCK:   20.39 KCAL/MOL
REMARK 927      BINDING AFFINITY PREDICTED BY RF-SCORE:    0.00 PKD
ROOT
HETATM    1  C   UNL     1     -13.723  13.464  66.011  1.00  0.00     3.260 C  
HETATM    2  O   UNL     1     -13.086  12.397  65.321  1.00  0.00    -0.403 OA 
ENDROOT
BRANCH   2   3
HETATM    3  C   UNL     1     -13.937  11.256  65.232  1.00  0.00     9.435 C  
BRANCH   3   4
HETATM    4  C   UNL     1     -13.099  10.028  64.909  1.00  0.00    12.804 C  
BRANCH   4   5
HETATM    5  O   UNL     1     -12.300   9.699  66.045  1.00  0.00     6.235 OA 
BRANCH   5   6
HETATM    6  C   UNL     1     -10.914   9.714  65.714  1.00  0.00     1.309 C  
BRANCH   6   7
HETATM    7  C   UNL     1     -10.088   9.676  66.990  1.00  0.00    -0.214 C  
BRANCH   7   8
HETATM    8  O   UNL     1     -10.867   9.058  68.012  1.00  0.00    -0.163 OA 
BRANCH   8   9
HETATM    9  C   UNL     1     -11.663  10.012  68.705  1.00  0.00     0.307 C  
BRANCH   9  10
HETATM   10  C   UNL     1     -12.422   9.305  69.814  1.00  0.00     1.228 C  
BRANCH  10  11
HETATM   11  O   UNL     1     -12.057   9.892  71.056  1.00  0.00    -0.308 OA 
BRANCH  11  12
HETATM   12  C   UNL     1     -11.814  11.287  70.916  1.00  0.00    -0.071 C  
BRANCH  12  13
HETATM   13  C   UNL     1     -13.108  11.964  70.502  1.00  0.00     0.441 C  
BRANCH  13  14
HETATM   14  O   UNL     1     -12.816  13.046  69.628  1.00  0.00     0.350 OA 
BRANCH  14  15
HETATM   15  C   UNL     1     -11.409  13.195  69.479  1.00  0.00    -0.160 C  
BRANCH  15  16
HETATM   16  C   UNL     1     -10.727  11.841  69.569  1.00  0.00     0.100 C  
BRANCH  16  17
HETATM   17  O   UNL     1      -9.935  11.682  68.399  1.00  0.00    -0.191 OA 
BRANCH  17  18
HETATM   18  C   UNL     1      -8.939  12.685  68.278  1.00  0.00    -0.176 C  
BRANCH  18  19
HETATM   19  C   UNL     1      -7.606  11.989  68.075  1.00  0.00    -0.120 C  
BRANCH  19  20
HETATM   20  O   UNL     1      -7.400  11.035  69.108  1.00  0.00    -0.106 OA 
BRANCH  20  21
HETATM   21  C   UNL     1      -6.428  11.477  70.055  1.00  0.00    -0.067 C  
BRANCH  21  22
HETATM   22  C   UNL     1      -5.397  10.378  70.334  1.00  0.00    -0.056 C  
BRANCH  22  23
HETATM   23  O   UNL     1      -5.912   9.022  70.350  1.00  0.00    -0.033 OA 
BRANCH  23  24
HETATM   24  C   UNL     1      -6.736   8.703  71.497  1.00  0.00    -0.078 C  
HETATM   25  C   UNL     1      -8.060   9.407  71.401  1.00  0.00     0.313 C  
HETATM   26  C   UNL     1      -9.238   8.550  70.656  1.00  0.00    -0.189 C  
HETATM   27  C   UNL     1      -9.508   6.983  71.089  1.00  0.00    -0.165 C  
HETATM   28  C   UNL     1     -10.716   6.198  71.929  1.00  0.00    -0.232 C  
HETATM   29  O   UNL     1      -9.200   6.237  69.903  1.00  0.00    -0.149 OA 
HETATM   30  C   UNL     1     -10.651   4.672  72.040  1.00  0.00    -0.139 C  
HETATM   31  H   UNL     1      -9.356   5.333  70.154  1.00  0.00     0.000 HD 
HETATM   32  C   UNL     1      -9.243   4.402  72.513  1.00  0.00    -0.148 A  
HETATM   33  C   UNL     1      -8.764   3.118  72.690  1.00  0.00    -0.093 A  
HETATM   34  C   UNL     1      -7.403   2.870  72.793  1.00  0.00    -0.045 A  
HETATM   35  C   UNL     1      -6.467   3.938  72.688  1.00  0.00    -0.021 A  
HETATM   36  O   UNL     1      -5.144   3.657  72.543  1.00  0.00     0.000 OA 
HETATM   37  C   UNL     1      -6.945   5.245  72.632  1.00  0.00    -0.085 A  
HETATM   38  H   UNL     1      -4.519   4.370  72.473  1.00  0.00     0.000 HD 
HETATM   39  C   UNL     1      -8.319   5.517  72.593  1.00  0.00    -0.114 A  
HETATM   40  C   UNL     1      -8.579   6.956  72.238  1.00  0.00    -0.123 C  
HETATM   41  C   UNL     1      -7.111   7.212  71.654  1.00  0.00    -0.069 C  
HETATM   42  C   UNL     1      -9.607   8.002  73.291  1.00  0.00    -0.322 C  
HETATM   43  O   UNL     1      -6.188   6.385  72.412  1.00  0.00    -0.047 OA 
HETATM   44  C   UNL     1     -11.333   8.133  72.801  1.00  0.00    -0.336 C  
HETATM   45  N   UNL     1     -11.911   6.962  72.100  1.00  0.00    -0.292 NA 
BRANCH  45  46
HETATM   46  C   UNL     1     -12.556   7.064  70.803  1.00  0.00    -0.140 C  
BRANCH  46  47
HETATM   47  C   UNL     1     -11.904   6.279  69.714  1.00  0.00     0.077 C  
HETATM   48  C   UNL     1     -10.871   6.738  69.001  1.00  0.00    -0.290 C  
ENDBRANCH  46  47
ENDBRANCH  45  46
ENDBRANCH  23  24
ENDBRANCH  22  23
ENDBRANCH  21  22
ENDBRANCH  20  21
ENDBRANCH  19  20
ENDBRANCH  18  19
ENDBRANCH  17  18
ENDBRANCH  16  17
ENDBRANCH  15  16
ENDBRANCH  14  15
ENDBRANCH  13  14
ENDBRANCH  12  13
ENDBRANCH  11  12
ENDBRANCH  10  11
ENDBRANCH   9  10
ENDBRANCH   8   9
ENDBRANCH   7   8
ENDBRANCH   6   7
ENDBRANCH   5   6
ENDBRANCH   4   5
ENDBRANCH   3   4
ENDBRANCH   2   3
TORSDOF 24
ENDMDL
MODEL      243
REMARK 921   NORMALIZED FREE ENERGY PREDICTED BY IDOCK:   25.95 KCAL/MOL
REMARK 922        TOTAL FREE ENERGY PREDICTED BY IDOCK:   60.06 KCAL/MOL
REMARK 923 INTER-LIGAND FREE ENERGY PREDICTED BY IDOCK:   45.98 KCAL/MOL
REMARK 924 INTRA-LIGAND FREE ENERGY PREDICTED BY IDOCK:   14.08 KCAL/MOL
REMARK 927      BINDING AFFINITY PREDICTED BY RF-SCORE:    0.00 PKD
ROOT
HETATM    1  C   UNL     1     -12.065   9.513  62.745  1.00  0.00    11.313 C  
HETATM    2  O   UNL     1     -11.611   9.425  64.088  1.00  0.00     7.614 OA 
ENDROOT
BRANCH   2   3
HETATM    3  C   UNL     1     -12.347   8.447  64.821  1.00  0.00    18.915 C  
BRANCH   3   4
HETATM    4  C   UNL     1     -12.130   8.668  66.311  1.00  0.00     8.613 C  
BRANCH   4   5
HETATM    5  O   UNL     1     -11.243   9.771  66.493  1.00  0.00     0.303 OA 
BRANCH   5   6
HETATM    6  C   UNL     1     -11.784  10.960  65.923  1.00  0.00     1.244 C  
BRANCH   6   7
HETATM    7  C   UNL     1     -10.846  11.475  64.844  1.00  0.00    -0.283 C  
BRANCH   7   8
HETATM    8  O   UNL     1     -10.190  12.641  65.338  1.00  0.00    -0.281 OA 
BRANCH   8   9
HETATM    9  C   UNL     1      -9.063  12.301  66.138  1.00  0.00    -0.074 C  
BRANCH   9  10
HETATM   10  C   UNL     1      -8.041  13.421  66.047  1.00  0.00     1.930 C  
BRANCH  10  11
HETATM   11  O   UNL     1      -7.243  13.400  67.223  1.00  0.00    -0.139 OA 
BRANCH  11  12
HETATM   12  C   UNL     1      -7.226  14.673  67.859  1.00  0.00    -0.159 C  
BRANCH  12  13
HETATM   13  C   UNL     1      -7.118  14.462  69.359  1.00  0.00    -0.113 C  
BRANCH  13  14
HETATM   14  O   UNL     1      -6.296  13.333  69.619  1.00  0.00    -0.115 OA 
BRANCH  14  15
HETATM   15  C   UNL     1      -6.238  12.489  68.476  1.00  0.00    -0.063 C  
BRANCH  15  16
HETATM   16  C   UNL     1      -7.601  11.873  68.211  1.00  0.00    -0.116 C  
BRANCH  16  17
HETATM   17  O   UNL     1      -7.497  10.479  68.469  1.00  0.00    -0.084 OA 
BRANCH  17  18
HETATM   18  C   UNL     1      -6.157  10.018  68.424  1.00  0.00    -0.045 C  
BRANCH  18  19
HETATM   19  C   UNL     1      -5.649   9.937  69.852  1.00  0.00    -0.038 C  
BRANCH  19  20
HETATM   20  O   UNL     1      -6.527  10.645  70.715  1.00  0.00    -0.339 OA 
BRANCH  20  21
HETATM   21  C   UNL     1      -7.388   9.766  71.437  1.00  0.00     0.739 C  
BRANCH  21  22
HETATM   22  C   UNL     1      -8.796   9.759  70.830  1.00  0.00     0.303 C  
BRANCH  22  23
HETATM   23  O   UNL     1      -8.955   8.971  69.622  1.00  0.00    -0.142 OA 
BRANCH  23  24
HETATM   24  C   UNL     1      -8.063   7.835  69.520  1.00  0.00    -0.126 C  
HETATM   25  C   UNL     1      -8.096   7.030  70.789  1.00  0.00    -0.113 C  
HETATM   26  C   UNL     1      -9.199   5.822  70.804  1.00  0.00    -0.171 C  
HETATM   27  C   UNL     1      -9.296   4.788  69.526  1.00  0.00    -0.133 C  
HETATM   28  C   UNL     1      -8.882   3.190  69.285  1.00  0.00    -0.098 C  
HETATM   29  O   UNL     1     -10.608   5.017  68.992  1.00  0.00    -0.102 OA 
HETATM   30  C   UNL     1      -9.231   2.542  67.942  1.00  0.00    -0.250 C  
HETATM   31  H   UNL     1     -10.663   4.420  68.254  1.00  0.00     0.000 HD 
HETATM   32  C   UNL     1      -8.701   3.517  66.919  1.00  0.00    -0.126 A  
HETATM   33  C   UNL     1      -8.866   3.316  65.562  1.00  0.00    -0.136 A  
HETATM   34  C   UNL     1      -8.685   4.353  64.658  1.00  0.00    -0.142 A  
HETATM   35  C   UNL     1      -8.350   5.658  65.118  1.00  0.00    -0.146 A  
HETATM   36  O   UNL     1      -8.417   6.709  64.258  1.00  0.00    -0.337 OA 
HETATM   37  C   UNL     1      -8.063   5.840  66.469  1.00  0.00    -0.102 A  
HETATM   38  H   UNL     1      -8.193   7.581  64.564  1.00  0.00     0.000 HD 
HETATM   39  C   UNL     1      -8.179   4.787  67.387  1.00  0.00    -0.105 A  
HETATM   40  C   UNL     1      -8.108   5.289  68.803  1.00  0.00    -0.090 C  
HETATM   41  C   UNL     1      -8.411   6.812  68.415  1.00  0.00    -0.123 C  
HETATM   42  C   UNL     1      -6.917   4.605  69.974  1.00  0.00    -0.048 C  
HETATM   43  O   UNL     1      -7.836   7.052  67.102  1.00  0.00    -0.106 OA 
HETATM   44  C   UNL     1      -7.544   3.299  71.040  1.00  0.00    -0.040 C  
HETATM   45  N   UNL     1      -8.629   2.457  70.484  1.00  0.00    -0.051 NA 
BRANCH  45  46
HETATM   46  C   UNL     1      -9.900   2.269  71.161  1.00  0.00    -0.036 C  
BRANCH  46  47
HETATM   47  C   UNL     1      -9.922   2.707  72.588  1.00  0.00    -0.219 C  
HETATM   48  C   UNL     1     -10.828   3.560  73.077  1.00  0.00    -0.200 C  
ENDBRANCH  46  47
ENDBRANCH  45  46
ENDBRANCH  23  24
ENDBRANCH  22  23
ENDBRANCH  21  22
ENDBRANCH  20  21
ENDBRANCH  19  20
ENDBRANCH  18  19
ENDBRANCH  17  18
ENDBRANCH  16  17
ENDBRANCH  15  16
ENDBRANCH  14  15
ENDBRANCH  13  14
ENDBRANCH  12  13
ENDBRANCH  11  12
ENDBRANCH  10  11
ENDBRANCH   9  10
ENDBRANCH   8   9
ENDBRANCH   7   8
ENDBRANCH   6   7
ENDBRANCH   5   6
ENDBRANCH   4   5
ENDBRANCH   3   4
ENDBRANCH   2   3
TORSDOF 24
ENDMDL
MODEL      244
REMARK 921   NORMALIZED FREE ENERGY PREDICTED BY IDOCK:   26.55 KCAL/MOL
REMARK 922        TOTAL FREE ENERGY PREDICTED BY IDOCK:   61.51 KCAL/MOL
REMARK 923 INTER-LIGAND FREE ENERGY PREDICTED BY IDOCK:   -3.53 KCAL/MOL
REMARK 924 INTRA-LIGAND FREE ENERGY PREDICTED BY IDOCK:   65.04 KCAL/MOL
REMARK 927      BINDING AFFINITY PREDICTED BY RF-SCORE:    0.00 PKD
ROOT
HETATM    1  C   UNL     1      -9.425  18.224  68.615  1.00  0.00    -0.327 C  
HETATM    2  O   UNL     1      -8.008  18.296  68.706  1.00  0.00    -0.304 OA 
ENDROOT
BRANCH   2   3
HETATM    3  C   UNL     1      -7.598  19.311  69.620  1.00  0.00     0.148 C  
BRANCH   3   4
HETATM    4  C   UNL     1      -6.336  19.979  69.095  1.00  0.00    -0.325 C  
BRANCH   4   5
HETATM    5  O   UNL     1      -5.445  18.975  68.610  1.00  0.00    -0.194 OA 
BRANCH   5   6
HETATM    6  C   UNL     1      -5.305  19.059  67.194  1.00  0.00    -0.150 C  
BRANCH   6   7
HETATM    7  C   UNL     1      -6.617  19.519  66.581  1.00  0.00    -0.187 C  
BRANCH   7   8
HETATM    8  O   UNL     1      -7.542  19.771  67.636  1.00  0.00    -0.266 OA 
BRANCH   8   9
HETATM    9  C   UNL     1      -6.994  19.423  68.901  1.00  0.00    -0.349 C  
BRANCH   9  10
HETATM   10  C   UNL     1      -7.102  17.919  69.086  1.00  0.00    -0.180 C  
BRANCH  10  11
HETATM   11  O   UNL     1      -6.602  17.284  67.917  1.00  0.00    -0.148 OA 
BRANCH  11  12
HETATM   12  C   UNL     1      -7.226  17.794  66.744  1.00  0.00    -0.207 C  
BRANCH  12  13
HETATM   13  C   UNL     1      -7.516  16.635  65.807  1.00  0.00     0.887 C  
BRANCH  13  14
HETATM   14  O   UNL     1      -8.612  15.884  66.312  1.00  0.00    -0.312 OA 
BRANCH  14  15
HETATM   15  C   UNL     1      -8.342  14.491  66.218  1.00  0.00     0.712 C  
BRANCH  15  16
HETATM   16  C   UNL     1      -9.495  13.695  66.806  1.00  0.00    -0.270 C  
BRANCH  16  17
HETATM   17  O   UNL     1     -10.689  14.427  66.561  1.00  0.00    -0.298 OA 
BRANCH  17  18
HETATM   18  C   UNL     1     -10.886  14.696  65.183  1.00  0.00    -0.401 C  
BRANCH  18  19
HETATM   19  C   UNL     1     -10.938  13.365  64.456  1.00  0.00    -0.390 C  
BRANCH  19  20
HETATM   20  O   UNL     1     -10.277  12.370  65.226  1.00  0.00    -0.276 OA 
BRANCH  20  21
HETATM   21  C   UNL     1     -11.133  11.266  65.515  1.00  0.00    -0.067 C  
BRANCH  21  22
HETATM   22  C   UNL     1     -10.356  10.137  66.202  1.00  0.00    -0.167 C  
BRANCH  22  23
HETATM   23  O   UNL     1     -11.008   9.532  67.348  1.00  0.00    -0.232 OA 
BRANCH  23  24
HETATM   24  C   UNL     1     -11.202   8.101  67.247  1.00  0.00     0.745 C  
HETATM   25  C   UNL     1     -10.167   7.497  66.339  1.00  0.00    -0.022 C  
HETATM   26  C   UNL     1      -8.808   6.988  67.095  1.00  0.00    -0.121 C  
HETATM   27  C   UNL     1      -8.926   6.056  68.448  1.00  0.00    -0.114 C  
HETATM   28  C   UNL     1      -8.634   4.449  68.785  1.00  0.00    -0.085 C  
HETATM   29  O   UNL     1      -8.341   6.864  69.479  1.00  0.00    -0.129 OA 
HETATM   30  C   UNL     1      -8.773   3.973  70.234  1.00  0.00    -0.120 C  
HETATM   31  H   UNL     1      -8.410   6.326  70.260  1.00  0.00     0.000 HD 
HETATM   32  C   UNL     1     -10.122   4.496  70.661  1.00  0.00    -0.232 A  
HETATM   33  C   UNL     1     -10.605   4.317  71.943  1.00  0.00     0.031 A  
HETATM   34  C   UNL     1     -11.667   5.073  72.420  1.00  0.00     0.169 A  
HETATM   35  C   UNL     1     -12.264   6.073  71.600  1.00  0.00     0.209 A  
HETATM   36  O   UNL     1     -13.128   6.965  72.154  1.00  0.00    -0.539 OA 
HETATM   37  C   UNL     1     -11.866   6.175  70.269  1.00  0.00     0.097 A  
HETATM   38  H   UNL     1     -13.526   7.632  71.608  1.00  0.00     0.000 HD 
HETATM   39  C   UNL     1     -10.838   5.374  69.753  1.00  0.00    -0.180 A  
HETATM   40  C   UNL     1     -10.391   5.865  68.403  1.00  0.00    -0.261 C  
HETATM   41  C   UNL     1     -11.052   7.312  68.567  1.00  0.00     0.122 C  
HETATM   42  C   UNL     1     -10.357   4.760  66.976  1.00  0.00    -0.171 C  
HETATM   43  O   UNL     1     -12.253   7.157  69.372  1.00  0.00     0.652 OA 
HETATM   44  C   UNL     1      -8.765   3.998  66.626  1.00  0.00    -0.116 C  
HETATM   45  N   UNL     1      -7.876   3.763  67.788  1.00  0.00    -0.080 NA 
BRANCH  45  46
HETATM   46  C   UNL     1      -6.515   4.265  67.847  1.00  0.00    -0.038 C  
BRANCH  46  47
HETATM   47  C   UNL     1      -5.594   3.708  66.812  1.00  0.00    -0.021 C  
HETATM   48  C   UNL     1      -5.768   3.900  65.500  1.00  0.00    -0.022 C  
ENDBRANCH  46  47
ENDBRANCH  45  46
ENDBRANCH  23  24
ENDBRANCH  22  23
ENDBRANCH  21  22
ENDBRANCH  20  21
ENDBRANCH  19  20
ENDBRANCH  18  19
ENDBRANCH  17  18
ENDBRANCH  16  17
ENDBRANCH  15  16
ENDBRANCH  14  15
ENDBRANCH  13  14
ENDBRANCH  12  13
ENDBRANCH  11  12
ENDBRANCH  10  11
ENDBRANCH   9  10
ENDBRANCH   8   9
ENDBRANCH   7   8
ENDBRANCH   6   7
ENDBRANCH   5   6
ENDBRANCH   4   5
ENDBRANCH   3   4
ENDBRANCH   2   3
TORSDOF 24
ENDMDL
MODEL      245
REMARK 921   NORMALIZED FREE ENERGY PREDICTED BY IDOCK:   27.55 KCAL/MOL
REMARK 922        TOTAL FREE ENERGY PREDICTED BY IDOCK:   63.91 KCAL/MOL
REMARK 923 INTER-LIGAND FREE ENERGY PREDICTED BY IDOCK:   -0.02 KCAL/MOL
REMARK 924 INTRA-LIGAND FREE ENERGY PREDICTED BY IDOCK:   63.93 KCAL/MOL
REMARK 927      BINDING AFFINITY PREDICTED BY RF-SCORE:    0.00 PKD
ROOT
HETATM    1  C   UNL     1      -9.540  15.842  67.134  1.00  0.00    -0.218 C  
HETATM    2  O   UNL     1      -8.283  16.366  66.728  1.00  0.00    -0.196 OA 
ENDROOT
BRANCH   2   3
HETATM    3  C   UNL     1      -8.434  17.328  65.686  1.00  0.00     0.555 C  
BRANCH   3   4
HETATM    4  C   UNL     1      -9.336  16.757  64.602  1.00  0.00     3.929 C  
BRANCH   4   5
HETATM    5  O   UNL     1     -10.468  16.141  65.215  1.00  0.00    -0.499 OA 
BRANCH   5   6
HETATM    6  C   UNL     1     -10.799  14.918  64.564  1.00  0.00    -0.140 C  
BRANCH   6   7
HETATM    7  C   UNL     1      -9.803  13.844  64.967  1.00  0.00    -0.046 C  
BRANCH   7   8
HETATM    8  O   UNL     1      -9.745  13.797  66.391  1.00  0.00    -0.282 OA 
BRANCH   8   9
HETATM    9  C   UNL     1     -10.989  14.166  66.974  1.00  0.00    -0.300 C  
BRANCH   9  10
HETATM   10  C   UNL     1     -10.764  14.509  68.436  1.00  0.00    -0.243 C  
BRANCH  10  11
HETATM   11  O   UNL     1     -10.269  13.353  69.100  1.00  0.00    -0.010 OA 
BRANCH  11  12
HETATM   12  C   UNL     1      -9.288  12.686  68.314  1.00  0.00    -0.195 C  
BRANCH  12  13
HETATM   13  C   UNL     1      -9.945  11.503  67.624  1.00  0.00    -0.184 C  
BRANCH  13  14
HETATM   14  O   UNL     1      -8.942  10.594  67.191  1.00  0.00    -0.137 OA 
BRANCH  14  15
HETATM   15  C   UNL     1      -9.502   9.305  66.973  1.00  0.00    -0.159 C  
BRANCH  15  16
HETATM   16  C   UNL     1      -8.857   8.653  65.762  1.00  0.00    -0.193 C  
BRANCH  16  17
HETATM   17  O   UNL     1      -8.463   9.692  64.876  1.00  0.00    -0.132 OA 
BRANCH  17  18
HETATM   18  C   UNL     1      -9.391   9.884  63.821  1.00  0.00    -0.197 C  
BRANCH  18  19
HETATM   19  C   UNL     1     -10.548  10.701  64.366  1.00  0.00    -0.048 C  
BRANCH  19  20
HETATM   20  O   UNL     1     -10.555  10.636  65.786  1.00  0.00    -0.194 OA 
BRANCH  20  21
HETATM   21  C   UNL     1     -10.901   9.335  66.258  1.00  0.00     0.576 C  
BRANCH  21  22
HETATM   22  C   UNL     1      -9.648   8.543  66.648  1.00  0.00    -0.227 C  
BRANCH  22  23
HETATM   23  O   UNL     1      -8.513   9.336  67.081  1.00  0.00    -0.122 OA 
BRANCH  23  24
HETATM   24  C   UNL     1      -7.684   8.705  68.087  1.00  0.00    -0.102 C  
HETATM   25  C   UNL     1      -8.297   8.872  69.449  1.00  0.00    -0.112 C  
HETATM   26  C   UNL     1      -9.300   7.660  69.901  1.00  0.00    -0.150 C  
HETATM   27  C   UNL     1      -8.816   6.094  69.732  1.00  0.00    -0.135 C  
HETATM   28  C   UNL     1      -8.354   4.897  70.797  1.00  0.00    -0.102 C  
HETATM   29  O   UNL     1      -9.741   5.546  68.782  1.00  0.00    -0.128 OA 
HETATM   30  C   UNL     1      -8.063   3.500  70.239  1.00  0.00    -0.056 C  
HETATM   31  H   UNL     1      -9.461   4.642  68.685  1.00  0.00     0.000 HD 
HETATM   32  C   UNL     1      -7.117   3.757  69.092  1.00  0.00    -0.046 A  
HETATM   33  C   UNL     1      -6.650   2.737  68.285  1.00  0.00    -0.036 A  
HETATM   34  C   UNL     1      -6.068   3.007  67.055  1.00  0.00    -0.024 A  
HETATM   35  C   UNL     1      -5.965   4.347  66.586  1.00  0.00    -0.027 A  
HETATM   36  O   UNL     1      -5.623   4.579  65.291  1.00  0.00    -0.013 OA 
HETATM   37  C   UNL     1      -6.320   5.386  67.443  1.00  0.00    -0.039 A  
HETATM   38  H   UNL     1      -5.554   5.474  64.978  1.00  0.00     0.000 HD 
HETATM   39  C   UNL     1      -6.850   5.133  68.716  1.00  0.00    -0.051 A  
HETATM   40  C   UNL     1      -7.425   6.382  69.325  1.00  0.00    -0.094 C  
HETATM   41  C   UNL     1      -7.503   7.178  67.939  1.00  0.00    -0.099 C  
HETATM   42  C   UNL     1      -6.901   6.946  70.958  1.00  0.00    -0.058 C  
HETATM   43  O   UNL     1      -6.393   6.730  67.114  1.00  0.00    -0.038 OA 
HETATM   44  C   UNL     1      -7.957   6.443  72.325  1.00  0.00    -0.103 C  
HETATM   45  N   UNL     1      -8.680   5.159  72.162  1.00  0.00    -0.129 NA 
BRANCH  45  46
HETATM   46  C   UNL     1     -10.122   5.050  72.299  1.00  0.00    -0.192 C  
BRANCH  46  47
HETATM   47  C   UNL     1     -10.599   3.782  72.925  1.00  0.00    -0.229 C  
HETATM   48  C   UNL     1     -11.867   3.363  72.852  1.00  0.00     0.608 C  
ENDBRANCH  46  47
ENDBRANCH  45  46
ENDBRANCH  23  24
ENDBRANCH  22  23
ENDBRANCH  21  22
ENDBRANCH  20  21
ENDBRANCH  19  20
ENDBRANCH  18  19
ENDBRANCH  17  18
ENDBRANCH  16  17
ENDBRANCH  15  16
ENDBRANCH  14  15
ENDBRANCH  13  14
ENDBRANCH  12  13
ENDBRANCH  11  12
ENDBRANCH  10  11
ENDBRANCH   9  10
ENDBRANCH   8   9
ENDBRANCH   7   8
ENDBRANCH   6   7
ENDBRANCH   5   6
ENDBRANCH   4   5
ENDBRANCH   3   4
ENDBRANCH   2   3
TORSDOF 24
ENDMDL
MODEL      246
REMARK 921   NORMALIZED FREE ENERGY PREDICTED BY IDOCK:   27.55 KCAL/MOL
REMARK 922        TOTAL FREE ENERGY PREDICTED BY IDOCK:   63.92 KCAL/MOL
REMARK 923 INTER-LIGAND FREE ENERGY PREDICTED BY IDOCK:   24.42 KCAL/MOL
REMARK 924 INTRA-LIGAND FREE ENERGY PREDICTED BY IDOCK:   39.49 KCAL/MOL
REMARK 927      BINDING AFFINITY PREDICTED BY RF-SCORE:    0.00 PKD
ROOT
HETATM    1  C   UNL     1      -8.134   7.417  69.373  1.00  0.00    -0.129 C  
HETATM    2  O   UNL     1      -8.638   8.724  69.612  1.00  0.00    -0.125 OA 
ENDROOT
BRANCH   2   3
HETATM    3  C   UNL     1      -9.323   8.796  70.861  1.00  0.00    -0.214 C  
BRANCH   3   4
HETATM    4  C   UNL     1     -10.270   7.612  70.983  1.00  0.00    -0.194 C  
BRANCH   4   5
HETATM    5  O   UNL     1     -11.614   8.076  70.853  1.00  0.00    -0.283 OA 
BRANCH   5   6
HETATM    6  C   UNL     1     -11.667   9.273  70.083  1.00  0.00     0.027 C  
BRANCH   6   7
HETATM    7  C   UNL     1     -10.278   9.883  69.997  1.00  0.00    -0.271 C  
BRANCH   7   8
HETATM    8  O   UNL     1      -9.874   9.892  68.630  1.00  0.00    -0.151 OA 
BRANCH   8   9
HETATM    9  C   UNL     1     -10.719  10.724  67.845  1.00  0.00    -0.239 C  
BRANCH   9  10
HETATM   10  C   UNL     1     -11.523  11.620  68.770  1.00  0.00    -0.285 C  
BRANCH  10  11
HETATM   11  O   UNL     1     -12.790  11.017  68.995  1.00  0.00    -0.086 OA 
BRANCH  11  12
HETATM   12  C   UNL     1     -13.796  11.607  68.180  1.00  0.00    10.410 C  
BRANCH  12  13
HETATM   13  C   UNL     1     -13.177  11.984  66.845  1.00  0.00     5.807 C  
BRANCH  13  14
HETATM   14  O   UNL     1     -12.052  11.152  66.596  1.00  0.00     0.254 OA 
BRANCH  14  15
HETATM   15  C   UNL     1     -12.249  10.397  65.406  1.00  0.00     5.186 C  
BRANCH  15  16
HETATM   16  C   UNL     1     -10.949  10.302  64.627  1.00  0.00     1.330 C  
BRANCH  16  17
HETATM   17  O   UNL     1      -9.996  11.130  65.282  1.00  0.00    -0.231 OA 
BRANCH  17  18
HETATM   18  C   UNL     1     -10.486  12.441  65.512  1.00  0.00    -0.275 C  
BRANCH  18  19
HETATM   19  C   UNL     1     -10.550  12.653  67.013  1.00  0.00    -0.240 C  
BRANCH  19  20
HETATM   20  O   UNL     1      -9.272  12.415  67.587  1.00  0.00    -0.173 OA 
BRANCH  20  21
HETATM   21  C   UNL     1      -8.216  12.691  66.668  1.00  0.00     0.140 C  
BRANCH  21  22
HETATM   22  C   UNL     1      -6.920  11.994  67.098  1.00  0.00    -0.134 C  
BRANCH  22  23
HETATM   23  O   UNL     1      -6.797  11.716  68.516  1.00  0.00    -0.063 OA 
BRANCH  23  24
HETATM   24  C   UNL     1      -7.001  12.863  69.377  1.00  0.00     0.107 C  
HETATM   25  C   UNL     1      -6.136  14.009  68.931  1.00  0.00    -0.086 C  
HETATM   26  C   UNL     1      -6.843  15.025  67.861  1.00  0.00    -0.172 C  
HETATM   27  C   UNL     1      -8.359  15.597  68.158  1.00  0.00    -0.146 C  
HETATM   28  C   UNL     1      -8.979  17.080  68.601  1.00  0.00    -0.267 C  
HETATM   29  O   UNL     1      -9.149  15.062  67.086  1.00  0.00    -0.194 OA 
HETATM   30  C   UNL     1     -10.500  17.238  68.684  1.00  0.00    -0.356 C  
HETATM   31  H   UNL     1     -10.023  15.392  67.257  1.00  0.00     0.000 HD 
HETATM   32  C   UNL     1     -10.942  16.066  69.526  1.00  0.00    -0.326 A  
HETATM   33  C   UNL     1     -12.274  15.819  69.795  1.00  0.00    -0.236 A  
HETATM   34  C   UNL     1     -12.691  14.584  70.270  1.00  0.00    -0.325 A  
HETATM   35  C   UNL     1     -11.751  13.532  70.462  1.00  0.00    -0.066 A  
HETATM   36  O   UNL     1     -12.198  12.268  70.688  1.00  0.00    -0.371 OA 
HETATM   37  C   UNL     1     -10.395  13.810  70.311  1.00  0.00     1.665 A  
HETATM   38  H   UNL     1     -11.570  11.566  70.816  1.00  0.00     0.000 HD 
HETATM   39  C   UNL     1      -9.951  15.072  69.894  1.00  0.00    -0.026 A  
HETATM   40  C   UNL     1      -8.494  15.041  69.520  1.00  0.00    -0.084 C  
HETATM   41  C   UNL     1      -8.430  13.449  69.380  1.00  0.00     0.977 C  
HETATM   42  C   UNL     1      -7.318  16.187  70.270  1.00  0.00     1.104 C  
HETATM   43  O   UNL     1      -9.362  12.887  70.344  1.00  0.00     4.232 OA 
HETATM   44  C   UNL     1      -6.974  17.675  69.318  1.00  0.00    -0.161 C  
HETATM   45  N   UNL     1      -8.069  18.171  68.451  1.00  0.00    -0.296 NA 
BRANCH  45  46
HETATM   46  C   UNL     1      -7.897  18.406  67.028  1.00  0.00    -0.227 C  
BRANCH  46  47
HETATM   47  C   UNL     1      -6.478  18.521  66.578  1.00  0.00    -0.217 C  
HETATM   48  C   UNL     1      -5.594  19.342  67.153  1.00  0.00    -0.171 C  
ENDBRANCH  46  47
ENDBRANCH  45  46
ENDBRANCH  23  24
ENDBRANCH  22  23
ENDBRANCH  21  22
ENDBRANCH  20  21
ENDBRANCH  19  20
ENDBRANCH  18  19
ENDBRANCH  17  18
ENDBRANCH  16  17
ENDBRANCH  15  16
ENDBRANCH  14  15
ENDBRANCH  13  14
ENDBRANCH  12  13
ENDBRANCH  11  12
ENDBRANCH  10  11
ENDBRANCH   9  10
ENDBRANCH   8   9
ENDBRANCH   7   8
ENDBRANCH   6   7
ENDBRANCH   5   6
ENDBRANCH   4   5
ENDBRANCH   3   4
ENDBRANCH   2   3
TORSDOF 24
ENDMDL
MODEL      247
REMARK 921   NORMALIZED FREE ENERGY PREDICTED BY IDOCK:   28.01 KCAL/MOL
REMARK 922        TOTAL FREE ENERGY PREDICTED BY IDOCK:   65.01 KCAL/MOL
REMARK 923 INTER-LIGAND FREE ENERGY PREDICTED BY IDOCK:   42.86 KCAL/MOL
REMARK 924 INTRA-LIGAND FREE ENERGY PREDICTED BY IDOCK:   22.15 KCAL/MOL
REMARK 927      BINDING AFFINITY PREDICTED BY RF-SCORE:    0.00 PKD
ROOT
HETATM    1  C   UNL     1      -7.731  17.684  67.508  1.00  0.00    -0.201 C  
HETATM    2  O   UNL     1      -8.848  16.825  67.322  1.00  0.00    -0.199 OA 
ENDROOT
BRANCH   2   3
HETATM    3  C   UNL     1      -9.502  16.551  68.560  1.00  0.00    -0.235 C  
BRANCH   3   4
HETATM    4  C   UNL     1      -9.364  17.757  69.478  1.00  0.00     0.527 C  
BRANCH   4   5
HETATM    5  O   UNL     1      -9.293  18.940  68.684  1.00  0.00    -0.347 OA 
BRANCH   5   6
HETATM    6  C   UNL     1      -8.009  19.548  68.789  1.00  0.00    -0.327 C  
BRANCH   6   7
HETATM    7  C   UNL     1      -6.995  18.729  68.008  1.00  0.00    -0.239 C  
BRANCH   7   8
HETATM    8  O   UNL     1      -6.724  17.534  68.737  1.00  0.00    -0.204 OA 
BRANCH   8   9
HETATM    9  C   UNL     1      -6.681  17.781  70.138  1.00  0.00     0.692 C  
BRANCH   9  10
HETATM   10  C   UNL     1      -7.105  16.520  70.871  1.00  0.00     2.985 C  
BRANCH  10  11
HETATM   11  O   UNL     1      -7.517  16.879  72.184  1.00  0.00     8.716 OA 
BRANCH  11  12
HETATM   12  C   UNL     1      -7.236  15.842  73.116  1.00  0.00     9.219 C  
BRANCH  12  13
HETATM   13  C   UNL     1      -8.551  15.266  73.610  1.00  0.00    11.847 C  
BRANCH  13  14
HETATM   14  O   UNL     1      -9.134  14.476  72.583  1.00  0.00     5.525 OA 
BRANCH  14  15
HETATM   15  C   UNL     1      -8.614  14.851  71.313  1.00  0.00     3.687 C  
BRANCH  15  16
HETATM   16  C   UNL     1      -8.284  13.613  70.497  1.00  0.00     3.870 C  
BRANCH  16  17
HETATM   17  O   UNL     1      -8.717  13.853  69.164  1.00  0.00     0.138 OA 
BRANCH  17  18
HETATM   18  C   UNL     1      -7.670  13.704  68.219  1.00  0.00    -0.140 C  
BRANCH  18  19
HETATM   19  C   UNL     1      -7.068  12.325  68.411  1.00  0.00    -0.094 C  
BRANCH  19  20
HETATM   20  O   UNL     1      -6.613  11.821  67.163  1.00  0.00    -0.117 OA 
BRANCH  20  21
HETATM   21  C   UNL     1      -7.152  10.531  66.880  1.00  0.00    -0.101 C  
BRANCH  21  22
HETATM   22  C   UNL     1      -6.450   9.895  65.676  1.00  0.00    -0.092 C  
BRANCH  22  23
HETATM   23  O   UNL     1      -7.310   9.537  64.564  1.00  0.00    -0.105 OA 
BRANCH  23  24
HETATM   24  C   UNL     1      -8.449   8.716  64.922  1.00  0.00    -0.161 C  
HETATM   25  C   UNL     1      -8.413   7.416  64.168  1.00  0.00     0.259 C  
HETATM   26  C   UNL     1      -7.635   6.200  64.940  1.00  0.00    -0.090 C  
HETATM   27  C   UNL     1      -7.981   5.882  66.519  1.00  0.00    -0.102 C  
HETATM   28  C   UNL     1      -8.791   4.658  67.310  1.00  0.00    -0.105 C  
HETATM   29  O   UNL     1      -6.749   6.148  67.205  1.00  0.00    -0.054 OA 
HETATM   30  C   UNL     1      -8.812   4.671  68.842  1.00  0.00    -0.128 C  
HETATM   31  H   UNL     1      -6.949   5.965  68.116  1.00  0.00     0.000 HD 
HETATM   32  C   UNL     1      -9.248   6.074  69.187  1.00  0.00    -0.131 A  
HETATM   33  C   UNL     1      -9.344   6.510  70.494  1.00  0.00    -0.167 A  
HETATM   34  C   UNL     1      -9.412   7.863  70.794  1.00  0.00    -0.163 A  
HETATM   35  C   UNL     1      -9.356   8.834  69.754  1.00  0.00    -0.163 A  
HETATM   36  O   UNL     1      -9.177  10.145  70.071  1.00  0.00    -0.376 OA 
HETATM   37  C   UNL     1      -9.384   8.402  68.431  1.00  0.00    -0.135 A  
HETATM   38  H   UNL     1      -9.140  10.793  69.377  1.00  0.00     0.000 HD 
HETATM   39  C   UNL     1      -9.380   7.037  68.110  1.00  0.00    -0.125 A  
HETATM   40  C   UNL     1      -9.113   6.823  66.645  1.00  0.00    -0.164 C  
HETATM   41  C   UNL     1      -8.524   8.291  66.405  1.00  0.00    -0.121 C  
HETATM   42  C   UNL     1     -10.239   5.845  65.628  1.00  0.00     0.577 C  
HETATM   43  O   UNL     1      -9.220   9.195  67.307  1.00  0.00    -0.131 OA 
HETATM   44  C   UNL     1      -9.782   4.119  65.410  1.00  0.00    -0.201 C  
HETATM   45  N   UNL     1      -9.023   3.492  66.518  1.00  0.00    -0.138 NA 
BRANCH  45  46
HETATM   46  C   UNL     1      -7.744   2.835  66.318  1.00  0.00    -0.077 C  
BRANCH  46  47
HETATM   47  C   UNL     1      -6.659   3.277  67.243  1.00  0.00    -0.038 C  
HETATM   48  C   UNL     1      -5.485   2.646  67.348  1.00  0.00    -0.017 C  
ENDBRANCH  46  47
ENDBRANCH  45  46
ENDBRANCH  23  24
ENDBRANCH  22  23
ENDBRANCH  21  22
ENDBRANCH  20  21
ENDBRANCH  19  20
ENDBRANCH  18  19
ENDBRANCH  17  18
ENDBRANCH  16  17
ENDBRANCH  15  16
ENDBRANCH  14  15
ENDBRANCH  13  14
ENDBRANCH  12  13
ENDBRANCH  11  12
ENDBRANCH  10  11
ENDBRANCH   9  10
ENDBRANCH   8   9
ENDBRANCH   7   8
ENDBRANCH   6   7
ENDBRANCH   5   6
ENDBRANCH   4   5
ENDBRANCH   3   4
ENDBRANCH   2   3
TORSDOF 24
ENDMDL
MODEL      248
REMARK 921   NORMALIZED FREE ENERGY PREDICTED BY IDOCK:   28.69 KCAL/MOL
REMARK 922        TOTAL FREE ENERGY PREDICTED BY IDOCK:   66.66 KCAL/MOL
REMARK 923 INTER-LIGAND FREE ENERGY PREDICTED BY IDOCK:   63.82 KCAL/MOL
REMARK 924 INTRA-LIGAND FREE ENERGY PREDICTED BY IDOCK:    2.84 KCAL/MOL
REMARK 927      BINDING AFFINITY PREDICTED BY RF-SCORE:    0.00 PKD
ROOT
HETATM    1  C   UNL     1     -10.982   9.246  73.131  1.00  0.00     3.069 C  
HETATM    2  O   UNL     1      -9.671   9.751  72.917  1.00  0.00     2.833 OA 
ENDROOT
BRANCH   2   3
HETATM    3  C   UNL     1      -9.637  11.172  73.038  1.00  0.00    18.301 C  
BRANCH   3   4
HETATM    4  C   UNL     1      -8.696  11.557  74.170  1.00  0.00    17.861 C  
BRANCH   4   5
HETATM    5  O   UNL     1      -7.364  11.631  73.663  1.00  0.00     9.342 OA 
BRANCH   5   6
HETATM    6  C   UNL     1      -6.637  10.444  73.966  1.00  0.00     2.513 C  
BRANCH   6   7
HETATM    7  C   UNL     1      -6.670   9.510  72.768  1.00  0.00     0.972 C  
BRANCH   7   8
HETATM    8  O   UNL     1      -7.584  10.038  71.810  1.00  0.00     0.927 OA 
BRANCH   8   9
HETATM    9  C   UNL     1      -7.168   9.751  70.481  1.00  0.00    -0.120 C  
BRANCH   9  10
HETATM   10  C   UNL     1      -5.722  10.186  70.315  1.00  0.00    -0.060 C  
BRANCH  10  11
HETATM   11  O   UNL     1      -5.690  11.326  69.466  1.00  0.00    -0.052 OA 
BRANCH  11  12
HETATM   12  C   UNL     1      -5.304  12.493  70.183  1.00  0.00    -0.113 C  
BRANCH  12  13
HETATM   13  C   UNL     1      -5.131  13.633  69.193  1.00  0.00    -0.077 C  
BRANCH  13  14
HETATM   14  O   UNL     1      -5.320  14.871  69.863  1.00  0.00    -0.094 OA 
BRANCH  14  15
HETATM   15  C   UNL     1      -5.727  15.876  68.942  1.00  0.00    -0.108 C  
BRANCH  15  16
HETATM   16  C   UNL     1      -5.999  15.258  67.582  1.00  0.00    -0.094 C  
BRANCH  16  17
HETATM   17  O   UNL     1      -7.410  15.188  67.419  1.00  0.00    -0.185 OA 
BRANCH  17  18
HETATM   18  C   UNL     1      -7.785  14.519  66.226  1.00  0.00     1.903 C  
BRANCH  18  19
HETATM   19  C   UNL     1      -7.946  13.047  66.553  1.00  0.00     0.650 C  
BRANCH  19  20
HETATM   20  O   UNL     1      -8.837  12.443  65.626  1.00  0.00     0.256 OA 
BRANCH  20  21
HETATM   21  C   UNL     1      -8.781  11.019  65.683  1.00  0.00    -0.157 C  
BRANCH  21  22
HETATM   22  C   UNL     1      -8.903  10.524  67.128  1.00  0.00    -0.136 C  
BRANCH  22  23
HETATM   23  O   UNL     1     -10.104   9.769  67.434  1.00  0.00    -0.183 OA 
BRANCH  23  24
HETATM   24  C   UNL     1     -11.289  10.575  67.638  1.00  0.00    -0.154 C  
HETATM   25  C   UNL     1     -11.367  11.037  69.066  1.00  0.00    -0.345 C  
HETATM   26  C   UNL     1     -10.660  12.484  69.356  1.00  0.00     0.219 C  
HETATM   27  C   UNL     1     -10.986  13.765  68.372  1.00  0.00    -0.254 C  
HETATM   28  C   UNL     1     -11.862  15.174  68.545  1.00  0.00    -0.281 C  
HETATM   29  O   UNL     1      -9.721  14.071  67.769  1.00  0.00    -0.218 OA 
HETATM   30  C   UNL     1     -11.842  16.188  67.398  1.00  0.00     0.646 C  
HETATM   31  H   UNL     1      -9.910  14.810  67.201  1.00  0.00     0.000 HD 
HETATM   32  C   UNL     1     -12.166  15.362  66.177  1.00  0.00     0.762 A  
HETATM   33  C   UNL     1     -12.196  15.910  64.909  1.00  0.00     0.602 A  
HETATM   34  C   UNL     1     -12.158  15.104  63.780  1.00  0.00     0.307 A  
HETATM   35  C   UNL     1     -12.060  13.689  63.909  1.00  0.00    -0.411 A  
HETATM   36  O   UNL     1     -11.777  12.935  62.813  1.00  0.00    -0.687 OA 
HETATM   37  C   UNL     1     -12.153  13.123  65.178  1.00  0.00    -0.421 A  
HETATM   38  H   UNL     1     -11.711  11.991  62.899  1.00  0.00     0.000 HD 
HETATM   39  C   UNL     1     -12.256  13.921  66.326  1.00  0.00    -0.498 A  
HETATM   40  C   UNL     1     -12.044  13.110  67.574  1.00  0.00    -0.300 C  
HETATM   41  C   UNL     1     -11.356  11.881  66.814  1.00  0.00    -0.330 C  
HETATM   42  C   UNL     1     -13.264  13.114  68.905  1.00  0.00     2.853 C  
HETATM   43  O   UNL     1     -11.961  11.788  65.496  1.00  0.00    -0.324 OA 
HETATM   44  C   UNL     1     -12.939  14.266  70.248  1.00  0.00    -0.038 C  
HETATM   45  N   UNL     1     -12.199  15.500  69.894  1.00  0.00    -0.357 NA 
BRANCH  45  46
HETATM   46  C   UNL     1     -10.976  15.901  70.568  1.00  0.00    -0.330 C  
BRANCH  46  47
HETATM   47  C   UNL     1     -10.256  14.798  71.270  1.00  0.00     1.613 C  
HETATM   48  C   UNL     1     -10.068  14.774  72.594  1.00  0.00     4.515 C  
ENDBRANCH  46  47
ENDBRANCH  45  46
ENDBRANCH  23  24
ENDBRANCH  22  23
ENDBRANCH  21  22
ENDBRANCH  20  21
ENDBRANCH  19  20
ENDBRANCH  18  19
ENDBRANCH  17  18
ENDBRANCH  16  17
ENDBRANCH  15  16
ENDBRANCH  14  15
ENDBRANCH  13  14
ENDBRANCH  12  13
ENDBRANCH  11  12
ENDBRANCH  10  11
ENDBRANCH   9  10
ENDBRANCH   8   9
ENDBRANCH   7   8
ENDBRANCH   6   7
ENDBRANCH   5   6
ENDBRANCH   4   5
ENDBRANCH   3   4
ENDBRANCH   2   3
TORSDOF 24
ENDMDL
MODEL      249
REMARK 921   NORMALIZED FREE ENERGY PREDICTED BY IDOCK:   35.56 KCAL/MOL
REMARK 922        TOTAL FREE ENERGY PREDICTED BY IDOCK:   83.17 KCAL/MOL
REMARK 923 INTER-LIGAND FREE ENERGY PREDICTED BY IDOCK:   25.53 KCAL/MOL
REMARK 924 INTRA-LIGAND FREE ENERGY PREDICTED BY IDOCK:   57.64 KCAL/MOL
REMARK 927      BINDING AFFINITY PREDICTED BY RF-SCORE:    0.00 PKD
ROOT
HETATM    1  C   UNL     1     -11.582  19.859  68.525  1.00  0.00     2.557 C  
HETATM    2  O   UNL     1     -11.951  18.819  67.629  1.00  0.00     1.529 OA 
ENDROOT
BRANCH   2   3
HETATM    3  C   UNL     1     -12.267  17.618  68.331  1.00  0.00     3.437 C  
BRANCH   3   4
HETATM    4  C   UNL     1     -11.157  17.310  69.325  1.00  0.00     0.419 C  
BRANCH   4   5
HETATM    5  O   UNL     1     -11.349  15.994  69.843  1.00  0.00    -0.312 OA 
BRANCH   5   6
HETATM    6  C   UNL     1     -10.955  15.009  68.892  1.00  0.00    -0.252 C  
BRANCH   6   7
HETATM    7  C   UNL     1      -9.745  14.254  69.417  1.00  0.00     0.273 C  
BRANCH   7   8
HETATM    8  O   UNL     1      -8.849  14.029  68.331  1.00  0.00    -0.179 OA 
BRANCH   8   9
HETATM    9  C   UNL     1      -8.634  12.640  68.114  1.00  0.00    -0.188 C  
BRANCH   9  10
HETATM   10  C   UNL     1      -9.906  11.887  68.461  1.00  0.00    -0.183 C  
BRANCH  10  11
HETATM   11  O   UNL     1     -10.317  11.147  67.318  1.00  0.00    -0.193 OA 
BRANCH  11  12
HETATM   12  C   UNL     1      -9.942   9.779  67.426  1.00  0.00    -0.191 C  
BRANCH  12  13
HETATM   13  C   UNL     1     -10.829   8.960  66.504  1.00  0.00     0.423 C  
BRANCH  13  14
HETATM   14  O   UNL     1     -10.953   9.626  65.256  1.00  0.00     1.274 OA 
BRANCH  14  15
HETATM   15  C   UNL     1     -10.078  10.747  65.203  1.00  0.00    -0.299 C  
BRANCH  15  16
HETATM   16  C   UNL     1      -9.117  10.715  66.378  1.00  0.00    -0.164 C  
BRANCH  16  17
HETATM   17  O   UNL     1      -9.196  11.976  67.029  1.00  0.00    -0.183 OA 
BRANCH  17  18
HETATM   18  C   UNL     1      -8.065  12.237  67.845  1.00  0.00    -0.155 C  
BRANCH  18  19
HETATM   19  C   UNL     1      -7.799  10.995  68.675  1.00  0.00    -0.136 C  
BRANCH  19  20
HETATM   20  O   UNL     1      -8.881  10.084  68.539  1.00  0.00    -0.115 OA 
BRANCH  20  21
HETATM   21  C   UNL     1      -8.430   8.739  68.391  1.00  0.00    -0.130 C  
BRANCH  21  22
HETATM   22  C   UNL     1      -6.976   8.596  68.855  1.00  0.00    -0.062 C  
BRANCH  22  23
HETATM   23  O   UNL     1      -6.152   7.694  68.073  1.00  0.00    -0.038 OA 
BRANCH  23  24
HETATM   24  C   UNL     1      -6.309   6.293  68.405  1.00  0.00    -0.047 C  
HETATM   25  C   UNL     1      -6.899   6.145  69.779  1.00  0.00    -0.068 C  
HETATM   26  C   UNL     1      -8.533   6.059  69.816  1.00  0.00    -0.126 C  
HETATM   27  C   UNL     1      -9.320   5.034  68.794  1.00  0.00    -0.130 C  
HETATM   28  C   UNL     1     -10.139   3.595  68.990  1.00  0.00     0.608 C  
HETATM   29  O   UNL     1     -10.096   5.905  67.959  1.00  0.00    -0.138 OA 
HETATM   30  C   UNL     1     -10.837   2.983  67.772  1.00  0.00     4.987 C  
HETATM   31  H   UNL     1     -10.550   5.313  67.369  1.00  0.00     0.000 HD 
HETATM   32  C   UNL     1      -9.773   2.990  66.702  1.00  0.00     0.206 A  
HETATM   33  C   UNL     1     -10.026   2.557  65.415  1.00  0.00     0.560 A  
HETATM   34  C   UNL     1      -9.169   2.873  64.371  1.00  0.00    -0.128 A  
HETATM   35  C   UNL     1      -8.019   3.680  64.605  1.00  0.00    -0.086 A  
HETATM   36  O   UNL     1      -7.328   4.185  63.547  1.00  0.00    -0.049 OA 
HETATM   37  C   UNL     1      -7.691   4.017  65.916  1.00  0.00    -0.090 A  
HETATM   38  H   UNL     1      -6.561   4.723  63.703  1.00  0.00     0.000 HD 
HETATM   39  C   UNL     1      -8.513   3.649  66.990  1.00  0.00    -0.105 A  
HETATM   40  C   UNL     1      -8.117   4.369  68.250  1.00  0.00    -0.082 C  
HETATM   41  C   UNL     1      -7.268   5.495  67.494  1.00  0.00    -0.075 C  
HETATM   42  C   UNL     1      -7.748   3.459  69.764  1.00  0.00    -0.047 C  
HETATM   43  O   UNL     1      -6.685   4.883  66.311  1.00  0.00    -0.048 OA 
HETATM   44  C   UNL     1      -9.113   3.303  70.925  1.00  0.00    -0.112 C  
HETATM   45  N   UNL     1     -10.476   3.284  70.343  1.00  0.00     1.255 NA 
BRANCH  45  46
HETATM   46  C   UNL     1     -11.518   4.205  70.759  1.00  0.00     4.413 C  
BRANCH  46  47
HETATM   47  C   UNL     1     -12.458   3.667  71.786  1.00  0.00     6.462 C  
HETATM   48  C   UNL     1     -12.727   4.299  72.933  1.00  0.00     1.237 C  
ENDBRANCH  46  47
ENDBRANCH  45  46
ENDBRANCH  23  24
ENDBRANCH  22  23
ENDBRANCH  21  22
ENDBRANCH  20  21
ENDBRANCH  19  20
ENDBRANCH  18  19
ENDBRANCH  17  18
ENDBRANCH  16  17
ENDBRANCH  15  16
ENDBRANCH  14  15
ENDBRANCH  13  14
ENDBRANCH  12  13
ENDBRANCH  11  12
ENDBRANCH  10  11
ENDBRANCH   9  10
ENDBRANCH   8   9
ENDBRANCH   7   8
ENDBRANCH   6   7
ENDBRANCH   5   6
ENDBRANCH   4   5
ENDBRANCH   3   4
ENDBRANCH   2   3
TORSDOF 24
ENDMDL
MODEL      250
REMARK 921   NORMALIZED FREE ENERGY PREDICTED BY IDOCK:   36.02 KCAL/MOL
REMARK 922        TOTAL FREE ENERGY PREDICTED BY IDOCK:   84.26 KCAL/MOL
REMARK 923 INTER-LIGAND FREE ENERGY PREDICTED BY IDOCK:   22.38 KCAL/MOL
REMARK 924 INTRA-LIGAND FREE ENERGY PREDICTED BY IDOCK:   61.88 KCAL/MOL
REMARK 927      BINDING AFFINITY PREDICTED BY RF-SCORE:    0.00 PKD
ROOT
HETATM    1  C   UNL     1      -7.553  15.453  65.793  1.00  0.00     3.463 C  
HETATM    2  O   UNL     1      -8.673  14.628  66.086  1.00  0.00     0.004 OA 
ENDROOT
BRANCH   2   3
HETATM    3  C   UNL     1      -9.398  14.300  64.902  1.00  0.00     1.307 C  
BRANCH   3   4
HETATM    4  C   UNL     1     -10.326  13.128  65.190  1.00  0.00    -0.311 C  
BRANCH   4   5
HETATM    5  O   UNL     1      -9.768  11.944  64.623  1.00  0.00    -0.212 OA 
BRANCH   5   6
HETATM    6  C   UNL     1      -8.406  11.784  65.012  1.00  0.00     1.047 C  
BRANCH   6   7
HETATM    7  C   UNL     1      -7.681  10.936  63.981  1.00  0.00     0.460 C  
BRANCH   7   8
HETATM    8  O   UNL     1      -7.245   9.734  64.613  1.00  0.00    -0.118 OA 
BRANCH   8   9
HETATM    9  C   UNL     1      -6.781   9.983  65.935  1.00  0.00    -0.103 C  
BRANCH   9  10
HETATM   10  C   UNL     1      -7.653   9.216  66.913  1.00  0.00    -0.091 C  
BRANCH  10  11
HETATM   11  O   UNL     1      -8.323  10.151  67.749  1.00  0.00    -0.113 OA 
BRANCH  11  12
HETATM   12  C   UNL     1      -9.584  10.520  67.205  1.00  0.00    -0.168 C  
BRANCH  12  13
HETATM   13  C   UNL     1      -9.429  11.844  66.477  1.00  0.00    -0.217 C  
BRANCH  13  14
HETATM   14  O   UNL     1      -9.018  12.843  67.399  1.00  0.00    -0.181 OA 
BRANCH  14  15
HETATM   15  C   UNL     1      -8.802  12.273  68.684  1.00  0.00     0.025 C  
BRANCH  15  16
HETATM   16  C   UNL     1      -8.204  13.308  69.621  1.00  0.00     1.488 C  
BRANCH  16  17
HETATM   17  O   UNL     1      -7.015  13.798  69.014  1.00  0.00    -0.109 OA 
BRANCH  17  18
HETATM   18  C   UNL     1      -6.142  12.754  68.615  1.00  0.00    -0.068 C  
BRANCH  18  19
HETATM   19  C   UNL     1      -6.129  11.714  69.719  1.00  0.00    -0.131 C  
BRANCH  19  20
HETATM   20  O   UNL     1      -6.708  12.257  70.898  1.00  0.00     0.785 OA 
BRANCH  20  21
HETATM   21  C   UNL     1      -7.253  13.556  70.673  1.00  0.00     2.054 C  
BRANCH  21  22
HETATM   22  C   UNL     1      -6.141  14.581  70.422  1.00  0.00    -0.176 C  
BRANCH  22  23
HETATM   23  O   UNL     1      -6.521  15.972  70.580  1.00  0.00     0.310 OA 
BRANCH  23  24
HETATM   24  C   UNL     1      -6.965  16.619  69.363  1.00  0.00    -0.194 C  
HETATM   25  C   UNL     1      -7.383  15.592  68.349  1.00  0.00    -0.115 C  
HETATM   26  C   UNL     1      -8.969  15.191  68.395  1.00  0.00    -0.183 C  
HETATM   27  C   UNL     1     -10.111  16.378  68.440  1.00  0.00    -0.245 C  
HETATM   28  C   UNL     1     -11.220  16.971  67.345  1.00  0.00     0.194 C  
HETATM   29  O   UNL     1     -10.759  16.188  69.706  1.00  0.00    -0.292 OA 
HETATM   30  C   UNL     1     -12.202  18.047  67.814  1.00  0.00     3.567 C  
HETATM   31  H   UNL     1     -11.417  16.873  69.732  1.00  0.00     0.000 HD 
HETATM   32  C   UNL     1     -11.322  19.078  68.478  1.00  0.00     1.542 A  
HETATM   33  C   UNL     1     -11.843  20.204  69.086  1.00  0.00     4.480 A  
HETATM   34  C   UNL     1     -11.083  20.957  69.969  1.00  0.00     2.326 A  
HETATM   35  C   UNL     1      -9.752  20.566  70.287  1.00  0.00     1.269 A  
HETATM   36  O   UNL     1      -9.109  21.161  71.327  1.00  0.00     1.244 OA 
HETATM   37  C   UNL     1      -9.179  19.507  69.587  1.00  0.00     0.362 A  
HETATM   38  H   UNL     1      -8.220  20.900  71.540  1.00  0.00     0.000 HD 
HETATM   39  C   UNL     1      -9.913  18.774  68.645  1.00  0.00    -0.444 A  
HETATM   40  C   UNL     1      -9.189  17.517  68.248  1.00  0.00    -0.277 C  
HETATM   41  C   UNL     1      -8.203  17.533  69.507  1.00  0.00     0.639 C  
HETATM   42  C   UNL     1      -8.850  17.147  66.514  1.00  0.00    -0.293 C  
HETATM   43  O   UNL     1      -7.949  18.923  69.847  1.00  0.00     0.565 OA 
HETATM   44  C   UNL     1     -10.043  16.071  65.705  1.00  0.00    -0.354 C  
HETATM   45  N   UNL     1     -11.435  16.133  66.208  1.00  0.00     0.396 NA 
BRANCH  45  46
HETATM   46  C   UNL     1     -12.159  14.958  66.660  1.00  0.00     0.023 C  
BRANCH  46  47
HETATM   47  C   UNL     1     -11.298  13.843  67.156  1.00  0.00    -0.346 C  
HETATM   48  C   UNL     1     -11.779  12.640  67.486  1.00  0.00    -0.429 C  
ENDBRANCH  46  47
ENDBRANCH  45  46
ENDBRANCH  23  24
ENDBRANCH  22  23
ENDBRANCH  21  22
ENDBRANCH  20  21
ENDBRANCH  19  20
ENDBRANCH  18  19
ENDBRANCH  17  18
ENDBRANCH  16  17
ENDBRANCH  15  16
ENDBRANCH  14  15
ENDBRANCH  13  14
ENDBRANCH  12  13
ENDBRANCH  11  12
ENDBRANCH  10  11
ENDBRANCH   9  10
ENDBRANCH   8   9
ENDBRANCH   7   8
ENDBRANCH   6   7
ENDBRANCH   5   6
ENDBRANCH   4   5
ENDBRANCH   3   4
ENDBRANCH   2   3
TORSDOF 24
ENDMDL
MODEL      251
REMARK 921   NORMALIZED FREE ENERGY PREDICTED BY IDOCK:   40.60 KCAL/MOL
REMARK 922        TOTAL FREE ENERGY PREDICTED BY IDOCK:   95.27 KCAL/MOL
REMARK 923 INTER-LIGAND FREE ENERGY PREDICTED BY IDOCK:   93.05 KCAL/MOL
REMARK 924 INTRA-LIGAND FREE ENERGY PREDICTED BY IDOCK:    2.22 KCAL/MOL
REMARK 927      BINDING AFFINITY PREDICTED BY RF-SCORE:    0.00 PKD
ROOT
HETATM    1  C   UNL     1     -12.400   5.083  72.570  1.00  0.00     0.730 C  
HETATM    2  O   UNL     1     -11.739   4.404  71.512  1.00  0.00     1.857 OA 
ENDROOT
BRANCH   2   3
HETATM    3  C   UNL     1     -11.679   2.999  71.755  1.00  0.00     3.839 C  
BRANCH   3   4
HETATM    4  C   UNL     1     -10.372   2.666  72.460  1.00  0.00    -0.129 C  
BRANCH   4   5
HETATM    5  O   UNL     1      -9.773   3.875  72.923  1.00  0.00    -0.122 OA 
BRANCH   5   6
HETATM    6  C   UNL     1      -8.423   3.978  72.479  1.00  0.00    -0.099 C  
BRANCH   6   7
HETATM    7  C   UNL     1      -8.343   3.602  71.009  1.00  0.00    -0.067 C  
BRANCH   7   8
HETATM    8  O   UNL     1      -9.552   4.012  70.374  1.00  0.00    -0.167 OA 
BRANCH   8   9
HETATM    9  C   UNL     1      -9.682   3.431  69.082  1.00  0.00     0.071 C  
BRANCH   9  10
HETATM   10  C   UNL     1     -10.517   4.353  68.210  1.00  0.00     0.586 C  
BRANCH  10  11
HETATM   11  O   UNL     1     -11.554   4.910  69.007  1.00  0.00     2.876 OA 
BRANCH  11  12
HETATM   12  C   UNL     1     -11.866   6.236  68.597  1.00  0.00     1.212 C  
BRANCH  12  13
HETATM   13  C   UNL     1     -10.822   6.688  67.590  1.00  0.00    -0.315 C  
BRANCH  13  14
HETATM   14  O   UNL     1     -10.948   8.087  67.378  1.00  0.00    -0.151 OA 
BRANCH  14  15
HETATM   15  C   UNL     1     -10.452   8.806  68.501  1.00  0.00    -0.175 C  
BRANCH  15  16
HETATM   16  C   UNL     1     -10.499  10.299  68.229  1.00  0.00    -0.199 C  
BRANCH  16  17
HETATM   17  O   UNL     1      -9.173  10.721  67.936  1.00  0.00    -0.146 OA 
BRANCH  17  18
HETATM   18  C   UNL     1      -8.979  10.978  66.555  1.00  0.00    -0.173 C  
BRANCH  18  19
HETATM   19  C   UNL     1      -7.541  11.421  66.365  1.00  0.00    -0.024 C  
BRANCH  19  20
HETATM   20  O   UNL     1      -7.433  12.217  65.193  1.00  0.00     2.301 OA 
BRANCH  20  21
HETATM   21  C   UNL     1      -8.713  12.564  64.666  1.00  0.00     1.963 C  
BRANCH  21  22
HETATM   22  C   UNL     1      -8.955  14.074  64.769  1.00  0.00     3.085 C  
BRANCH  22  23
HETATM   23  O   UNL     1     -10.219  14.469  65.361  1.00  0.00    -0.343 OA 
BRANCH  23  24
HETATM   24  C   UNL     1     -10.754  15.721  64.865  1.00  0.00    -0.361 C  
HETATM   25  C   UNL     1     -12.086  16.007  65.499  1.00  0.00     1.232 C  
HETATM   26  C   UNL     1     -12.013  16.893  66.873  1.00  0.00     2.134 C  
HETATM   27  C   UNL     1     -11.107  18.269  66.911  1.00  0.00     0.288 C  
HETATM   28  C   UNL     1     -11.464  19.897  66.950  1.00  0.00     0.834 C  
HETATM   29  O   UNL     1     -10.090  17.989  67.883  1.00  0.00    -0.319 OA 
HETATM   30  C   UNL     1     -10.308  20.892  67.082  1.00  0.00     0.403 C  
HETATM   31  H   UNL     1      -9.568  18.783  67.904  1.00  0.00     0.000 HD 
HETATM   32  C   UNL     1      -9.333  20.461  66.014  1.00  0.00    -0.134 A  
HETATM   33  C   UNL     1      -8.114  21.088  65.838  1.00  0.00     1.028 A  
HETATM   34  C   UNL     1      -7.101  20.490  65.102  1.00  0.00    -0.082 A  
HETATM   35  C   UNL     1      -7.292  19.199  64.533  1.00  0.00     2.170 A  
HETATM   36  O   UNL     1      -6.223  18.524  64.030  1.00  0.00     0.042 OA 
HETATM   37  C   UNL     1      -8.555  18.616  64.601  1.00  0.00     5.219 A  
HETATM   38  H   UNL     1      -6.350  17.662  63.651  1.00  0.00     0.000 HD 
HETATM   39  C   UNL     1      -9.608  19.236  65.286  1.00  0.00     1.367 A  
HETATM   40  C   UNL     1     -10.766  18.295  65.473  1.00  0.00     0.058 C  
HETATM   41  C   UNL     1      -9.909  16.976  65.177  1.00  0.00     0.979 C  
HETATM   42  C   UNL     1     -12.427  18.744  64.930  1.00  0.00     9.654 C  
HETATM   43  O   UNL     1      -8.885  17.328  64.208  1.00  0.00     6.076 OA 
HETATM   44  C   UNL     1     -13.493  19.445  66.198  1.00  0.00    12.673 C  
HETATM   45  N   UNL     1     -12.820  20.199  67.283  1.00  0.00     4.093 NA 
BRANCH  45  46
HETATM   46  C   UNL     1     -13.007  19.885  68.688  1.00  0.00     8.679 C  
BRANCH  46  47
HETATM   47  C   UNL     1     -12.312  20.807  69.635  1.00  0.00     6.390 C  
HETATM   48  C   UNL     1     -12.649  20.921  70.924  1.00  0.00    14.219 C  
ENDBRANCH  46  47
ENDBRANCH  45  46
ENDBRANCH  23  24
ENDBRANCH  22  23
ENDBRANCH  21  22
ENDBRANCH  20  21
ENDBRANCH  19  20
ENDBRANCH  18  19
ENDBRANCH  17  18
ENDBRANCH  16  17
ENDBRANCH  15  16
ENDBRANCH  14  15
ENDBRANCH  13  14
ENDBRANCH  12  13
ENDBRANCH  11  12
ENDBRANCH  10  11
ENDBRANCH   9  10
ENDBRANCH   8   9
ENDBRANCH   7   8
ENDBRANCH   6   7
ENDBRANCH   5   6
ENDBRANCH   4   5
ENDBRANCH   3   4
ENDBRANCH   2   3
TORSDOF 24
ENDMDL
MODEL      252
REMARK 921   NORMALIZED FREE ENERGY PREDICTED BY IDOCK:   41.23 KCAL/MOL
REMARK 922        TOTAL FREE ENERGY PREDICTED BY IDOCK:   96.79 KCAL/MOL
REMARK 923 INTER-LIGAND FREE ENERGY PREDICTED BY IDOCK:   35.38 KCAL/MOL
REMARK 924 INTRA-LIGAND FREE ENERGY PREDICTED BY IDOCK:   61.41 KCAL/MOL
REMARK 927      BINDING AFFINITY PREDICTED BY RF-SCORE:    0.00 PKD
ROOT
HETATM    1  C   UNL     1     -11.325  13.106  64.541  1.00  0.00    -0.349 C  
HETATM    2  O   UNL     1     -11.103  13.050  63.138  1.00  0.00    -0.041 OA 
ENDROOT
BRANCH   2   3
HETATM    3  C   UNL     1     -12.308  13.290  62.413  1.00  0.00     2.736 C  
BRANCH   3   4
HETATM    4  C   UNL     1     -12.983  14.539  62.960  1.00  0.00     2.747 C  
BRANCH   4   5
HETATM    5  O   UNL     1     -12.517  14.776  64.288  1.00  0.00    -0.661 OA 
BRANCH   5   6
HETATM    6  C   UNL     1     -11.242  14.174  64.496  1.00  0.00    -0.337 C  
BRANCH   6   7
HETATM    7  C   UNL     1     -11.426  12.792  65.099  1.00  0.00    -0.321 C  
BRANCH   7   8
HETATM    8  O   UNL     1     -11.857  11.905  64.069  1.00  0.00    -0.383 OA 
BRANCH   8   9
HETATM    9  C   UNL     1     -13.001  11.161  64.470  1.00  0.00     2.933 C  
BRANCH   9  10
HETATM   10  C   UNL     1     -12.671  10.401  65.742  1.00  0.00     8.588 C  
BRANCH  10  11
HETATM   11  O   UNL     1     -11.743  11.168  66.498  1.00  0.00    -0.234 OA 
BRANCH  11  12
HETATM   12  C   UNL     1     -11.571  10.631  67.804  1.00  0.00     0.025 C  
BRANCH  12  13
HETATM   13  C   UNL     1     -12.215  11.575  68.804  1.00  0.00    -0.006 C  
BRANCH  13  14
HETATM   14  O   UNL     1     -11.466  12.780  68.865  1.00  0.00    -0.264 OA 
BRANCH  14  15
HETATM   15  C   UNL     1     -10.713  12.957  67.671  1.00  0.00    -0.223 C  
BRANCH  15  16
HETATM   16  C   UNL     1      -9.355  12.290  67.805  1.00  0.00    -0.194 C  
BRANCH  16  17
HETATM   17  O   UNL     1      -8.369  13.260  67.478  1.00  0.00    -0.163 OA 
BRANCH  17  18
HETATM   18  C   UNL     1      -7.049  12.765  67.636  1.00  0.00    -0.145 C  
BRANCH  18  19
HETATM   19  C   UNL     1      -6.090  13.891  67.298  1.00  0.00     0.459 C  
BRANCH  19  20
HETATM   20  O   UNL     1      -5.726  13.817  65.926  1.00  0.00     5.027 OA 
BRANCH  20  21
HETATM   21  C   UNL     1      -6.488  12.834  65.226  1.00  0.00     7.389 C  
BRANCH  21  22
HETATM   22  C   UNL     1      -7.000  11.753  66.184  1.00  0.00     0.539 C  
BRANCH  22  23
HETATM   23  O   UNL     1      -6.092  11.380  67.253  1.00  0.00    -0.064 OA 
BRANCH  23  24
HETATM   24  C   UNL     1      -6.160   9.988  67.645  1.00  0.00    -0.057 C  
HETATM   25  C   UNL     1      -5.577   9.803  69.017  1.00  0.00    -0.035 C  
HETATM   26  C   UNL     1      -6.657   9.921  70.241  1.00  0.00    -0.116 C  
HETATM   27  C   UNL     1      -8.078   9.092  70.159  1.00  0.00    -0.126 C  
HETATM   28  C   UNL     1      -8.695   7.757  70.946  1.00  0.00    -0.137 C  
HETATM   29  O   UNL     1      -9.078  10.119  70.127  1.00  0.00    -0.377 OA 
HETATM   30  C   UNL     1     -10.139   7.341  70.650  1.00  0.00    -0.198 C  
HETATM   31  H   UNL     1      -9.898   9.641  70.080  1.00  0.00     0.000 HD 
HETATM   32  C   UNL     1     -10.204   7.301  69.143  1.00  0.00    -0.197 A  
HETATM   33  C   UNL     1     -11.375   7.011  68.468  1.00  0.00     0.136 A  
HETATM   34  C   UNL     1     -11.514   7.302  67.119  1.00  0.00     0.712 A  
HETATM   35  C   UNL     1     -10.455   7.935  66.406  1.00  0.00     0.282 A  
HETATM   36  O   UNL     1     -10.689   8.434  65.163  1.00  0.00     2.732 OA 
HETATM   37  C   UNL     1      -9.232   8.118  67.046  1.00  0.00    -0.153 A  
HETATM   38  H   UNL     1      -9.983   8.856  64.687  1.00  0.00     0.000 HD 
HETATM   39  C   UNL     1      -9.054   7.770  68.392  1.00  0.00    -0.131 A  
HETATM   40  C   UNL     1      -7.767   8.328  68.933  1.00  0.00    -0.102 C  
HETATM   41  C   UNL     1      -7.583   9.396  67.756  1.00  0.00    -0.088 C  
HETATM   42  C   UNL     1      -6.550   7.256  69.726  1.00  0.00    -0.040 C  
HETATM   43  O   UNL     1      -8.143   8.815  66.547  1.00  0.00    -0.101 OA 
HETATM   44  C   UNL     1      -6.641   7.178  71.521  1.00  0.00    -0.048 C  
HETATM   45  N   UNL     1      -7.980   7.380  72.124  1.00  0.00    -0.092 NA 
BRANCH  45  46
HETATM   46  C   UNL     1      -8.240   8.388  73.136  1.00  0.00    -0.113 C  
BRANCH  46  47
HETATM   47  C   UNL     1      -8.304   9.789  72.625  1.00  0.00     3.811 C  
HETATM   48  C   UNL     1      -8.829  10.111  71.439  1.00  0.00     2.761 C  
ENDBRANCH  46  47
ENDBRANCH  45  46
ENDBRANCH  23  24
ENDBRANCH  22  23
ENDBRANCH  21  22
ENDBRANCH  20  21
ENDBRANCH  19  20
ENDBRANCH  18  19
ENDBRANCH  17  18
ENDBRANCH  16  17
ENDBRANCH  15  16
ENDBRANCH  14  15
ENDBRANCH  13  14
ENDBRANCH  12  13
ENDBRANCH  11  12
ENDBRANCH  10  11
ENDBRANCH   9  10
ENDBRANCH   8   9
ENDBRANCH   7   8
ENDBRANCH   6   7
ENDBRANCH   5   6
ENDBRANCH   4   5
ENDBRANCH   3   4
ENDBRANCH   2   3
TORSDOF 24
ENDMDL
MODEL      253
REMARK 921   NORMALIZED FREE ENERGY PREDICTED BY IDOCK:   49.94 KCAL/MOL
REMARK 922        TOTAL FREE ENERGY PREDICTED BY IDOCK:  117.72 KCAL/MOL
REMARK 923 INTER-LIGAND FREE ENERGY PREDICTED BY IDOCK:   50.61 KCAL/MOL
REMARK 924 INTRA-LIGAND FREE ENERGY PREDICTED BY IDOCK:   67.11 KCAL/MOL
REMARK 927      BINDING AFFINITY PREDICTED BY RF-SCORE:    0.00 PKD
ROOT
HETATM    1  C   UNL     1      -7.660   9.289  74.324  1.00  0.00     0.975 C  
HETATM    2  O   UNL     1      -8.851   9.213  73.553  1.00  0.00     0.433 OA 
ENDROOT
BRANCH   2   3
HETATM    3  C   UNL     1      -9.262  10.504  73.105  1.00  0.00    12.604 C  
BRANCH   3   4
HETATM    4  C   UNL     1      -8.627  10.791  71.752  1.00  0.00     8.248 C  
BRANCH   4   5
HETATM    5  O   UNL     1      -8.079   9.582  71.229  1.00  0.00    -0.284 OA 
BRANCH   5   6
HETATM    6  C   UNL     1      -8.462   8.463  72.024  1.00  0.00    -0.183 C  
BRANCH   6   7
HETATM    7  C   UNL     1      -8.120   7.178  71.289  1.00  0.00    -0.107 C  
BRANCH   7   8
HETATM    8  O   UNL     1      -7.461   7.518  70.071  1.00  0.00    -0.079 OA 
BRANCH   8   9
HETATM    9  C   UNL     1      -6.791   8.769  70.176  1.00  0.00    -0.040 C  
BRANCH   9  10
HETATM   10  C   UNL     1      -7.676   9.851  69.582  1.00  0.00    -0.149 C  
BRANCH  10  11
HETATM   11  O   UNL     1      -7.005  10.419  68.465  1.00  0.00    -0.060 OA 
BRANCH  11  12
HETATM   12  C   UNL     1      -7.308  11.803  68.329  1.00  0.00    -0.095 C  
BRANCH  12  13
HETATM   13  C   UNL     1      -8.666  12.064  68.957  1.00  0.00     0.358 C  
BRANCH  13  14
HETATM   14  O   UNL     1      -8.577  11.882  70.363  1.00  0.00     3.251 OA 
BRANCH  14  15
HETATM   15  C   UNL     1      -9.775  11.301  70.865  1.00  0.00     5.090 C  
BRANCH  15  16
HETATM   16  C   UNL     1     -10.225  10.168  69.960  1.00  0.00    -0.220 C  
BRANCH  16  17
HETATM   17  O   UNL     1     -11.378  10.614  69.257  1.00  0.00    -0.244 OA 
BRANCH  17  18
HETATM   18  C   UNL     1     -11.124  11.775  68.483  1.00  0.00    -0.239 C  
BRANCH  18  19
HETATM   19  C   UNL     1     -12.444  12.231  67.889  1.00  0.00     1.043 C  
BRANCH  19  20
HETATM   20  O   UNL     1     -13.094  11.134  67.262  1.00  0.00     4.446 OA 
BRANCH  20  21
HETATM   21  C   UNL     1     -12.202  10.392  66.431  1.00  0.00     4.575 C  
BRANCH  21  22
HETATM   22  C   UNL     1     -11.352   9.428  67.265  1.00  0.00     0.898 C  
BRANCH  22  23
HETATM   23  O   UNL     1      -9.928   9.446  66.988  1.00  0.00    -0.191 OA 
BRANCH  23  24
HETATM   24  C   UNL     1      -9.516  10.428  66.006  1.00  0.00    -0.185 C  
HETATM   25  C   UNL     1     -10.461  10.426  64.837  1.00  0.00    -0.116 C  
HETATM   26  C   UNL     1     -11.711  11.473  64.966  1.00  0.00     0.050 C  
HETATM   27  C   UNL     1     -11.426  13.035  65.406  1.00  0.00    -0.312 C  
HETATM   28  C   UNL     1     -11.460  14.496  64.604  1.00  0.00    -0.387 C  
HETATM   29  O   UNL     1     -12.111  13.173  66.659  1.00  0.00    -0.391 OA 
HETATM   30  C   UNL     1     -11.223  15.776  65.411  1.00  0.00    -0.143 C  
HETATM   31  H   UNL     1     -11.946  14.075  66.913  1.00  0.00     0.000 HD 
HETATM   32  C   UNL     1      -9.963  15.486  66.190  1.00  0.00    -0.332 A  
HETATM   33  C   UNL     1      -9.436  16.389  67.093  1.00  0.00    -0.238 A  
HETATM   34  C   UNL     1      -8.496  15.995  68.034  1.00  0.00    -0.164 A  
HETATM   35  C   UNL     1      -8.076  14.637  68.106  1.00  0.00    -0.137 A  
HETATM   36  O   UNL     1      -7.351  14.215  69.177  1.00  0.00    -0.173 OA 
HETATM   37  C   UNL     1      -8.509  13.748  67.125  1.00  0.00    -0.175 A  
HETATM   38  H   UNL     1      -7.070  13.309  69.225  1.00  0.00     0.000 HD 
HETATM   39  C   UNL     1      -9.409  14.146  66.127  1.00  0.00    -0.166 A  
HETATM   40  C   UNL     1      -9.950  12.960  65.377  1.00  0.00    -0.208 C  
HETATM   41  C   UNL     1      -9.518  11.895  66.490  1.00  0.00    -0.217 C  
HETATM   42  C   UNL     1      -9.838  12.867  63.578  1.00  0.00     0.965 C  
HETATM   43  O   UNL     1      -8.294  12.379  67.107  1.00  0.00    -0.175 OA 
HETATM   44  C   UNL     1     -11.298  13.417  62.682  1.00  0.00     2.921 C  
HETATM   45  N   UNL     1     -12.120  14.462  63.337  1.00  0.00    -0.217 NA 
BRANCH  45  46
HETATM   46  C   UNL     1     -13.541  14.300  63.587  1.00  0.00     4.096 C  
BRANCH  46  47
HETATM   47  C   UNL     1     -13.879  13.391  64.721  1.00  0.00     2.598 C  
HETATM   48  C   UNL     1     -13.967  12.063  64.593  1.00  0.00     3.684 C  
ENDBRANCH  46  47
ENDBRANCH  45  46
ENDBRANCH  23  24
ENDBRANCH  22  23
ENDBRANCH  21  22
ENDBRANCH  20  21
ENDBRANCH  19  20
ENDBRANCH  18  19
ENDBRANCH  17  18
ENDBRANCH  16  17
ENDBRANCH  15  16
ENDBRANCH  14  15
ENDBRANCH  13  14
ENDBRANCH  12  13
ENDBRANCH  11  12
ENDBRANCH  10  11
ENDBRANCH   9  10
ENDBRANCH   8   9
ENDBRANCH   7   8
ENDBRANCH   6   7
ENDBRANCH   5   6
ENDBRANCH   4   5
ENDBRANCH   3   4
ENDBRANCH   2   3
TORSDOF 24
ENDMDL
MODEL      254
REMARK 921   NORMALIZED FREE ENERGY PREDICTED BY IDOCK:   50.19 KCAL/MOL
REMARK 922        TOTAL FREE ENERGY PREDICTED BY IDOCK:  118.31 KCAL/MOL
REMARK 923 INTER-LIGAND FREE ENERGY PREDICTED BY IDOCK:   22.83 KCAL/MOL
REMARK 924 INTRA-LIGAND FREE ENERGY PREDICTED BY IDOCK:   95.49 KCAL/MOL
REMARK 927      BINDING AFFINITY PREDICTED BY RF-SCORE:    0.00 PKD
ROOT
HETATM    1  C   UNL     1      -7.086   6.745  73.373  1.00  0.00    -0.075 C  
HETATM    2  O   UNL     1      -7.628   6.575  72.070  1.00  0.00    -0.092 OA 
ENDROOT
BRANCH   2   3
HETATM    3  C   UNL     1      -7.058   5.444  71.415  1.00  0.00    -0.070 C  
BRANCH   3   4
HETATM    4  C   UNL     1      -7.992   4.980  70.308  1.00  0.00    -0.078 C  
BRANCH   4   5
HETATM    5  O   UNL     1      -8.213   6.061  69.403  1.00  0.00    -0.111 OA 
BRANCH   5   6
HETATM    6  C   UNL     1      -6.977   6.591  68.931  1.00  0.00    -0.079 C  
BRANCH   6   7
HETATM    7  C   UNL     1      -6.815   8.017  69.429  1.00  0.00    -0.047 C  
BRANCH   7   8
HETATM    8  O   UNL     1      -7.066   8.905  68.342  1.00  0.00    -0.074 OA 
BRANCH   8   9
HETATM    9  C   UNL     1      -8.446   9.241  68.256  1.00  0.00    -0.120 C  
BRANCH   9  10
HETATM   10  C   UNL     1      -8.788   9.541  66.807  1.00  0.00    -0.131 C  
BRANCH  10  11
HETATM   11  O   UNL     1      -7.754   9.020  65.982  1.00  0.00    -0.093 OA 
BRANCH  11  12
HETATM   12  C   UNL     1      -7.383   7.708  66.387  1.00  0.00    -0.079 C  
BRANCH  12  13
HETATM   13  C   UNL     1      -7.728   7.538  67.856  1.00  0.00    -0.116 C  
BRANCH  13  14
HETATM   14  O   UNL     1      -6.660   6.875  68.518  1.00  0.00    -0.053 OA 
BRANCH  14  15
HETATM   15  C   UNL     1      -5.412   7.258  67.952  1.00  0.00    -0.025 C  
BRANCH  15  16
HETATM   16  C   UNL     1      -5.203   6.555  66.623  1.00  0.00    -0.013 C  
BRANCH  16  17
HETATM   17  O   UNL     1      -6.028   7.202  65.662  1.00  0.00    -0.035 OA 
BRANCH  17  18
HETATM   18  C   UNL     1      -5.725   8.581  65.530  1.00  0.00    -0.044 C  
BRANCH  18  19
HETATM   19  C   UNL     1      -6.924   9.259  64.894  1.00  0.00    -0.090 C  
BRANCH  19  20
HETATM   20  O   UNL     1      -6.725   9.372  63.492  1.00  0.00    -0.091 OA 
BRANCH  20  21
HETATM   21  C   UNL     1      -5.938  10.514  63.157  1.00  0.00    -0.111 C  
BRANCH  21  22
HETATM   22  C   UNL     1      -6.800  11.782  63.126  1.00  0.00     2.653 C  
BRANCH  22  23
HETATM   23  O   UNL     1      -8.061  11.667  62.419  1.00  0.00    -0.113 OA 
BRANCH  23  24
HETATM   24  C   UNL     1      -9.230  11.988  63.213  1.00  0.00     0.415 C  
HETATM   25  C   UNL     1     -10.252  10.892  63.103  1.00  0.00    -0.253 C  
HETATM   26  C   UNL     1     -10.130   9.725  64.244  1.00  0.00     0.652 C  
HETATM   27  C   UNL     1      -9.981  10.146  65.830  1.00  0.00    -0.271 C  
HETATM   28  C   UNL     1     -10.992  10.075  67.154  1.00  0.00    -0.107 C  
HETATM   29  O   UNL     1      -8.688   9.648  66.201  1.00  0.00    -0.132 OA 
HETATM   30  C   UNL     1     -10.433  10.485  68.519  1.00  0.00    -0.210 C  
HETATM   31  H   UNL     1      -8.602   9.891  67.116  1.00  0.00     0.000 HD 
HETATM   32  C   UNL     1      -9.786  11.823  68.260  1.00  0.00    -0.198 A  
HETATM   33  C   UNL     1      -9.112  12.515  69.249  1.00  0.00     0.932 A  
HETATM   34  C   UNL     1      -8.249  13.554  68.934  1.00  0.00     0.149 A  
HETATM   35  C   UNL     1      -8.019  13.912  67.575  1.00  0.00    -0.179 A  
HETATM   36  O   UNL     1      -6.998  14.756  67.267  1.00  0.00    -0.218 OA 
HETATM   37  C   UNL     1      -8.785  13.304  66.583  1.00  0.00     0.001 A  
HETATM   38  H   UNL     1      -6.844  14.994  66.361  1.00  0.00     0.000 HD 
HETATM   39  C   UNL     1      -9.709  12.296  66.891  1.00  0.00    -0.217 A  
HETATM   40  C   UNL     1     -10.188  11.598  65.647  1.00  0.00    -0.284 C  
HETATM   41  C   UNL     1      -8.986  12.125  64.732  1.00  0.00     0.793 C  
HETATM   42  C   UNL     1     -11.949  11.457  65.279  1.00  0.00     0.652 C  
HETATM   43  O   UNL     1      -8.615  13.445  65.215  1.00  0.00     1.821 OA 
HETATM   44  C   UNL     1     -12.725   9.916  65.791  1.00  0.00    11.857 C  
HETATM   45  N   UNL     1     -12.142   9.246  66.978  1.00  0.00     4.266 NA 
BRANCH  45  46
HETATM   46  C   UNL     1     -11.690   7.866  66.955  1.00  0.00     2.935 C  
BRANCH  46  47
HETATM   47  C   UNL     1     -10.379   7.624  67.628  1.00  0.00    -0.303 C  
HETATM   48  C   UNL     1     -10.274   7.150  68.873  1.00  0.00    -0.188 C  
ENDBRANCH  46  47
ENDBRANCH  45  46
ENDBRANCH  23  24
ENDBRANCH  22  23
ENDBRANCH  21  22
ENDBRANCH  20  21
ENDBRANCH  19  20
ENDBRANCH  18  19
ENDBRANCH  17  18
ENDBRANCH  16  17
ENDBRANCH  15  16
ENDBRANCH  14  15
ENDBRANCH  13  14
ENDBRANCH  12  13
ENDBRANCH  11  12
ENDBRANCH  10  11
ENDBRANCH   9  10
ENDBRANCH   8   9
ENDBRANCH   7   8
ENDBRANCH   6   7
ENDBRANCH   5   6
ENDBRANCH   4   5
ENDBRANCH   3   4
ENDBRANCH   2   3
TORSDOF 24
ENDMDL
MODEL      255
REMARK 921   NORMALIZED FREE ENERGY PREDICTED BY IDOCK:   51.04 KCAL/MOL
REMARK 922        TOTAL FREE ENERGY PREDICTED BY IDOCK:  120.37 KCAL/MOL
REMARK 923 INTER-LIGAND FREE ENERGY PREDICTED BY IDOCK:    0.81 KCAL/MOL
REMARK 924 INTRA-LIGAND FREE ENERGY PREDICTED BY IDOCK:  119.56 KCAL/MOL
REMARK 927      BINDING AFFINITY PREDICTED BY RF-SCORE:    0.00 PKD
ROOT
HETATM    1  C   UNL     1      -8.361  18.261  67.671  1.00  0.00    -0.247 C  
HETATM    2  O   UNL     1      -7.534  18.119  68.818  1.00  0.00    -0.283 OA 
ENDROOT
BRANCH   2   3
HETATM    3  C   UNL     1      -8.182  18.613  69.989  1.00  0.00     1.576 C  
BRANCH   3   4
HETATM    4  C   UNL     1      -7.156  19.297  70.880  1.00  0.00     1.464 C  
BRANCH   4   5
HETATM    5  O   UNL     1      -5.892  18.657  70.710  1.00  0.00    -0.128 OA 
BRANCH   5   6
HETATM    6  C   UNL     1      -5.376  18.887  69.402  1.00  0.00    -0.197 C  
BRANCH   6   7
HETATM    7  C   UNL     1      -6.508  19.298  68.476  1.00  0.00    -0.248 C  
BRANCH   7   8
HETATM    8  O   UNL     1      -7.555  19.857  69.266  1.00  0.00    -0.232 OA 
BRANCH   8   9
HETATM    9  C   UNL     1      -7.151  20.024  70.619  1.00  0.00     0.500 C  
BRANCH   9  10
HETATM   10  C   UNL     1      -6.887  18.657  71.225  1.00  0.00     2.770 C  
BRANCH  10  11
HETATM   11  O   UNL     1      -6.256  17.843  70.244  1.00  0.00    -0.065 OA 
BRANCH  11  12
HETATM   12  C   UNL     1      -6.610  18.252  68.928  1.00  0.00    -0.245 C  
BRANCH  12  13
HETATM   13  C   UNL     1      -7.171  17.053  68.184  1.00  0.00    -0.186 C  
BRANCH  13  14
HETATM   14  O   UNL     1      -8.396  16.656  68.785  1.00  0.00    -0.235 OA 
BRANCH  14  15
HETATM   15  C   UNL     1      -8.431  15.244  68.954  1.00  0.00    -0.202 C  
BRANCH  15  16
HETATM   16  C   UNL     1      -9.724  14.831  69.636  1.00  0.00     0.125 C  
BRANCH  16  17
HETATM   17  O   UNL     1     -10.688  15.842  69.372  1.00  0.00    -0.226 OA 
BRANCH  17  18
HETATM   18  C   UNL     1     -10.687  16.250  68.013  1.00  0.00    -0.331 C  
BRANCH  18  19
HETATM   19  C   UNL     1     -10.608  15.000  67.156  1.00  0.00    -0.295 C  
BRANCH  19  20
HETATM   20  O   UNL     1      -9.940  13.969  67.870  1.00  0.00    -0.227 OA 
BRANCH  20  21
HETATM   21  C   UNL     1     -10.615  12.718  67.754  1.00  0.00    -0.221 C  
BRANCH  21  22
HETATM   22  C   UNL     1      -9.652  11.616  67.299  1.00  0.00    -0.174 C  
BRANCH  22  23
HETATM   23  O   UNL     1      -9.747  10.361  68.020  1.00  0.00    -0.148 OA 
BRANCH  23  24
HETATM   24  C   UNL     1     -10.013   9.205  67.189  1.00  0.00    -0.218 C  
HETATM   25  C   UNL     1      -9.253   9.307  65.896  1.00  0.00    -0.277 C  
HETATM   26  C   UNL     1      -7.771   8.613  65.918  1.00  0.00    -0.101 C  
HETATM   27  C   UNL     1      -7.592   7.088  66.514  1.00  0.00    -0.089 C  
HETATM   28  C   UNL     1      -7.287   5.598  65.829  1.00  0.00    -0.073 C  
HETATM   29  O   UNL     1      -6.745   7.259  67.659  1.00  0.00    -0.060 OA 
HETATM   30  C   UNL     1      -7.088   4.397  66.759  1.00  0.00    -0.067 C  
HETATM   31  H   UNL     1      -6.641   6.379  68.002  1.00  0.00     0.000 HD 
HETATM   32  C   UNL     1      -8.273   4.459  67.691  1.00  0.00    -0.099 A  
HETATM   33  C   UNL     1      -8.436   3.560  68.728  1.00  0.00    -0.103 A  
HETATM   34  C   UNL     1      -9.321   3.818  69.765  1.00  0.00    -0.245 A  
HETATM   35  C   UNL     1     -10.061   5.034  69.794  1.00  0.00    -0.267 A  
HETATM   36  O   UNL     1     -10.731   5.384  70.925  1.00  0.00    -0.238 OA 
HETATM   37  C   UNL     1      -9.995   5.886  68.694  1.00  0.00    -0.148 A  
HETATM   38  H   UNL     1     -11.225   6.195  70.944  1.00  0.00     0.000 HD 
HETATM   39  C   UNL     1      -9.154   5.609  67.608  1.00  0.00    -0.106 A  
HETATM   40  C   UNL     1      -9.030   6.800  66.698  1.00  0.00    -0.154 C  
HETATM   41  C   UNL     1      -9.577   7.846  67.778  1.00  0.00    -0.147 C  
HETATM   42  C   UNL     1      -9.385   6.663  64.933  1.00  0.00     1.088 C  
HETATM   43  O   UNL     1     -10.551   7.152  68.604  1.00  0.00    -0.201 OA 
HETATM   44  C   UNL     1      -7.955   6.386  63.876  1.00  0.00    -0.085 C  
HETATM   45  N   UNL     1      -6.820   5.650  64.480  1.00  0.00    -0.049 NA 
BRANCH  45  46
HETATM   46  C   UNL     1      -5.467   6.178  64.504  1.00  0.00    -0.018 C  
BRANCH  46  47
HETATM   47  C   UNL     1      -5.281   7.460  63.762  1.00  0.00    -0.033 C  
HETATM   48  C   UNL     1      -5.157   7.523  62.432  1.00  0.00    -0.041 C  
ENDBRANCH  46  47
ENDBRANCH  45  46
ENDBRANCH  23  24
ENDBRANCH  22  23
ENDBRANCH  21  22
ENDBRANCH  20  21
ENDBRANCH  19  20
ENDBRANCH  18  19
ENDBRANCH  17  18
ENDBRANCH  16  17
ENDBRANCH  15  16
ENDBRANCH  14  15
ENDBRANCH  13  14
ENDBRANCH  12  13
ENDBRANCH  11  12
ENDBRANCH  10  11
ENDBRANCH   9  10
ENDBRANCH   8   9
ENDBRANCH   7   8
ENDBRANCH   6   7
ENDBRANCH   5   6
ENDBRANCH   4   5
ENDBRANCH   3   4
ENDBRANCH   2   3
TORSDOF 24
ENDMDL
MODEL      256
REMARK 921   NORMALIZED FREE ENERGY PREDICTED BY IDOCK:   52.45 KCAL/MOL
REMARK 922        TOTAL FREE ENERGY PREDICTED BY IDOCK:  123.75 KCAL/MOL
REMARK 923 INTER-LIGAND FREE ENERGY PREDICTED BY IDOCK:   25.59 KCAL/MOL
REMARK 924 INTRA-LIGAND FREE ENERGY PREDICTED BY IDOCK:   98.16 KCAL/MOL
REMARK 927      BINDING AFFINITY PREDICTED BY RF-SCORE:    0.00 PKD
ROOT
HETATM    1  C   UNL     1     -11.002  16.344  72.763  1.00  0.00     2.011 C  
HETATM    2  O   UNL     1     -10.295  17.112  71.798  1.00  0.00     2.999 OA 
ENDROOT
BRANCH   2   3
HETATM    3  C   UNL     1     -10.307  16.477  70.521  1.00  0.00     0.703 C  
BRANCH   3   4
HETATM    4  C   UNL     1      -9.147  17.002  69.688  1.00  0.00     0.667 C  
BRANCH   4   5
HETATM    5  O   UNL     1      -8.472  15.900  69.083  1.00  0.00    -0.229 OA 
BRANCH   5   6
HETATM    6  C   UNL     1      -9.357  15.155  68.251  1.00  0.00    -0.193 C  
BRANCH   6   7
HETATM    7  C   UNL     1      -8.941  13.693  68.250  1.00  0.00    -0.187 C  
BRANCH   7   8
HETATM    8  O   UNL     1      -7.523  13.629  68.381  1.00  0.00    -0.107 OA 
BRANCH   8   9
HETATM    9  C   UNL     1      -6.892  13.465  67.117  1.00  0.00     0.305 C  
BRANCH   9  10
HETATM   10  C   UNL     1      -7.515  14.434  66.128  1.00  0.00     3.183 C  
BRANCH  10  11
HETATM   11  O   UNL     1      -8.008  15.558  66.847  1.00  0.00    -0.224 OA 
BRANCH  11  12
HETATM   12  C   UNL     1      -9.357  15.361  67.252  1.00  0.00    -0.210 C  
BRANCH  12  13
HETATM   13  C   UNL     1      -9.690  13.885  67.124  1.00  0.00    -0.244 C  
BRANCH  13  14
HETATM   14  O   UNL     1     -11.093  13.731  66.957  1.00  0.00    -0.293 OA 
BRANCH  14  15
HETATM   15  C   UNL     1     -11.768  13.977  68.185  1.00  0.00    -0.352 C  
BRANCH  15  16
HETATM   16  C   UNL     1     -11.741  15.461  68.508  1.00  0.00    -0.338 C  
BRANCH  16  17
HETATM   17  O   UNL     1     -10.855  16.083  67.587  1.00  0.00    -0.319 OA 
BRANCH  17  18
HETATM   18  C   UNL     1     -11.436  17.211  66.955  1.00  0.00     0.982 C  
BRANCH  18  19
HETATM   19  C   UNL     1     -12.496  17.768  67.887  1.00  0.00     4.408 C  
BRANCH  19  20
HETATM   20  O   UNL     1     -13.461  16.765  68.171  1.00  0.00     3.837 OA 
BRANCH  20  21
HETATM   21  C   UNL     1     -13.363  16.298  69.516  1.00  0.00     3.093 C  
BRANCH  21  22
HETATM   22  C   UNL     1     -12.202  15.309  69.668  1.00  0.00    -0.271 C  
BRANCH  22  23
HETATM   23  O   UNL     1     -12.498  14.105  70.422  1.00  0.00    -0.333 OA 
BRANCH  23  24
HETATM   24  C   UNL     1     -11.376  13.203  70.583  1.00  0.00     0.952 C  
HETATM   25  C   UNL     1     -11.616  12.273  71.739  1.00  0.00     3.042 C  
HETATM   26  C   UNL     1     -12.346  10.864  71.343  1.00  0.00    -0.403 C  
HETATM   27  C   UNL     1     -11.784   9.982  70.069  1.00  0.00    -0.175 C  
HETATM   28  C   UNL     1     -10.948   8.547  69.925  1.00  0.00    -0.165 C  
HETATM   29  O   UNL     1     -12.874   9.985  69.137  1.00  0.00     0.180 OA 
HETATM   30  C   UNL     1     -10.689   7.994  68.520  1.00  0.00    -0.065 C  
HETATM   31  H   UNL     1     -12.550   9.477  68.402  1.00  0.00     0.000 HD 
HETATM   32  C   UNL     1     -10.111   9.167  67.768  1.00  0.00    -0.253 A  
HETATM   33  C   UNL     1      -9.785   9.090  66.427  1.00  0.00    -0.337 A  
HETATM   34  C   UNL     1      -9.579  10.236  65.673  1.00  0.00    -0.289 A  
HETATM   35  C   UNL     1      -9.728  11.522  66.264  1.00  0.00    -0.215 A  
HETATM   36  O   UNL     1      -9.767  12.625  65.469  1.00  0.00    -0.398 OA 
HETATM   37  C   UNL     1      -9.935  11.609  67.639  1.00  0.00    -0.188 A  
HETATM   38  H   UNL     1      -9.867  13.484  65.863  1.00  0.00     0.000 HD 
HETATM   39  C   UNL     1     -10.081  10.460  68.427  1.00  0.00    -0.181 A  
HETATM   40  C   UNL     1     -10.584  10.803  69.803  1.00  0.00    -0.191 C  
HETATM   41  C   UNL     1     -11.102  12.260  69.391  1.00  0.00    -0.101 C  
HETATM   42  C   UNL     1      -9.698  10.262  71.279  1.00  0.00     2.251 C  
HETATM   43  O   UNL     1     -10.216  12.762  68.354  1.00  0.00    -0.234 OA 
HETATM   44  C   UNL     1     -10.300   8.741  72.028  1.00  0.00    -0.340 C  
HETATM   45  N   UNL     1     -10.920   7.755  71.113  1.00  0.00    -0.236 NA 
BRANCH  45  46
HETATM   46  C   UNL     1     -12.257   7.226  71.319  1.00  0.00    -0.354 C  
BRANCH  46  47
HETATM   47  C   UNL     1     -13.363   8.130  70.887  1.00  0.00     0.233 C  
HETATM   48  C   UNL     1     -13.464   8.619  69.646  1.00  0.00     4.172 C  
ENDBRANCH  46  47
ENDBRANCH  45  46
ENDBRANCH  23  24
ENDBRANCH  22  23
ENDBRANCH  21  22
ENDBRANCH  20  21
ENDBRANCH  19  20
ENDBRANCH  18  19
ENDBRANCH  17  18
ENDBRANCH  16  17
ENDBRANCH  15  16
ENDBRANCH  14  15
ENDBRANCH  13  14
ENDBRANCH  12  13
ENDBRANCH  11  12
ENDBRANCH  10  11
ENDBRANCH   9  10
ENDBRANCH   8   9
ENDBRANCH   7   8
ENDBRANCH   6   7
ENDBRANCH   5   6
ENDBRANCH   4   5
ENDBRANCH   3   4
ENDBRANCH   2   3
TORSDOF 24
ENDMDL
MODEL      257
REMARK 921   NORMALIZED FREE ENERGY PREDICTED BY IDOCK:   53.47 KCAL/MOL
REMARK 922        TOTAL FREE ENERGY PREDICTED BY IDOCK:  126.19 KCAL/MOL
REMARK 923 INTER-LIGAND FREE ENERGY PREDICTED BY IDOCK:   20.03 KCAL/MOL
REMARK 924 INTRA-LIGAND FREE ENERGY PREDICTED BY IDOCK:  106.16 KCAL/MOL
REMARK 927      BINDING AFFINITY PREDICTED BY RF-SCORE:    0.00 PKD
ROOT
HETATM    1  C   UNL     1      -6.884  14.859  65.609  1.00  0.00     7.945 C  
HETATM    2  O   UNL     1      -8.000  14.334  66.315  1.00  0.00     0.850 OA 
ENDROOT
BRANCH   2   3
HETATM    3  C   UNL     1      -9.018  13.890  65.420  1.00  0.00     1.381 C  
BRANCH   3   4
HETATM    4  C   UNL     1     -10.090  13.149  66.205  1.00  0.00    -0.285 C  
BRANCH   4   5
HETATM    5  O   UNL     1      -9.833  11.747  66.134  1.00  0.00    -0.216 OA 
BRANCH   5   6
HETATM    6  C   UNL     1      -8.549  11.436  66.668  1.00  0.00    -0.170 C  
BRANCH   6   7
HETATM    7  C   UNL     1      -7.999  10.198  65.980  1.00  0.00    -0.124 C  
BRANCH   7   8
HETATM    8  O   UNL     1      -8.065   9.108  66.896  1.00  0.00    -0.110 OA 
BRANCH   8   9
HETATM    9  C   UNL     1      -7.879   9.545  68.237  1.00  0.00    -0.086 C  
BRANCH   9  10
HETATM   10  C   UNL     1      -9.194   9.410  68.984  1.00  0.00    -0.145 C  
BRANCH  10  11
HETATM   11  O   UNL     1      -9.640  10.709  69.351  1.00  0.00    -0.187 OA 
BRANCH  11  12
HETATM   12  C   UNL     1     -10.485  11.268  68.352  1.00  0.00    -0.197 C  
BRANCH  12  13
HETATM   13  C   UNL     1      -9.630  12.081  67.395  1.00  0.00    -0.176 C  
BRANCH  13  14
HETATM   14  O   UNL     1      -8.639  12.785  68.131  1.00  0.00    -0.174 OA 
BRANCH  14  15
HETATM   15  C   UNL     1      -8.630  12.356  69.487  1.00  0.00     1.530 C  
BRANCH  15  16
HETATM   16  C   UNL     1      -7.281  12.649  70.119  1.00  0.00     1.487 C  
BRANCH  16  17
HETATM   17  O   UNL     1      -6.279  12.184  69.224  1.00  0.00    -0.080 OA 
BRANCH  17  18
HETATM   18  C   UNL     1      -6.632  10.956  68.607  1.00  0.00    -0.057 C  
BRANCH  18  19
HETATM   19  C   UNL     1      -7.304  10.089  69.655  1.00  0.00    -0.127 C  
BRANCH  19  20
HETATM   20  O   UNL     1      -7.290  10.754  70.910  1.00  0.00     0.591 OA 
BRANCH  20  21
HETATM   21  C   UNL     1      -7.148  12.166  70.763  1.00  0.00     3.115 C  
BRANCH  21  22
HETATM   22  C   UNL     1      -5.841  12.513  70.042  1.00  0.00    -0.150 C  
BRANCH  22  23
HETATM   23  O   UNL     1      -5.466  13.914  70.059  1.00  0.00    -0.096 OA 
BRANCH  23  24
HETATM   24  C   UNL     1      -6.162  14.737  69.091  1.00  0.00    -0.105 C  
HETATM   25  C   UNL     1      -7.303  13.972  68.480  1.00  0.00    -0.114 C  
HETATM   26  C   UNL     1      -8.734  14.144  69.255  1.00  0.00     0.354 C  
HETATM   27  C   UNL     1      -9.268  15.650  69.658  1.00  0.00    -0.189 C  
HETATM   28  C   UNL     1     -10.481  16.646  69.093  1.00  0.00    -0.333 C  
HETATM   29  O   UNL     1      -9.307  15.633  71.091  1.00  0.00     1.442 OA 
HETATM   30  C   UNL     1     -10.731  17.971  69.818  1.00  0.00     1.095 C  
HETATM   31  H   UNL     1      -9.615  16.502  71.324  1.00  0.00     0.000 HD 
HETATM   32  C   UNL     1      -9.361  18.597  69.913  1.00  0.00     1.060 A  
HETATM   33  C   UNL     1      -9.149  19.801  70.557  1.00  0.00     1.560 A  
HETATM   34  C   UNL     1      -7.874  20.198  70.932  1.00  0.00     1.526 A  
HETATM   35  C   UNL     1      -6.755  19.352  70.683  1.00  0.00     0.454 A  
HETATM   36  O   UNL     1      -5.560  19.634  71.267  1.00  0.00    -0.265 OA 
HETATM   37  C   UNL     1      -6.943  18.197  69.928  1.00  0.00     0.469 A  
HETATM   38  H   UNL     1      -4.813  19.070  71.101  1.00  0.00     0.000 HD 
HETATM   39  C   UNL     1      -8.216  17.815  69.485  1.00  0.00     0.662 A  
HETATM   40  C   UNL     1      -8.209  16.406  68.958  1.00  0.00    -0.222 C  
HETATM   41  C   UNL     1      -6.823  16.014  69.654  1.00  0.00    -0.153 C  
HETATM   42  C   UNL     1      -8.822  16.031  67.302  1.00  0.00    -0.207 C  
HETATM   43  O   UNL     1      -5.998  17.211  69.692  1.00  0.00    -0.216 OA 
HETATM   44  C   UNL     1     -10.532  15.478  67.217  1.00  0.00    -0.279 C  
HETATM   45  N   UNL     1     -11.445  15.995  68.264  1.00  0.00    -0.334 NA 
BRANCH  45  46
HETATM   46  C   UNL     1     -12.236  15.122  69.114  1.00  0.00    -0.150 C  
BRANCH  46  47
HETATM   47  C   UNL     1     -11.656  13.764  69.332  1.00  0.00    -0.365 C  
HETATM   48  C   UNL     1     -12.304  12.787  69.976  1.00  0.00    -0.182 C  
ENDBRANCH  46  47
ENDBRANCH  45  46
ENDBRANCH  23  24
ENDBRANCH  22  23
ENDBRANCH  21  22
ENDBRANCH  20  21
ENDBRANCH  19  20
ENDBRANCH  18  19
ENDBRANCH  17  18
ENDBRANCH  16  17
ENDBRANCH  15  16
ENDBRANCH  14  15
ENDBRANCH  13  14
ENDBRANCH  12  13
ENDBRANCH  11  12
ENDBRANCH  10  11
ENDBRANCH   9  10
ENDBRANCH   8   9
ENDBRANCH   7   8
ENDBRANCH   6   7
ENDBRANCH   5   6
ENDBRANCH   4   5
ENDBRANCH   3   4
ENDBRANCH   2   3
TORSDOF 24
ENDMDL
MODEL      258
REMARK 921   NORMALIZED FREE ENERGY PREDICTED BY IDOCK:   56.59 KCAL/MOL
REMARK 922        TOTAL FREE ENERGY PREDICTED BY IDOCK:  133.70 KCAL/MOL
REMARK 923 INTER-LIGAND FREE ENERGY PREDICTED BY IDOCK:   46.43 KCAL/MOL
REMARK 924 INTRA-LIGAND FREE ENERGY PREDICTED BY IDOCK:   87.27 KCAL/MOL
REMARK 927      BINDING AFFINITY PREDICTED BY RF-SCORE:    0.00 PKD
ROOT
HETATM    1  C   UNL     1     -12.523  15.090  66.536  1.00  0.00     0.613 C  
HETATM    2  O   UNL     1     -13.530  16.093  66.574  1.00  0.00     4.978 OA 
ENDROOT
BRANCH   2   3
HETATM    3  C   UNL     1     -13.093  17.291  65.934  1.00  0.00     9.846 C  
BRANCH   3   4
HETATM    4  C   UNL     1     -13.253  18.461  66.893  1.00  0.00     9.741 C  
BRANCH   4   5
HETATM    5  O   UNL     1     -12.014  18.682  67.567  1.00  0.00     1.580 OA 
BRANCH   5   6
HETATM    6  C   UNL     1     -10.912  18.491  66.684  1.00  0.00     0.114 C  
BRANCH   6   7
HETATM    7  C   UNL     1      -9.868  17.617  67.359  1.00  0.00    -0.305 C  
BRANCH   7   8
HETATM    8  O   UNL     1     -10.532  16.512  67.967  1.00  0.00    -0.287 OA 
BRANCH   8   9
HETATM    9  C   UNL     1     -11.814  16.294  67.389  1.00  0.00     0.736 C  
BRANCH   9  10
HETATM   10  C   UNL     1     -11.685  15.259  66.285  1.00  0.00     0.102 C  
BRANCH  10  11
HETATM   11  O   UNL     1     -11.379  14.003  66.878  1.00  0.00    -0.306 OA 
BRANCH  11  12
HETATM   12  C   UNL     1     -10.303  13.362  66.204  1.00  0.00    -0.295 C  
BRANCH  12  13
HETATM   13  C   UNL     1      -9.430  12.669  67.236  1.00  0.00    -0.199 C  
BRANCH  13  14
HETATM   14  O   UNL     1      -8.445  13.578  67.707  1.00  0.00    -0.157 OA 
BRANCH  14  15
HETATM   15  C   UNL     1      -8.740  13.981  69.039  1.00  0.00     0.169 C  
BRANCH  15  16
HETATM   16  C   UNL     1      -9.739  13.025  69.666  1.00  0.00     1.616 C  
BRANCH  16  17
HETATM   17  O   UNL     1     -10.920  13.765  69.949  1.00  0.00     0.007 OA 
BRANCH  17  18
HETATM   18  C   UNL     1     -10.973  14.992  69.238  1.00  0.00    -0.264 C  
BRANCH  18  19
HETATM   19  C   UNL     1     -12.435  15.359  69.061  1.00  0.00     0.134 C  
BRANCH  19  20
HETATM   20  O   UNL     1     -13.111  14.319  68.369  1.00  0.00     1.398 OA 
BRANCH  20  21
HETATM   21  C   UNL     1     -12.658  13.028  68.772  1.00  0.00     0.706 C  
BRANCH  21  22
HETATM   22  C   UNL     1     -11.639  13.138  69.912  1.00  0.00    -0.185 C  
BRANCH  22  23
HETATM   23  O   UNL     1     -11.669  12.064  70.887  1.00  0.00     0.090 OA 
BRANCH  23  24
HETATM   24  C   UNL     1     -10.843  10.922  70.554  1.00  0.00     0.470 C  
HETATM   25  C   UNL     1     -11.657   9.878  69.843  1.00  0.00    -0.184 C  
HETATM   26  C   UNL     1     -11.663  10.010  68.212  1.00  0.00     0.446 C  
HETATM   27  C   UNL     1     -10.242  10.207  67.402  1.00  0.00    -0.218 C  
HETATM   28  C   UNL     1      -9.316   9.229  66.419  1.00  0.00    -0.192 C  
HETATM   29  O   UNL     1     -10.365  11.501  66.795  1.00  0.00    -0.214 OA 
HETATM   30  C   UNL     1      -8.072   9.831  65.758  1.00  0.00    -0.119 C  
HETATM   31  H   UNL     1      -9.544  11.614  66.328  1.00  0.00     0.000 HD 
HETATM   32  C   UNL     1      -7.339  10.493  66.899  1.00  0.00    -0.110 A  
HETATM   33  C   UNL     1      -6.171  11.204  66.705  1.00  0.00    -0.136 A  
HETATM   34  C   UNL     1      -5.694  12.076  67.672  1.00  0.00    -0.091 A  
HETATM   35  C   UNL     1      -6.420  12.277  68.881  1.00  0.00    -0.089 A  
HETATM   36  O   UNL     1      -6.080  13.305  69.704  1.00  0.00    -0.106 OA 
HETATM   37  C   UNL     1      -7.530  11.476  69.137  1.00  0.00    -0.025 A  
HETATM   38  H   UNL     1      -6.564  13.439  70.510  1.00  0.00     0.000 HD 
HETATM   39  C   UNL     1      -7.988  10.543  68.196  1.00  0.00    -0.111 A  
HETATM   40  C   UNL     1      -9.349  10.021  68.565  1.00  0.00    -0.145 C  
HETATM   41  C   UNL     1      -9.670  11.208  69.590  1.00  0.00     0.509 C  
HETATM   42  C   UNL     1      -9.657   8.248  68.712  1.00  0.00    -0.150 C  
HETATM   43  O   UNL     1      -8.412  11.613  70.196  1.00  0.00     1.833 OA 
HETATM   44  C   UNL     1     -10.347   7.460  67.249  1.00  0.00    -0.286 C  
HETATM   45  N   UNL     1      -9.987   8.061  65.943  1.00  0.00     0.258 NA 
BRANCH  45  46
HETATM   46  C   UNL     1     -10.982   8.489  64.977  1.00  0.00     6.915 C  
BRANCH  46  47
HETATM   47  C   UNL     1     -11.198   9.965  64.909  1.00  0.00     3.187 C  
HETATM   48  C   UNL     1     -12.297  10.565  65.379  1.00  0.00     5.155 C  
ENDBRANCH  46  47
ENDBRANCH  45  46
ENDBRANCH  23  24
ENDBRANCH  22  23
ENDBRANCH  21  22
ENDBRANCH  20  21
ENDBRANCH  19  20
ENDBRANCH  18  19
ENDBRANCH  17  18
ENDBRANCH  16  17
ENDBRANCH  15  16
ENDBRANCH  14  15
ENDBRANCH  13  14
ENDBRANCH  12  13
ENDBRANCH  11  12
ENDBRANCH  10  11
ENDBRANCH   9  10
ENDBRANCH   8   9
ENDBRANCH   7   8
ENDBRANCH   6   7
ENDBRANCH   5   6
ENDBRANCH   4   5
ENDBRANCH   3   4
ENDBRANCH   2   3
TORSDOF 24
ENDMDL
MODEL      259
REMARK 921   NORMALIZED FREE ENERGY PREDICTED BY IDOCK:   63.23 KCAL/MOL
REMARK 922        TOTAL FREE ENERGY PREDICTED BY IDOCK:  149.65 KCAL/MOL
REMARK 923 INTER-LIGAND FREE ENERGY PREDICTED BY IDOCK:   15.34 KCAL/MOL
REMARK 924 INTRA-LIGAND FREE ENERGY PREDICTED BY IDOCK:  134.31 KCAL/MOL
REMARK 927      BINDING AFFINITY PREDICTED BY RF-SCORE:    0.00 PKD
ROOT
HETATM    1  C   UNL     1      -8.083   1.874  67.725  1.00  0.00    -0.060 C  
HETATM    2  O   UNL     1      -8.503   2.696  68.805  1.00  0.00    -0.062 OA 
ENDROOT
BRANCH   2   3
HETATM    3  C   UNL     1      -8.696   1.932  69.993  1.00  0.00    -0.057 C  
BRANCH   3   4
HETATM    4  C   UNL     1      -8.437   2.814  71.206  1.00  0.00    -0.063 C  
BRANCH   4   5
HETATM    5  O   UNL     1      -8.049   4.113  70.761  1.00  0.00    -0.061 OA 
BRANCH   5   6
HETATM    6  C   UNL     1      -7.805   4.979  71.866  1.00  0.00    -0.109 C  
BRANCH   6   7
HETATM    7  C   UNL     1      -7.754   6.418  71.380  1.00  0.00    -0.099 C  
BRANCH   7   8
HETATM    8  O   UNL     1      -6.633   7.057  71.987  1.00  0.00    -0.055 OA 
BRANCH   8   9
HETATM    9  C   UNL     1      -5.445   6.846  71.234  1.00  0.00    -0.028 C  
BRANCH   9  10
HETATM   10  C   UNL     1      -5.774   5.979  70.031  1.00  0.00    -0.013 C  
BRANCH  10  11
HETATM   11  O   UNL     1      -6.670   6.695  69.191  1.00  0.00    -0.048 OA 
BRANCH  11  12
HETATM   12  C   UNL     1      -6.833   8.037  69.634  1.00  0.00    -0.042 C  
BRANCH  12  13
HETATM   13  C   UNL     1      -7.792   8.745  68.692  1.00  0.00    -0.103 C  
BRANCH  13  14
HETATM   14  O   UNL     1      -8.722   9.505  69.450  1.00  0.00    -0.143 OA 
BRANCH  14  15
HETATM   15  C   UNL     1      -8.320   9.565  70.813  1.00  0.00    -0.029 C  
BRANCH  15  16
HETATM   16  C   UNL     1      -8.642  10.931  71.393  1.00  0.00     6.935 C  
BRANCH  16  17
HETATM   17  O   UNL     1     -10.057  11.051  71.444  1.00  0.00     3.545 OA 
BRANCH  17  18
HETATM   18  C   UNL     1     -10.717   9.948  70.845  1.00  0.00    -0.235 C  
BRANCH  18  19
HETATM   19  C   UNL     1     -11.546  10.477  69.690  1.00  0.00    -0.271 C  
BRANCH  19  20
HETATM   20  O   UNL     1     -12.913  10.142  69.887  1.00  0.00     0.083 OA 
BRANCH  20  21
HETATM   21  C   UNL     1     -13.064   8.867  70.509  1.00  0.00     0.709 C  
BRANCH  21  22
HETATM   22  C   UNL     1     -13.474   7.804  69.484  1.00  0.00     5.571 C  
BRANCH  22  23
HETATM   23  O   UNL     1     -12.487   6.775  69.216  1.00  0.00     1.152 OA 
BRANCH  23  24
HETATM   24  C   UNL     1     -11.249   6.919  69.954  1.00  0.00    -0.285 C  
HETATM   25  C   UNL     1     -11.496   6.736  71.426  1.00  0.00    -0.336 C  
HETATM   26  C   UNL     1     -11.323   5.200  71.962  1.00  0.00     0.072 C  
HETATM   27  C   UNL     1      -9.986   4.333  71.543  1.00  0.00    -0.173 C  
HETATM   28  C   UNL     1      -8.629   3.815  72.362  1.00  0.00    -0.090 C  
HETATM   29  O   UNL     1     -10.506   3.247  70.764  1.00  0.00     0.682 OA 
HETATM   30  C   UNL     1      -7.629   2.922  71.622  1.00  0.00    -0.048 C  
HETATM   31  H   UNL     1      -9.734   2.747  70.522  1.00  0.00     0.000 HD 
HETATM   32  C   UNL     1      -7.372   3.657  70.329  1.00  0.00    -0.041 A  
HETATM   33  C   UNL     1      -6.548   3.144  69.346  1.00  0.00    -0.033 A  
HETATM   34  C   UNL     1      -6.581   3.643  68.052  1.00  0.00    -0.042 A  
HETATM   35  C   UNL     1      -7.491   4.682  67.705  1.00  0.00    -0.078 A  
HETATM   36  O   UNL     1      -7.687   4.990  66.395  1.00  0.00    -0.090 OA 
HETATM   37  C   UNL     1      -8.235   5.287  68.715  1.00  0.00    -0.089 A  
HETATM   38  H   UNL     1      -8.294   5.684  66.163  1.00  0.00     0.000 HD 
HETATM   39  C   UNL     1      -8.166   4.837  70.040  1.00  0.00    -0.068 A  
HETATM   40  C   UNL     1      -9.262   5.437  70.877  1.00  0.00    -0.183 C  
HETATM   41  C   UNL     1     -10.151   5.884  69.624  1.00  0.00    -0.200 C  
HETATM   42  C   UNL     1      -8.888   6.319  72.406  1.00  0.00    -0.131 C  
HETATM   43  O   UNL     1      -9.242   6.223  68.541  1.00  0.00    -0.125 OA 
HETATM   44  C   UNL     1      -9.012   5.342  73.912  1.00  0.00    -0.120 C  
HETATM   45  N   UNL     1      -8.730   3.893  73.785  1.00  0.00    -0.093 NA 
BRANCH  45  46
HETATM   46  C   UNL     1      -9.667   2.871  74.215  1.00  0.00    -0.097 C  
BRANCH  46  47
HETATM   47  C   UNL     1     -10.708   2.509  73.208  1.00  0.00    -0.276 C  
HETATM   48  C   UNL     1     -11.410   3.418  72.524  1.00  0.00     0.667 C  
ENDBRANCH  46  47
ENDBRANCH  45  46
ENDBRANCH  23  24
ENDBRANCH  22  23
ENDBRANCH  21  22
ENDBRANCH  20  21
ENDBRANCH  19  20
ENDBRANCH  18  19
ENDBRANCH  17  18
ENDBRANCH  16  17
ENDBRANCH  15  16
ENDBRANCH  14  15
ENDBRANCH  13  14
ENDBRANCH  12  13
ENDBRANCH  11  12
ENDBRANCH  10  11
ENDBRANCH   9  10
ENDBRANCH   8   9
ENDBRANCH   7   8
ENDBRANCH   6   7
ENDBRANCH   5   6
ENDBRANCH   4   5
ENDBRANCH   3   4
ENDBRANCH   2   3
TORSDOF 24
ENDMDL
MODEL      260
REMARK 921   NORMALIZED FREE ENERGY PREDICTED BY IDOCK:   64.99 KCAL/MOL
REMARK 922        TOTAL FREE ENERGY PREDICTED BY IDOCK:  153.88 KCAL/MOL
REMARK 923 INTER-LIGAND FREE ENERGY PREDICTED BY IDOCK:   18.91 KCAL/MOL
REMARK 924 INTRA-LIGAND FREE ENERGY PREDICTED BY IDOCK:  134.97 KCAL/MOL
REMARK 927      BINDING AFFINITY PREDICTED BY RF-SCORE:    0.00 PKD
ROOT
HETATM    1  C   UNL     1      -7.924  17.500  68.081  1.00  0.00    -0.250 C  
HETATM    2  O   UNL     1      -7.213  17.295  69.294  1.00  0.00    -0.221 OA 
ENDROOT
BRANCH   2   3
HETATM    3  C   UNL     1      -7.980  17.712  70.422  1.00  0.00     3.393 C  
BRANCH   3   4
HETATM    4  C   UNL     1      -7.060  18.362  71.444  1.00  0.00     4.389 C  
BRANCH   4   5
HETATM    5  O   UNL     1      -5.758  17.790  71.327  1.00  0.00     0.168 OA 
BRANCH   5   6
HETATM    6  C   UNL     1      -5.220  18.007  70.026  1.00  0.00    -0.219 C  
BRANCH   6   7
HETATM    7  C   UNL     1      -6.328  18.456  69.088  1.00  0.00    -0.250 C  
BRANCH   7   8
HETATM    8  O   UNL     1      -7.292  19.183  69.847  1.00  0.00     0.113 OA 
BRANCH   8   9
HETATM    9  C   UNL     1      -6.818  19.460  71.159  1.00  0.00     1.161 C  
BRANCH   9  10
HETATM   10  C   UNL     1      -6.592  18.146  71.886  1.00  0.00     3.782 C  
BRANCH  10  11
HETATM   11  O   UNL     1      -6.142  17.181  70.945  1.00  0.00     0.489 OA 
BRANCH  11  12
HETATM   12  C   UNL     1      -6.437  17.582  69.612  1.00  0.00    -0.147 C  
BRANCH  12  13
HETATM   13  C   UNL     1      -7.454  16.616  69.030  1.00  0.00    -0.232 C  
BRANCH  13  14
HETATM   14  O   UNL     1      -8.529  16.456  69.945  1.00  0.00     0.457 OA 
BRANCH  14  15
HETATM   15  C   UNL     1      -8.869  15.081  70.074  1.00  0.00     0.442 C  
BRANCH  15  16
HETATM   16  C   UNL     1      -9.905  14.899  71.169  1.00  0.00     1.967 C  
BRANCH  16  17
HETATM   17  O   UNL     1     -10.525  16.160  71.385  1.00  0.00     0.804 OA 
BRANCH  17  18
HETATM   18  C   UNL     1     -10.760  16.862  70.175  1.00  0.00     0.153 C  
BRANCH  18  19
HETATM   19  C   UNL     1     -11.256  15.860  69.149  1.00  0.00    -0.334 C  
BRANCH  19  20
HETATM   20  O   UNL     1     -10.542  14.639  69.285  1.00  0.00    -0.242 OA 
BRANCH  20  21
HETATM   21  C   UNL     1     -11.412  13.508  69.252  1.00  0.00    -0.291 C  
BRANCH  21  22
HETATM   22  C   UNL     1     -10.674  12.266  68.739  1.00  0.00    -0.214 C  
BRANCH  22  23
HETATM   23  O   UNL     1     -10.876  11.053  69.508  1.00  0.00    -0.242 OA 
BRANCH  23  24
HETATM   24  C   UNL     1     -11.420   9.943  68.754  1.00  0.00     0.100 C  
HETATM   25  C   UNL     1     -10.810   9.896  67.381  1.00  0.00    -0.293 C  
HETATM   26  C   UNL     1      -9.467   8.969  67.261  1.00  0.00    -0.189 C  
HETATM   27  C   UNL     1      -9.468   7.445  67.888  1.00  0.00    -0.140 C  
HETATM   28  C   UNL     1      -9.489   5.914  67.227  1.00  0.00    -0.114 C  
HETATM   29  O   UNL     1      -8.477   7.494  68.923  1.00  0.00    -0.128 OA 
HETATM   30  C   UNL     1      -9.380   4.712  68.171  1.00  0.00    -0.177 C  
HETATM   31  H   UNL     1      -8.478   6.614  69.284  1.00  0.00     0.000 HD 
HETATM   32  C   UNL     1     -10.422   4.984  69.227  1.00  0.00    -0.105 A  
HETATM   33  C   UNL     1     -10.607   4.143  70.308  1.00  0.00     1.051 A  
HETATM   34  C   UNL     1     -11.311   4.560  71.428  1.00  0.00     1.476 A  
HETATM   35  C   UNL     1     -11.837   5.881  71.496  1.00  0.00     0.119 A  
HETATM   36  O   UNL     1     -12.305   6.356  72.682  1.00  0.00    -0.506 OA 
HETATM   37  C   UNL     1     -11.762   6.692  70.366  1.00  0.00    -0.386 A  
HETATM   38  H   UNL     1     -12.656   7.238  72.728  1.00  0.00     0.000 HD 
HETATM   39  C   UNL     1     -11.110   6.262  69.203  1.00  0.00    -0.457 A  
HETATM   40  C   UNL     1     -10.902   7.400  68.242  1.00  0.00    -0.081 C  
HETATM   41  C   UNL     1     -11.144   8.540  69.339  1.00  0.00     0.103 C  
HETATM   42  C   UNL     1     -11.478   7.293  66.535  1.00  0.00     1.937 C  
HETATM   43  O   UNL     1     -12.113   8.030  70.294  1.00  0.00     0.138 OA 
HETATM   44  C   UNL     1     -10.246   6.768  65.334  1.00  0.00     2.195 C  
HETATM   45  N   UNL     1      -9.181   5.865  65.833  1.00  0.00    -0.133 NA 
BRANCH  45  46
HETATM   46  C   UNL     1      -7.768   6.163  65.685  1.00  0.00    -0.092 C  
BRANCH  46  47
HETATM   47  C   UNL     1      -6.854   5.281  66.470  1.00  0.00    -0.063 C  
HETATM   48  C   UNL     1      -5.539   5.203  66.241  1.00  0.00    -0.017 C  
ENDBRANCH  46  47
ENDBRANCH  45  46
ENDBRANCH  23  24
ENDBRANCH  22  23
ENDBRANCH  21  22
ENDBRANCH  20  21
ENDBRANCH  19  20
ENDBRANCH  18  19
ENDBRANCH  17  18
ENDBRANCH  16  17
ENDBRANCH  15  16
ENDBRANCH  14  15
ENDBRANCH  13  14
ENDBRANCH  12  13
ENDBRANCH  11  12
ENDBRANCH  10  11
ENDBRANCH   9  10
ENDBRANCH   8   9
ENDBRANCH   7   8
ENDBRANCH   6   7
ENDBRANCH   5   6
ENDBRANCH   4   5
ENDBRANCH   3   4
ENDBRANCH   2   3
TORSDOF 24
ENDMDL
MODEL      261
REMARK 921   NORMALIZED FREE ENERGY PREDICTED BY IDOCK:   68.05 KCAL/MOL
REMARK 922        TOTAL FREE ENERGY PREDICTED BY IDOCK:  161.24 KCAL/MOL
REMARK 923 INTER-LIGAND FREE ENERGY PREDICTED BY IDOCK:   20.18 KCAL/MOL
REMARK 924 INTRA-LIGAND FREE ENERGY PREDICTED BY IDOCK:  141.06 KCAL/MOL
REMARK 927      BINDING AFFINITY PREDICTED BY RF-SCORE:    0.00 PKD
ROOT
HETATM    1  C   UNL     1     -11.003  16.347  72.761  1.00  0.00     2.011 C  
HETATM    2  O   UNL     1     -10.296  17.140  71.817  1.00  0.00     2.999 OA 
ENDROOT
BRANCH   2   3
HETATM    3  C   UNL     1     -10.329  16.552  70.518  1.00  0.00     0.703 C  
BRANCH   3   4
HETATM    4  C   UNL     1      -9.163  17.081  69.696  1.00  0.00     0.606 C  
BRANCH   4   5
HETATM    5  O   UNL     1      -8.541  15.992  69.016  1.00  0.00    -0.219 OA 
BRANCH   5   6
HETATM    6  C   UNL     1      -9.460  15.348  68.137  1.00  0.00    -0.202 C  
BRANCH   6   7
HETATM    7  C   UNL     1      -9.111  13.873  68.031  1.00  0.00    -0.192 C  
BRANCH   7   8
HETATM    8  O   UNL     1      -9.037  13.333  69.349  1.00  0.00     0.720 OA 
BRANCH   8   9
HETATM    9  C   UNL     1      -7.696  13.307  69.824  1.00  0.00     1.224 C  
BRANCH   9  10
HETATM   10  C   UNL     1      -7.059  14.662  69.569  1.00  0.00    -0.152 C  
BRANCH  10  11
HETATM   11  O   UNL     1      -8.079  15.653  69.602  1.00  0.00    -0.205 OA 
BRANCH  11  12
HETATM   12  C   UNL     1      -8.648  15.851  68.313  1.00  0.00    -0.176 C  
BRANCH  12  13
HETATM   13  C   UNL     1      -8.248  14.688  67.423  1.00  0.00    -0.201 C  
BRANCH  13  14
HETATM   14  O   UNL     1      -8.292  15.097  66.063  1.00  0.00     0.268 OA 
BRANCH  14  15
HETATM   15  C   UNL     1      -9.640  15.207  65.623  1.00  0.00    -0.260 C  
BRANCH  15  16
HETATM   16  C   UNL     1     -10.299  16.423  66.250  1.00  0.00    -0.329 C  
BRANCH  16  17
HETATM   17  O   UNL     1      -9.416  16.919  67.249  1.00  0.00    -0.236 OA 
BRANCH  17  18
HETATM   18  C   UNL     1      -9.181  18.311  67.121  1.00  0.00    -0.264 C  
BRANCH  18  19
HETATM   19  C   UNL     1     -10.371  18.917  66.401  1.00  0.00    -0.443 C  
BRANCH  19  20
HETATM   20  O   UNL     1     -10.536  18.291  65.136  1.00  0.00    -0.456 OA 
BRANCH  20  21
HETATM   21  C   UNL     1     -11.676  17.434  65.111  1.00  0.00     2.115 C  
BRANCH  21  22
HETATM   22  C   UNL     1     -11.393  16.126  65.859  1.00  0.00     0.333 C  
BRANCH  22  23
HETATM   23  O   UNL     1     -11.768  14.910  65.162  1.00  0.00    -0.348 OA 
BRANCH  23  24
HETATM   24  C   UNL     1     -11.540  13.691  65.909  1.00  0.00    -0.328 C  
HETATM   25  C   UNL     1     -12.321  12.556  65.308  1.00  0.00    -0.469 C  
HETATM   26  C   UNL     1     -11.513  11.695  64.174  1.00  0.00    -0.364 C  
HETATM   27  C   UNL     1      -9.982  11.171  64.484  1.00  0.00    -0.296 C  
HETATM   28  C   UNL     1      -9.302   9.682  64.803  1.00  0.00    -0.222 C  
HETATM   29  O   UNL     1      -9.178  11.854  63.512  1.00  0.00    -0.519 OA 
HETATM   30  C   UNL     1      -7.780   9.593  64.942  1.00  0.00    -0.120 C  
HETATM   31  H   UNL     1      -8.295  11.552  63.690  1.00  0.00     0.000 HD 
HETATM   32  C   UNL     1      -7.439  10.691  65.920  1.00  0.00    -0.131 A  
HETATM   33  C   UNL     1      -6.135  10.975  66.277  1.00  0.00    -0.136 A  
HETATM   34  C   UNL     1      -5.807  12.173  66.895  1.00  0.00    -0.008 A  
HETATM   35  C   UNL     1      -6.811  13.150  67.148  1.00  0.00     0.193 A  
HETATM   36  O   UNL     1      -6.444  14.405  67.524  1.00  0.00    -0.267 OA 
HETATM   37  C   UNL     1      -8.142  12.823  66.904  1.00  0.00     0.014 A  
HETATM   38  H   UNL     1      -7.114  15.058  67.693  1.00  0.00     0.000 HD 
HETATM   39  C   UNL     1      -8.497  11.590  66.339  1.00  0.00    -0.138 A  
HETATM   40  C   UNL     1      -9.936  11.587  65.901  1.00  0.00    -0.267 C  
HETATM   41  C   UNL     1     -10.082  13.180  65.921  1.00  0.00    -0.290 C  
HETATM   42  C   UNL     1     -11.079  10.311  66.472  1.00  0.00     0.155 C  
HETATM   43  O   UNL     1      -9.225  13.684  66.982  1.00  0.00    -0.232 OA 
HETATM   44  C   UNL     1     -11.300   8.916  65.357  1.00  0.00     6.246 C  
HETATM   45  N   UNL     1     -10.143   8.569  64.498  1.00  0.00     2.880 NA 
BRANCH  45  46
HETATM   46  C   UNL     1     -10.241   8.476  63.052  1.00  0.00     5.922 C  
BRANCH  46  47
HETATM   47  C   UNL     1     -10.209   9.785  62.335  1.00  0.00     1.582 C  
HETATM   48  C   UNL     1      -9.216  10.670  62.473  1.00  0.00    -0.323 C  
ENDBRANCH  46  47
ENDBRANCH  45  46
ENDBRANCH  23  24
ENDBRANCH  22  23
ENDBRANCH  21  22
ENDBRANCH  20  21
ENDBRANCH  19  20
ENDBRANCH  18  19
ENDBRANCH  17  18
ENDBRANCH  16  17
ENDBRANCH  15  16
ENDBRANCH  14  15
ENDBRANCH  13  14
ENDBRANCH  12  13
ENDBRANCH  11  12
ENDBRANCH  10  11
ENDBRANCH   9  10
ENDBRANCH   8   9
ENDBRANCH   7   8
ENDBRANCH   6   7
ENDBRANCH   5   6
ENDBRANCH   4   5
ENDBRANCH   3   4
ENDBRANCH   2   3
TORSDOF 24
ENDMDL
MODEL      262
REMARK 921   NORMALIZED FREE ENERGY PREDICTED BY IDOCK:   72.29 KCAL/MOL
REMARK 922        TOTAL FREE ENERGY PREDICTED BY IDOCK:  171.43 KCAL/MOL
REMARK 923 INTER-LIGAND FREE ENERGY PREDICTED BY IDOCK:   59.97 KCAL/MOL
REMARK 924 INTRA-LIGAND FREE ENERGY PREDICTED BY IDOCK:  111.46 KCAL/MOL
REMARK 927      BINDING AFFINITY PREDICTED BY RF-SCORE:    0.00 PKD
ROOT
HETATM    1  C   UNL     1      -6.886  14.858  65.613  1.00  0.00     7.945 C  
HETATM    2  O   UNL     1      -8.001  14.319  66.311  1.00  0.00     0.850 OA 
ENDROOT
BRANCH   2   3
HETATM    3  C   UNL     1      -9.016  13.884  65.409  1.00  0.00     1.381 C  
BRANCH   3   4
HETATM    4  C   UNL     1     -10.085  13.127  66.182  1.00  0.00    -0.291 C  
BRANCH   4   5
HETATM    5  O   UNL     1      -9.819  11.727  66.094  1.00  0.00    -0.216 OA 
BRANCH   5   6
HETATM    6  C   UNL     1      -8.547  11.414  66.655  1.00  0.00    -0.170 C  
BRANCH   6   7
HETATM    7  C   UNL     1      -7.961  10.208  65.940  1.00  0.00    -0.134 C  
BRANCH   7   8
HETATM    8  O   UNL     1      -8.060   9.079  66.805  1.00  0.00    -0.109 OA 
BRANCH   8   9
HETATM    9  C   UNL     1      -7.964   9.463  68.171  1.00  0.00    -0.091 C  
BRANCH   9  10
HETATM   10  C   UNL     1      -9.317   9.266  68.833  1.00  0.00    -0.150 C  
BRANCH  10  11
HETATM   11  O   UNL     1      -9.814  10.537  69.231  1.00  0.00    -0.213 OA 
BRANCH  11  12
HETATM   12  C   UNL     1     -10.600  11.129  68.204  1.00  0.00    -0.193 C  
BRANCH  12  13
HETATM   13  C   UNL     1      -9.703  12.017  67.359  1.00  0.00    -0.182 C  
BRANCH  13  14
HETATM   14  O   UNL     1      -8.783  12.696  68.202  1.00  0.00    -0.180 OA 
BRANCH  14  15
HETATM   15  C   UNL     1      -8.851  12.181  69.526  1.00  0.00     1.477 C  
BRANCH  15  16
HETATM   16  C   UNL     1      -7.555  12.466  70.265  1.00  0.00     2.798 C  
BRANCH  16  17
HETATM   17  O   UNL     1      -7.784  13.581  71.116  1.00  0.00     3.537 OA 
BRANCH  17  18
HETATM   18  C   UNL     1      -8.605  14.565  70.509  1.00  0.00     2.141 C  
BRANCH  18  19
HETATM   19  C   UNL     1      -8.190  14.680  69.054  1.00  0.00    -0.110 C  
BRANCH  19  20
HETATM   20  O   UNL     1      -7.093  13.814  68.798  1.00  0.00    -0.099 OA 
BRANCH  20  21
HETATM   21  C   UNL     1      -7.031  12.741  69.735  1.00  0.00     0.395 C  
BRANCH  21  22
HETATM   22  C   UNL     1      -6.877  13.271  71.165  1.00  0.00     2.538 C  
BRANCH  22  23
HETATM   23  O   UNL     1      -6.558  12.278  72.173  1.00  0.00     3.270 OA 
BRANCH  23  24
HETATM   24  C   UNL     1      -7.690  11.499  72.632  1.00  0.00    14.767 C  
HETATM   25  C   UNL     1      -8.888  11.759  71.763  1.00  0.00    15.811 C  
HETATM   26  C   UNL     1      -9.046  10.739  70.493  1.00  0.00     2.194 C  
HETATM   27  C   UNL     1      -8.910   9.114  70.728  1.00  0.00    -0.239 C  
HETATM   28  C   UNL     1      -9.989   7.843  70.725  1.00  0.00    -0.184 C  
HETATM   29  O   UNL     1      -7.753   8.748  69.964  1.00  0.00    -0.073 OA 
HETATM   30  C   UNL     1      -9.441   6.423  70.893  1.00  0.00    -0.185 C  
HETATM   31  H   UNL     1      -7.675   7.810  70.100  1.00  0.00     0.000 HD 
HETATM   32  C   UNL     1      -8.547   6.519  72.105  1.00  0.00    -0.123 A  
HETATM   33  C   UNL     1      -7.813   5.441  72.562  1.00  0.00    -0.103 A  
HETATM   34  C   UNL     1      -6.758   5.616  73.445  1.00  0.00    -0.078 A  
HETATM   35  C   UNL     1      -6.391   6.921  73.878  1.00  0.00    -0.067 A  
HETATM   36  O   UNL     1      -5.217   7.103  74.540  1.00  0.00    -0.056 OA 
HETATM   37  C   UNL     1      -7.199   7.998  73.521  1.00  0.00    -0.131 A  
HETATM   38  H   UNL     1      -4.972   7.974  74.829  1.00  0.00     0.000 HD 
HETATM   39  C   UNL     1      -8.308   7.829  72.680  1.00  0.00    -0.177 A  
HETATM   40  C   UNL     1      -8.837   9.155  72.204  1.00  0.00     0.464 C  
HETATM   41  C   UNL     1      -7.509   9.966  72.579  1.00  0.00     2.888 C  
HETATM   42  C   UNL     1     -10.571   9.600  72.431  1.00  0.00     1.877 C  
HETATM   43  O   UNL     1      -6.930   9.337  73.755  1.00  0.00    -0.173 OA 
HETATM   44  C   UNL     1     -11.643   9.278  71.023  1.00  0.00    -0.313 C  
HETATM   45  N   UNL     1     -11.260   8.145  70.148  1.00  0.00    -0.192 NA 
BRANCH  45  46
HETATM   46  C   UNL     1     -11.068   8.291  68.716  1.00  0.00     0.337 C  
BRANCH  46  47
HETATM   47  C   UNL     1     -10.106   7.324  68.109  1.00  0.00    -0.201 C  
HETATM   48  C   UNL     1      -9.707   7.392  66.835  1.00  0.00    -0.265 C  
ENDBRANCH  46  47
ENDBRANCH  45  46
ENDBRANCH  23  24
ENDBRANCH  22  23
ENDBRANCH  21  22
ENDBRANCH  20  21
ENDBRANCH  19  20
ENDBRANCH  18  19
ENDBRANCH  17  18
ENDBRANCH  16  17
ENDBRANCH  15  16
ENDBRANCH  14  15
ENDBRANCH  13  14
ENDBRANCH  12  13
ENDBRANCH  11  12
ENDBRANCH  10  11
ENDBRANCH   9  10
ENDBRANCH   8   9
ENDBRANCH   7   8
ENDBRANCH   6   7
ENDBRANCH   5   6
ENDBRANCH   4   5
ENDBRANCH   3   4
ENDBRANCH   2   3
TORSDOF 24
ENDMDL
