MODEL        1
REMARK 921   NORMALIZED FREE ENERGY PREDICTED BY IDOCK:   -6.68 KCAL/MOL
REMARK 922        TOTAL FREE ENERGY PREDICTED BY IDOCK:   -7.75 KCAL/MOL
REMARK 923 INTER-LIGAND FREE ENERGY PREDICTED BY IDOCK:   -7.46 KCAL/MOL
REMARK 924 INTRA-LIGAND FREE ENERGY PREDICTED BY IDOCK:   -0.29 KCAL/MOL
REMARK 927      BINDING AFFINITY PREDICTED BY RF-SCORE:    0.00 PKD
ROOT
HETATM    1  C   UNL     1     -10.759  12.949  68.517  1.00  0.00    -0.275 C  
ENDROOT
BRANCH   1   2
HETATM    2  C   UNL     1     -11.540  13.059  67.230  1.00  0.00    -0.356 C  
HETATM    3  N   UNL     1     -11.791  11.984  66.407  1.00  0.00    -0.593 NA 
HETATM    4  C   UNL     1     -12.233  12.518  65.140  1.00  0.00    -0.448 C  
HETATM    5  N   UNL     1     -12.040  14.211  66.848  1.00  0.00    -0.446 NA 
HETATM    6  C   UNL     1     -12.761  13.885  65.583  1.00  0.00    -0.495 C  
ENDBRANCH   1   2
BRANCH   1   7
HETATM    7  C   UNL     1     -11.556  12.439  69.702  1.00  0.00    -0.330 A  
HETATM    8  C   UNL     1     -11.550  11.053  69.945  1.00  0.00    -0.416 A  
HETATM    9  C   UNL     1     -13.074  11.337  71.786  1.00  0.00    -0.527 A  
HETATM   10  C   UNL     1     -13.074  12.725  71.599  1.00  0.00    -0.428 A  
HETATM   11  C   UNL     1     -12.307  10.506  70.975  1.00  0.00    -0.503 A  
HETATM   12  C   UNL     1     -13.837  13.548  72.445  1.00  0.00    -0.687 A  
HETATM   13  C   UNL     1     -13.841  14.931  72.288  1.00  0.00    -0.588 A  
HETATM   14  C   UNL     1     -13.081  15.512  71.283  1.00  0.00    -0.581 A  
HETATM   15  C   UNL     1     -12.324  14.709  70.426  1.00  0.00    -0.399 A  
HETATM   16  C   UNL     1     -12.300  13.301  70.556  1.00  0.00    -0.389 A  
ENDBRANCH   1   7
TORSDOF 2
ENDMDL
MODEL        2
REMARK 921   NORMALIZED FREE ENERGY PREDICTED BY IDOCK:   -6.21 KCAL/MOL
REMARK 922        TOTAL FREE ENERGY PREDICTED BY IDOCK:   -7.23 KCAL/MOL
REMARK 923 INTER-LIGAND FREE ENERGY PREDICTED BY IDOCK:   -6.96 KCAL/MOL
REMARK 924 INTRA-LIGAND FREE ENERGY PREDICTED BY IDOCK:   -0.26 KCAL/MOL
REMARK 927      BINDING AFFINITY PREDICTED BY RF-SCORE:    0.00 PKD
ROOT
HETATM    1  C   UNL     1     -10.693  13.028  68.435  1.00  0.00    -0.273 C  
ENDROOT
BRANCH   1   2
HETATM    2  C   UNL     1     -11.407  13.187  67.115  1.00  0.00    -0.316 C  
HETATM    3  N   UNL     1     -11.783  14.409  66.604  1.00  0.00    -0.385 NA 
HETATM    4  C   UNL     1     -12.727  14.149  65.542  1.00  0.00    -0.443 C  
HETATM    5  N   UNL     1     -11.685  12.139  66.375  1.00  0.00    -0.560 NA 
HETATM    6  C   UNL     1     -12.333  12.720  65.163  1.00  0.00    -0.496 C  
ENDBRANCH   1   2
BRANCH   1   7
HETATM    7  C   UNL     1     -11.543  12.457  69.553  1.00  0.00    -0.353 A  
HETATM    8  C   UNL     1     -11.532  11.061  69.734  1.00  0.00    -0.387 A  
HETATM    9  C   UNL     1     -13.152  11.246  71.504  1.00  0.00    -0.459 A  
HETATM   10  C   UNL     1     -13.160  12.641  71.379  1.00  0.00    -0.308 A  
HETATM   11  C   UNL     1     -12.333  10.460  70.697  1.00  0.00    -0.438 A  
HETATM   12  C   UNL     1     -13.976  13.416  72.220  1.00  0.00    -0.605 A  
HETATM   13  C   UNL     1     -13.990  14.805  72.126  1.00  0.00    -0.590 A  
HETATM   14  C   UNL     1     -13.186  15.439  71.188  1.00  0.00    -0.583 A  
HETATM   15  C   UNL     1     -12.376  14.683  70.336  1.00  0.00    -0.399 A  
HETATM   16  C   UNL     1     -12.341  13.271  70.404  1.00  0.00    -0.365 A  
ENDBRANCH   1   7
TORSDOF 2
ENDMDL
MODEL        3
REMARK 921   NORMALIZED FREE ENERGY PREDICTED BY IDOCK:   -6.13 KCAL/MOL
REMARK 922        TOTAL FREE ENERGY PREDICTED BY IDOCK:   -7.14 KCAL/MOL
REMARK 923 INTER-LIGAND FREE ENERGY PREDICTED BY IDOCK:   -6.83 KCAL/MOL
REMARK 924 INTRA-LIGAND FREE ENERGY PREDICTED BY IDOCK:   -0.31 KCAL/MOL
REMARK 927      BINDING AFFINITY PREDICTED BY RF-SCORE:    0.00 PKD
ROOT
HETATM    1  C   UNL     1     -10.928  13.369  68.590  1.00  0.00    -0.288 C  
ENDROOT
BRANCH   1   2
HETATM    2  C   UNL     1     -11.609  13.361  67.242  1.00  0.00    -0.360 C  
HETATM    3  N   UNL     1     -11.951  12.204  66.579  1.00  0.00    -0.631 NA 
HETATM    4  C   UNL     1     -12.242  12.572  65.213  1.00  0.00    -0.433 C  
HETATM    5  N   UNL     1     -11.929  14.486  66.648  1.00  0.00    -0.376 NA 
HETATM    6  C   UNL     1     -12.609  14.047  65.395  1.00  0.00    -0.505 C  
ENDBRANCH   1   2
BRANCH   1   7
HETATM    7  C   UNL     1     -11.861  13.214  69.775  1.00  0.00    -0.386 A  
HETATM    8  C   UNL     1     -12.491  14.373  70.265  1.00  0.00    -0.413 A  
HETATM    9  C   UNL     1     -13.523  13.104  72.031  1.00  0.00    -0.598 A  
HETATM   10  C   UNL     1     -12.944  11.923  71.548  1.00  0.00    -0.427 A  
HETATM   11  C   UNL     1     -13.311  14.319  71.387  1.00  0.00    -0.411 A  
HETATM   12  C   UNL     1     -13.191  10.702  72.199  1.00  0.00    -0.379 A  
HETATM   13  C   UNL     1     -12.640   9.514  71.729  1.00  0.00    -0.490 A  
HETATM   14  C   UNL     1     -11.833   9.529  70.600  1.00  0.00    -0.301 A  
HETATM   15  C   UNL     1     -11.568  10.735  69.945  1.00  0.00    -0.410 A  
HETATM   16  C   UNL     1     -12.110  11.960  70.398  1.00  0.00    -0.421 A  
ENDBRANCH   1   7
TORSDOF 2
ENDMDL
MODEL        4
REMARK 921   NORMALIZED FREE ENERGY PREDICTED BY IDOCK:   -6.09 KCAL/MOL
REMARK 922        TOTAL FREE ENERGY PREDICTED BY IDOCK:   -7.10 KCAL/MOL
REMARK 923 INTER-LIGAND FREE ENERGY PREDICTED BY IDOCK:   -6.78 KCAL/MOL
REMARK 924 INTRA-LIGAND FREE ENERGY PREDICTED BY IDOCK:   -0.31 KCAL/MOL
REMARK 927      BINDING AFFINITY PREDICTED BY RF-SCORE:    0.00 PKD
ROOT
HETATM    1  C   UNL     1     -10.724  13.573  68.059  1.00  0.00    -0.263 C  
ENDROOT
BRANCH   1   2
HETATM    2  C   UNL     1     -11.439  13.561  66.730  1.00  0.00    -0.346 C  
HETATM    3  N   UNL     1     -12.161  12.481  66.274  1.00  0.00    -0.605 NA 
HETATM    4  C   UNL     1     -12.389  12.692  64.864  1.00  0.00    -0.498 C  
HETATM    5  N   UNL     1     -11.417  14.615  65.949  1.00  0.00    -0.346 NA 
HETATM    6  C   UNL     1     -12.262  14.216  64.786  1.00  0.00    -0.440 C  
ENDBRANCH   1   2
BRANCH   1   7
HETATM    7  C   UNL     1     -11.616  13.831  69.259  1.00  0.00    -0.362 A  
HETATM    8  C   UNL     1     -11.944  15.167  69.553  1.00  0.00    -0.351 A  
HETATM    9  C   UNL     1     -13.160  14.470  71.510  1.00  0.00    -0.413 A  
HETATM   10  C   UNL     1     -12.886  13.126  71.227  1.00  0.00    -0.384 A  
HETATM   11  C   UNL     1     -12.706  15.484  70.672  1.00  0.00    -0.487 A  
HETATM   12  C   UNL     1     -13.375  12.116  72.073  1.00  0.00    -0.470 A  
HETATM   13  C   UNL     1     -13.129  10.772  71.804  1.00  0.00    -0.573 A  
HETATM   14  C   UNL     1     -12.389  10.419  70.684  1.00  0.00    -0.438 A  
HETATM   15  C   UNL     1     -11.886  11.411  69.837  1.00  0.00    -0.435 A  
HETATM   16  C   UNL     1     -12.116  12.784  70.083  1.00  0.00    -0.370 A  
ENDBRANCH   1   7
TORSDOF 2
ENDMDL
MODEL        5
REMARK 921   NORMALIZED FREE ENERGY PREDICTED BY IDOCK:   -6.08 KCAL/MOL
REMARK 922        TOTAL FREE ENERGY PREDICTED BY IDOCK:   -7.08 KCAL/MOL
REMARK 923 INTER-LIGAND FREE ENERGY PREDICTED BY IDOCK:   -6.92 KCAL/MOL
REMARK 924 INTRA-LIGAND FREE ENERGY PREDICTED BY IDOCK:   -0.16 KCAL/MOL
REMARK 927      BINDING AFFINITY PREDICTED BY RF-SCORE:    0.00 PKD
ROOT
HETATM    1  C   UNL     1     -11.780  14.500  67.709  1.00  0.00    -0.403 C  
ENDROOT
BRANCH   1   2
HETATM    2  C   UNL     1     -11.741  13.926  66.314  1.00  0.00    -0.383 C  
HETATM    3  N   UNL     1     -12.874  13.613  65.597  1.00  0.00    -0.545 NA 
HETATM    4  C   UNL     1     -12.457  12.781  64.492  1.00  0.00    -0.428 C  
HETATM    5  N   UNL     1     -10.596  13.719  65.707  1.00  0.00    -0.286 NA 
HETATM    6  C   UNL     1     -10.991  13.203  64.364  1.00  0.00    -0.390 C  
ENDBRANCH   1   2
BRANCH   1   7
HETATM    7  C   UNL     1     -12.024  13.483  68.808  1.00  0.00    -0.374 A  
HETATM    8  C   UNL     1     -11.749  12.133  68.520  1.00  0.00    -0.382 A  
HETATM    9  C   UNL     1     -12.534  11.477  70.699  1.00  0.00    -0.405 A  
HETATM   10  C   UNL     1     -12.783  12.814  71.035  1.00  0.00    -0.331 A  
HETATM   11  C   UNL     1     -12.007  11.138  69.456  1.00  0.00    -0.425 A  
HETATM   12  C   UNL     1     -13.292  13.136  72.305  1.00  0.00    -0.621 A  
HETATM   13  C   UNL     1     -13.533  14.459  72.667  1.00  0.00    -0.605 A  
HETATM   14  C   UNL     1     -13.268  15.479  71.763  1.00  0.00    -0.567 A  
HETATM   15  C   UNL     1     -12.771  15.176  70.493  1.00  0.00    -0.416 A  
HETATM   16  C   UNL     1     -12.518  13.844  70.093  1.00  0.00    -0.355 A  
ENDBRANCH   1   7
TORSDOF 2
ENDMDL
MODEL        6
REMARK 921   NORMALIZED FREE ENERGY PREDICTED BY IDOCK:   -5.96 KCAL/MOL
REMARK 922        TOTAL FREE ENERGY PREDICTED BY IDOCK:   -6.94 KCAL/MOL
REMARK 923 INTER-LIGAND FREE ENERGY PREDICTED BY IDOCK:   -6.82 KCAL/MOL
REMARK 924 INTRA-LIGAND FREE ENERGY PREDICTED BY IDOCK:   -0.12 KCAL/MOL
REMARK 927      BINDING AFFINITY PREDICTED BY RF-SCORE:    0.00 PKD
ROOT
HETATM    1  C   UNL     1     -13.157  10.289  71.948  1.00  0.00    -0.568 C  
ENDROOT
BRANCH   1   2
HETATM    2  C   UNL     1     -12.444   8.962  71.853  1.00  0.00    -0.378 C  
HETATM    3  N   UNL     1     -11.128   8.787  72.221  1.00  0.00    -0.333 NA 
HETATM    4  C   UNL     1     -10.702   7.521  71.670  1.00  0.00    -0.214 C  
HETATM    5  N   UNL     1     -13.074   7.893  71.426  1.00  0.00    -0.291 NA 
HETATM    6  C   UNL     1     -12.051   6.811  71.528  1.00  0.00    -0.363 C  
ENDBRANCH   1   2
BRANCH   1   7
HETATM    7  C   UNL     1     -12.650  11.353  70.995  1.00  0.00    -0.487 A  
HETATM    8  C   UNL     1     -11.949  10.925  69.852  1.00  0.00    -0.430 A  
HETATM    9  C   UNL     1     -11.552  13.208  69.201  1.00  0.00    -0.368 A  
HETATM   10  C   UNL     1     -12.277  13.671  70.307  1.00  0.00    -0.423 A  
HETATM   11  C   UNL     1     -11.400  11.845  68.966  1.00  0.00    -0.337 A  
HETATM   12  C   UNL     1     -12.439  15.052  70.513  1.00  0.00    -0.425 A  
HETATM   13  C   UNL     1     -13.168  15.535  71.596  1.00  0.00    -0.575 A  
HETATM   14  C   UNL     1     -13.746  14.644  72.489  1.00  0.00    -0.572 A  
HETATM   15  C   UNL     1     -13.587  13.268  72.306  1.00  0.00    -0.703 A  
HETATM   16  C   UNL     1     -12.851  12.744  71.218  1.00  0.00    -0.355 A  
ENDBRANCH   1   7
TORSDOF 2
ENDMDL
MODEL        7
REMARK 921   NORMALIZED FREE ENERGY PREDICTED BY IDOCK:   -5.80 KCAL/MOL
REMARK 922        TOTAL FREE ENERGY PREDICTED BY IDOCK:   -6.77 KCAL/MOL
REMARK 923 INTER-LIGAND FREE ENERGY PREDICTED BY IDOCK:   -6.61 KCAL/MOL
REMARK 924 INTRA-LIGAND FREE ENERGY PREDICTED BY IDOCK:   -0.15 KCAL/MOL
REMARK 927      BINDING AFFINITY PREDICTED BY RF-SCORE:    0.00 PKD
ROOT
HETATM    1  C   UNL     1     -11.709  15.410  69.839  1.00  0.00    -0.357 C  
ENDROOT
BRANCH   1   2
HETATM    2  C   UNL     1     -12.412  15.485  71.173  1.00  0.00    -0.432 C  
HETATM    3  N   UNL     1     -11.744  15.578  72.373  1.00  0.00    -0.447 NA 
HETATM    4  C   UNL     1     -12.699  15.274  73.412  1.00  0.00    -0.537 C  
HETATM    5  N   UNL     1     -13.723  15.488  71.238  1.00  0.00    -0.559 NA 
HETATM    6  C   UNL     1     -14.008  15.619  72.697  1.00  0.00    -0.525 C  
ENDBRANCH   1   2
BRANCH   1   7
HETATM    7  C   UNL     1     -11.745  14.045  69.178  1.00  0.00    -0.375 A  
HETATM    8  C   UNL     1     -11.912  12.922  70.009  1.00  0.00    -0.380 A  
HETATM    9  C   UNL     1     -11.715  11.451  68.114  1.00  0.00    -0.355 A  
HETATM   10  C   UNL     1     -11.584  12.547  67.251  1.00  0.00    -0.434 A  
HETATM   11  C   UNL     1     -11.892  11.636  69.482  1.00  0.00    -0.414 A  
HETATM   12  C   UNL     1     -11.430  12.339  65.870  1.00  0.00    -0.428 A  
HETATM   13  C   UNL     1     -11.314  13.413  64.991  1.00  0.00    -0.330 A  
HETATM   14  C   UNL     1     -11.350  14.711  65.482  1.00  0.00    -0.341 A  
HETATM   15  C   UNL     1     -11.492  14.936  66.853  1.00  0.00    -0.318 A  
HETATM   16  C   UNL     1     -11.610  13.868  67.773  1.00  0.00    -0.381 A  
ENDBRANCH   1   7
TORSDOF 2
ENDMDL
MODEL        8
REMARK 921   NORMALIZED FREE ENERGY PREDICTED BY IDOCK:   -5.73 KCAL/MOL
REMARK 922        TOTAL FREE ENERGY PREDICTED BY IDOCK:   -6.69 KCAL/MOL
REMARK 923 INTER-LIGAND FREE ENERGY PREDICTED BY IDOCK:   -6.60 KCAL/MOL
REMARK 924 INTRA-LIGAND FREE ENERGY PREDICTED BY IDOCK:   -0.08 KCAL/MOL
REMARK 927      BINDING AFFINITY PREDICTED BY RF-SCORE:    0.00 PKD
ROOT
HETATM    1  C   UNL     1     -11.699  12.533  67.161  1.00  0.00    -0.425 C  
ENDROOT
BRANCH   1   2
HETATM    2  C   UNL     1     -11.692  12.416  65.656  1.00  0.00    -0.414 C  
HETATM    3  N   UNL     1     -12.810  12.620  64.880  1.00  0.00    -0.842 NA 
HETATM    4  C   UNL     1     -12.517  12.086  63.571  1.00  0.00    -0.540 C  
HETATM    5  N   UNL     1     -10.584  12.130  65.014  1.00  0.00    -0.280 NA 
HETATM    6  C   UNL     1     -10.988  12.156  63.577  1.00  0.00    -0.453 C  
ENDBRANCH   1   2
BRANCH   1   7
HETATM    7  C   UNL     1     -11.468  13.935  67.692  1.00  0.00    -0.354 A  
HETATM    8  C   UNL     1     -10.979  14.900  66.792  1.00  0.00    -0.326 A  
HETATM    9  C   UNL     1     -10.883  16.538  68.553  1.00  0.00    -0.349 A  
HETATM   10  C   UNL     1     -11.406  15.615  69.468  1.00  0.00    -0.329 A  
HETATM   11  C   UNL     1     -10.684  16.189  67.220  1.00  0.00    -0.277 A  
HETATM   12  C   UNL     1     -11.622  15.995  70.804  1.00  0.00    -0.431 A  
HETATM   13  C   UNL     1     -12.155  15.100  71.728  1.00  0.00    -0.437 A  
HETATM   14  C   UNL     1     -12.479  13.811  71.329  1.00  0.00    -0.428 A  
HETATM   15  C   UNL     1     -12.261  13.413  70.007  1.00  0.00    -0.367 A  
HETATM   16  C   UNL     1     -11.720  14.296  69.045  1.00  0.00    -0.352 A  
ENDBRANCH   1   7
TORSDOF 2
ENDMDL
MODEL        9
REMARK 921   NORMALIZED FREE ENERGY PREDICTED BY IDOCK:   -5.70 KCAL/MOL
REMARK 922        TOTAL FREE ENERGY PREDICTED BY IDOCK:   -6.65 KCAL/MOL
REMARK 923 INTER-LIGAND FREE ENERGY PREDICTED BY IDOCK:   -6.55 KCAL/MOL
REMARK 924 INTRA-LIGAND FREE ENERGY PREDICTED BY IDOCK:   -0.10 KCAL/MOL
REMARK 927      BINDING AFFINITY PREDICTED BY RF-SCORE:    0.00 PKD
ROOT
HETATM    1  C   UNL     1     -10.888  15.946  64.898  1.00  0.00    -0.420 C  
ENDROOT
BRANCH   1   2
HETATM    2  C   UNL     1     -11.323  14.526  64.633  1.00  0.00    -0.370 C  
HETATM    3  N   UNL     1     -12.643  14.136  64.603  1.00  0.00    -0.667 NA 
HETATM    4  C   UNL     1     -12.659  12.694  64.680  1.00  0.00    -0.440 C  
HETATM    5  N   UNL     1     -10.437  13.589  64.392  1.00  0.00    -0.417 NA 
HETATM    6  C   UNL     1     -11.263  12.372  64.141  1.00  0.00    -0.376 C  
ENDBRANCH   1   2
BRANCH   1   7
HETATM    7  C   UNL     1     -10.628  16.269  66.357  1.00  0.00    -0.253 A  
HETATM    8  C   UNL     1     -10.645  15.202  67.275  1.00  0.00    -0.286 A  
HETATM    9  C   UNL     1     -10.278  16.726  69.101  1.00  0.00    -0.306 A  
HETATM   10  C   UNL     1     -10.216  17.808  68.213  1.00  0.00    -0.382 A  
HETATM   11  C   UNL     1     -10.477  15.429  68.636  1.00  0.00    -0.237 A  
HETATM   12  C   UNL     1      -9.990  19.106  68.703  1.00  0.00    -0.486 A  
HETATM   13  C   UNL     1      -9.908  20.194  67.839  1.00  0.00    -0.525 A  
HETATM   14  C   UNL     1     -10.052  20.000  66.472  1.00  0.00    -0.606 A  
HETATM   15  C   UNL     1     -10.287  18.718  65.969  1.00  0.00    -0.467 A  
HETATM   16  C   UNL     1     -10.378  17.592  66.819  1.00  0.00    -0.314 A  
ENDBRANCH   1   7
TORSDOF 2
ENDMDL
MODEL       10
REMARK 921   NORMALIZED FREE ENERGY PREDICTED BY IDOCK:   -5.61 KCAL/MOL
REMARK 922        TOTAL FREE ENERGY PREDICTED BY IDOCK:   -6.55 KCAL/MOL
REMARK 923 INTER-LIGAND FREE ENERGY PREDICTED BY IDOCK:   -6.42 KCAL/MOL
REMARK 924 INTRA-LIGAND FREE ENERGY PREDICTED BY IDOCK:   -0.13 KCAL/MOL
REMARK 927      BINDING AFFINITY PREDICTED BY RF-SCORE:    0.00 PKD
ROOT
HETATM    1  C   UNL     1     -10.985  11.909  67.234  1.00  0.00    -0.319 C  
ENDROOT
BRANCH   1   2
HETATM    2  C   UNL     1     -11.229  12.172  65.768  1.00  0.00    -0.339 C  
HETATM    3  N   UNL     1     -12.460  12.524  65.261  1.00  0.00    -0.647 NA 
HETATM    4  C   UNL     1     -12.393  12.345  63.830  1.00  0.00    -0.528 C  
HETATM    5  N   UNL     1     -10.247  12.096  64.902  1.00  0.00    -0.276 NA 
HETATM    6  C   UNL     1     -10.884  12.466  63.605  1.00  0.00    -0.462 C  
ENDBRANCH   1   2
BRANCH   1   7
HETATM    7  C   UNL     1     -11.396  13.037  68.160  1.00  0.00    -0.329 A  
HETATM    8  C   UNL     1     -11.181  14.356  67.717  1.00  0.00    -0.316 A  
HETATM    9  C   UNL     1     -11.998  15.224  69.808  1.00  0.00    -0.374 A  
HETATM   10  C   UNL     1     -12.262  13.928  70.267  1.00  0.00    -0.428 A  
HETATM   11  C   UNL     1     -11.475  15.440  68.536  1.00  0.00    -0.360 A  
HETATM   12  C   UNL     1     -12.813  13.734  71.546  1.00  0.00    -0.445 A  
HETATM   13  C   UNL     1     -13.098  12.456  72.018  1.00  0.00    -0.470 A  
HETATM   14  C   UNL     1     -12.836  11.352  71.218  1.00  0.00    -0.481 A  
HETATM   15  C   UNL     1     -12.278  11.525  69.949  1.00  0.00    -0.328 A  
HETATM   16  C   UNL     1     -11.974  12.809  69.440  1.00  0.00    -0.321 A  
ENDBRANCH   1   7
TORSDOF 2
ENDMDL
MODEL       11
REMARK 921   NORMALIZED FREE ENERGY PREDICTED BY IDOCK:   -5.48 KCAL/MOL
REMARK 922        TOTAL FREE ENERGY PREDICTED BY IDOCK:   -6.41 KCAL/MOL
REMARK 923 INTER-LIGAND FREE ENERGY PREDICTED BY IDOCK:   -6.08 KCAL/MOL
REMARK 924 INTRA-LIGAND FREE ENERGY PREDICTED BY IDOCK:   -0.32 KCAL/MOL
REMARK 927      BINDING AFFINITY PREDICTED BY RF-SCORE:    0.00 PKD
ROOT
HETATM    1  C   UNL     1     -11.727  14.635  67.846  1.00  0.00    -0.379 C  
ENDROOT
BRANCH   1   2
HETATM    2  C   UNL     1     -10.304  15.121  67.714  1.00  0.00    -0.243 C  
HETATM    3  N   UNL     1      -9.603  15.690  68.753  1.00  0.00    -0.204 NA 
HETATM    4  C   UNL     1      -8.447  16.338  68.177  1.00  0.00    -0.174 C  
HETATM    5  N   UNL     1      -9.658  14.997  66.578  1.00  0.00    -0.260 NA 
HETATM    6  C   UNL     1      -8.302  15.543  66.877  1.00  0.00    -0.255 C  
ENDBRANCH   1   2
BRANCH   1   7
HETATM    7  C   UNL     1     -11.954  13.632  68.961  1.00  0.00    -0.392 A  
HETATM    8  C   UNL     1     -11.617  12.289  68.709  1.00  0.00    -0.380 A  
HETATM    9  C   UNL     1     -12.425  11.646  70.883  1.00  0.00    -0.440 A  
HETATM   10  C   UNL     1     -12.738  12.978  71.184  1.00  0.00    -0.372 A  
HETATM   11  C   UNL     1     -11.855  11.304  69.660  1.00  0.00    -0.430 A  
HETATM   12  C   UNL     1     -13.291  13.305  72.434  1.00  0.00    -0.616 A  
HETATM   13  C   UNL     1     -13.595  14.623  72.761  1.00  0.00    -0.538 A  
HETATM   14  C   UNL     1     -13.351  15.634  71.842  1.00  0.00    -0.537 A  
HETATM   15  C   UNL     1     -12.812  15.326  70.591  1.00  0.00    -0.462 A  
HETATM   16  C   UNL     1     -12.494  13.998  70.226  1.00  0.00    -0.403 A  
ENDBRANCH   1   7
TORSDOF 2
ENDMDL
MODEL       12
REMARK 921   NORMALIZED FREE ENERGY PREDICTED BY IDOCK:   -5.45 KCAL/MOL
REMARK 922        TOTAL FREE ENERGY PREDICTED BY IDOCK:   -6.37 KCAL/MOL
REMARK 923 INTER-LIGAND FREE ENERGY PREDICTED BY IDOCK:   -6.06 KCAL/MOL
REMARK 924 INTRA-LIGAND FREE ENERGY PREDICTED BY IDOCK:   -0.31 KCAL/MOL
REMARK 927      BINDING AFFINITY PREDICTED BY RF-SCORE:    0.00 PKD
ROOT
HETATM    1  C   UNL     1     -10.731  12.704  68.518  1.00  0.00    -0.271 C  
ENDROOT
BRANCH   1   2
HETATM    2  C   UNL     1     -11.536  12.924  67.260  1.00  0.00    -0.360 C  
HETATM    3  N   UNL     1     -11.859  11.910  66.387  1.00  0.00    -0.547 NA 
HETATM    4  C   UNL     1     -12.305  12.535  65.163  1.00  0.00    -0.429 C  
HETATM    5  N   UNL     1     -11.989  14.117  66.956  1.00  0.00    -0.428 NA 
HETATM    6  C   UNL     1     -12.754  13.898  65.694  1.00  0.00    -0.495 C  
ENDBRANCH   1   2
BRANCH   1   7
HETATM    7  C   UNL     1     -11.517  12.141  69.686  1.00  0.00    -0.308 A  
HETATM    8  C   UNL     1     -12.258  13.045  70.470  1.00  0.00    -0.392 A  
HETATM    9  C   UNL     1     -12.928  11.265  71.946  1.00  0.00    -0.471 A  
HETATM   10  C   UNL     1     -12.233  10.331  71.167  1.00  0.00    -0.500 A  
HETATM   11  C   UNL     1     -12.953  12.612  71.593  1.00  0.00    -0.400 A  
HETATM   12  C   UNL     1     -12.241   8.972  71.527  1.00  0.00    -0.403 A  
HETATM   13  C   UNL     1     -11.571   8.023  70.761  1.00  0.00    -0.251 A  
HETATM   14  C   UNL     1     -10.883   8.418  69.621  1.00  0.00    -0.153 A  
HETATM   15  C   UNL     1     -10.857   9.766  69.254  1.00  0.00    -0.240 A  
HETATM   16  C   UNL     1     -11.524  10.756  70.012  1.00  0.00    -0.412 A  
ENDBRANCH   1   7
TORSDOF 2
ENDMDL
MODEL       13
REMARK 921   NORMALIZED FREE ENERGY PREDICTED BY IDOCK:   -5.44 KCAL/MOL
REMARK 922        TOTAL FREE ENERGY PREDICTED BY IDOCK:   -6.37 KCAL/MOL
REMARK 923 INTER-LIGAND FREE ENERGY PREDICTED BY IDOCK:   -6.05 KCAL/MOL
REMARK 924 INTRA-LIGAND FREE ENERGY PREDICTED BY IDOCK:   -0.32 KCAL/MOL
REMARK 927      BINDING AFFINITY PREDICTED BY RF-SCORE:    0.00 PKD
ROOT
HETATM    1  C   UNL     1     -11.537  15.239  68.679  1.00  0.00    -0.370 C  
ENDROOT
BRANCH   1   2
HETATM    2  C   UNL     1     -10.126  15.746  68.849  1.00  0.00    -0.222 C  
HETATM    3  N   UNL     1      -9.770  17.062  68.656  1.00  0.00    -0.271 NA 
HETATM    4  C   UNL     1      -8.330  17.098  68.557  1.00  0.00    -0.262 C  
HETATM    5  N   UNL     1      -9.164  14.934  69.219  1.00  0.00    -0.145 NA 
HETATM    6  C   UNL     1      -7.966  15.818  69.314  1.00  0.00    -0.239 C  
ENDBRANCH   1   2
BRANCH   1   7
HETATM    7  C   UNL     1     -12.194  14.745  69.954  1.00  0.00    -0.358 A  
HETATM    8  C   UNL     1     -12.736  15.710  70.824  1.00  0.00    -0.483 A  
HETATM    9  C   UNL     1     -13.335  13.994  72.402  1.00  0.00    -0.617 A  
HETATM   10  C   UNL     1     -12.841  13.003  71.544  1.00  0.00    -0.386 A  
HETATM   11  C   UNL     1     -13.297  15.337  72.040  1.00  0.00    -0.522 A  
HETATM   12  C   UNL     1     -12.912  11.650  71.919  1.00  0.00    -0.442 A  
HETATM   13  C   UNL     1     -12.442  10.647  71.077  1.00  0.00    -0.515 A  
HETATM   14  C   UNL     1     -11.893  10.982  69.846  1.00  0.00    -0.431 A  
HETATM   15  C   UNL     1     -11.805  12.323  69.462  1.00  0.00    -0.380 A  
HETATM   16  C   UNL     1     -12.271  13.366  70.295  1.00  0.00    -0.405 A  
ENDBRANCH   1   7
TORSDOF 2
ENDMDL
MODEL       14
REMARK 921   NORMALIZED FREE ENERGY PREDICTED BY IDOCK:   -5.41 KCAL/MOL
REMARK 922        TOTAL FREE ENERGY PREDICTED BY IDOCK:   -6.33 KCAL/MOL
REMARK 923 INTER-LIGAND FREE ENERGY PREDICTED BY IDOCK:   -6.04 KCAL/MOL
REMARK 924 INTRA-LIGAND FREE ENERGY PREDICTED BY IDOCK:   -0.29 KCAL/MOL
REMARK 927      BINDING AFFINITY PREDICTED BY RF-SCORE:    0.00 PKD
ROOT
HETATM    1  C   UNL     1     -12.909  10.099  70.724  1.00  0.00    -0.388 C  
ENDROOT
BRANCH   1   2
HETATM    2  C   UNL     1     -11.861   9.252  71.405  1.00  0.00    -0.358 C  
HETATM    3  N   UNL     1     -12.162   8.127  72.138  1.00  0.00    -0.336 NA 
HETATM    4  C   UNL     1     -10.986   7.800  72.910  1.00  0.00    -0.407 C  
HETATM    5  N   UNL     1     -10.588   9.553  71.301  1.00  0.00    -0.330 NA 
HETATM    6  C   UNL     1      -9.902   8.467  72.060  1.00  0.00    -0.312 C  
ENDBRANCH   1   2
BRANCH   1   7
HETATM    7  C   UNL     1     -12.785  11.589  70.976  1.00  0.00    -0.426 A  
HETATM    8  C   UNL     1     -13.332  12.096  72.170  1.00  0.00    -0.438 A  
HETATM    9  C   UNL     1     -12.735  14.338  71.528  1.00  0.00    -0.425 A  
HETATM   10  C   UNL     1     -12.146  13.865  70.348  1.00  0.00    -0.421 A  
HETATM   11  C   UNL     1     -13.311  13.459  72.441  1.00  0.00    -0.629 A  
HETATM   12  C   UNL     1     -11.548  14.767  69.451  1.00  0.00    -0.342 A  
HETATM   13  C   UNL     1     -10.943  14.320  68.280  1.00  0.00    -0.261 A  
HETATM   14  C   UNL     1     -10.928  12.963  67.988  1.00  0.00    -0.271 A  
HETATM   15  C   UNL     1     -11.527  12.053  68.863  1.00  0.00    -0.356 A  
HETATM   16  C   UNL     1     -12.152  12.474  70.059  1.00  0.00    -0.337 A  
ENDBRANCH   1   7
TORSDOF 2
ENDMDL
MODEL       15
REMARK 921   NORMALIZED FREE ENERGY PREDICTED BY IDOCK:   -5.39 KCAL/MOL
REMARK 922        TOTAL FREE ENERGY PREDICTED BY IDOCK:   -6.31 KCAL/MOL
REMARK 923 INTER-LIGAND FREE ENERGY PREDICTED BY IDOCK:   -6.16 KCAL/MOL
REMARK 924 INTRA-LIGAND FREE ENERGY PREDICTED BY IDOCK:   -0.15 KCAL/MOL
REMARK 927      BINDING AFFINITY PREDICTED BY RF-SCORE:    0.00 PKD
ROOT
HETATM    1  C   UNL     1     -10.368  15.614  70.063  1.00  0.00    -0.309 C  
ENDROOT
BRANCH   1   2
HETATM    2  C   UNL     1     -11.660  15.532  70.839  1.00  0.00    -0.375 C  
HETATM    3  N   UNL     1     -12.729  14.762  70.442  1.00  0.00    -0.339 NA 
HETATM    4  C   UNL     1     -13.872  15.201  71.208  1.00  0.00    -0.472 C  
HETATM    5  N   UNL     1     -11.807  16.192  71.964  1.00  0.00    -0.514 NA 
HETATM    6  C   UNL     1     -13.174  15.811  72.425  1.00  0.00    -0.462 C  
ENDBRANCH   1   2
BRANCH   1   7
HETATM    7  C   UNL     1     -10.534  15.881  68.579  1.00  0.00    -0.241 A  
HETATM    8  C   UNL     1     -10.792  14.779  67.743  1.00  0.00    -0.278 A  
HETATM    9  C   UNL     1     -10.751  16.203  65.802  1.00  0.00    -0.289 A  
HETATM   10  C   UNL     1     -10.533  17.329  66.607  1.00  0.00    -0.257 A  
HETATM   11  C   UNL     1     -10.894  14.938  66.365  1.00  0.00    -0.325 A  
HETATM   12  C   UNL     1     -10.416  18.600  66.019  1.00  0.00    -0.456 A  
HETATM   13  C   UNL     1     -10.214  19.735  66.800  1.00  0.00    -0.582 A  
HETATM   14  C   UNL     1     -10.127  19.615  68.180  1.00  0.00    -0.556 A  
HETATM   15  C   UNL     1     -10.232  18.358  68.780  1.00  0.00    -0.333 A  
HETATM   16  C   UNL     1     -10.434  17.185  68.017  1.00  0.00    -0.369 A  
ENDBRANCH   1   7
TORSDOF 2
ENDMDL
MODEL       16
REMARK 921   NORMALIZED FREE ENERGY PREDICTED BY IDOCK:   -5.39 KCAL/MOL
REMARK 922        TOTAL FREE ENERGY PREDICTED BY IDOCK:   -6.31 KCAL/MOL
REMARK 923 INTER-LIGAND FREE ENERGY PREDICTED BY IDOCK:   -6.03 KCAL/MOL
REMARK 924 INTRA-LIGAND FREE ENERGY PREDICTED BY IDOCK:   -0.28 KCAL/MOL
REMARK 927      BINDING AFFINITY PREDICTED BY RF-SCORE:    0.00 PKD
ROOT
HETATM    1  C   UNL     1     -12.263  11.346  69.554  1.00  0.00    -0.303 C  
ENDROOT
BRANCH   1   2
HETATM    2  C   UNL     1     -11.489  10.355  70.389  1.00  0.00    -0.337 C  
HETATM    3  N   UNL     1     -10.198   9.973  70.101  1.00  0.00    -0.265 NA 
HETATM    4  C   UNL     1      -9.927   8.786  70.878  1.00  0.00    -0.222 C  
HETATM    5  N   UNL     1     -12.025   9.823  71.462  1.00  0.00    -0.395 NA 
HETATM    6  C   UNL     1     -10.941   8.957  72.011  1.00  0.00    -0.342 C  
ENDBRANCH   1   2
BRANCH   1   7
HETATM    7  C   UNL     1     -11.798  12.784  69.680  1.00  0.00    -0.384 A  
HETATM    8  C   UNL     1     -10.841  13.244  68.757  1.00  0.00    -0.273 A  
HETATM    9  C   UNL     1     -10.759  15.382  69.860  1.00  0.00    -0.315 A  
HETATM   10  C   UNL     1     -11.740  14.972  70.772  1.00  0.00    -0.371 A  
HETATM   11  C   UNL     1     -10.322  14.530  68.850  1.00  0.00    -0.237 A  
HETATM   12  C   UNL     1     -12.185  15.856  71.770  1.00  0.00    -0.551 A  
HETATM   13  C   UNL     1     -13.170  15.477  72.678  1.00  0.00    -0.579 A  
HETATM   14  C   UNL     1     -13.724  14.206  72.602  1.00  0.00    -0.568 A  
HETATM   15  C   UNL     1     -13.286  13.311  71.623  1.00  0.00    -0.446 A  
HETATM   16  C   UNL     1     -12.286  13.663  70.687  1.00  0.00    -0.440 A  
ENDBRANCH   1   7
TORSDOF 2
ENDMDL
MODEL       17
REMARK 921   NORMALIZED FREE ENERGY PREDICTED BY IDOCK:   -5.38 KCAL/MOL
REMARK 922        TOTAL FREE ENERGY PREDICTED BY IDOCK:   -6.29 KCAL/MOL
REMARK 923 INTER-LIGAND FREE ENERGY PREDICTED BY IDOCK:   -5.97 KCAL/MOL
REMARK 924 INTRA-LIGAND FREE ENERGY PREDICTED BY IDOCK:   -0.32 KCAL/MOL
REMARK 927      BINDING AFFINITY PREDICTED BY RF-SCORE:    0.00 PKD
ROOT
HETATM    1  C   UNL     1      -9.081  16.643  66.887  1.00  0.00    -0.248 C  
ENDROOT
BRANCH   1   2
HETATM    2  C   UNL     1      -9.589  18.042  66.637  1.00  0.00    -0.315 C  
HETATM    3  N   UNL     1      -9.207  19.128  67.393  1.00  0.00    -0.295 NA 
HETATM    4  C   UNL     1     -10.139  20.192  67.103  1.00  0.00    -0.450 C  
HETATM    5  N   UNL     1     -10.418  18.286  65.650  1.00  0.00    -0.623 NA 
HETATM    6  C   UNL     1     -10.630  19.762  65.719  1.00  0.00    -0.419 C  
ENDBRANCH   1   2
BRANCH   1   7
HETATM    7  C   UNL     1     -10.142  15.651  67.324  1.00  0.00    -0.255 A  
HETATM    8  C   UNL     1     -10.662  15.783  68.625  1.00  0.00    -0.263 A  
HETATM    9  C   UNL     1     -12.023  13.822  68.314  1.00  0.00    -0.392 A  
HETATM   10  C   UNL     1     -11.557  13.682  67.000  1.00  0.00    -0.389 A  
HETATM   11  C   UNL     1     -11.590  14.873  69.118  1.00  0.00    -0.331 A  
HETATM   12  C   UNL     1     -12.026  12.628  66.197  1.00  0.00    -0.458 A  
HETATM   13  C   UNL     1     -11.589  12.477  64.884  1.00  0.00    -0.386 A  
HETATM   14  C   UNL     1     -10.677  13.380  64.354  1.00  0.00    -0.423 A  
HETATM   15  C   UNL     1     -10.193  14.428  65.141  1.00  0.00    -0.420 A  
HETATM   16  C   UNL     1     -10.613  14.608  66.479  1.00  0.00    -0.300 A  
ENDBRANCH   1   7
TORSDOF 2
ENDMDL
MODEL       18
REMARK 921   NORMALIZED FREE ENERGY PREDICTED BY IDOCK:   -5.34 KCAL/MOL
REMARK 922        TOTAL FREE ENERGY PREDICTED BY IDOCK:   -6.25 KCAL/MOL
REMARK 923 INTER-LIGAND FREE ENERGY PREDICTED BY IDOCK:   -6.04 KCAL/MOL
REMARK 924 INTRA-LIGAND FREE ENERGY PREDICTED BY IDOCK:   -0.21 KCAL/MOL
REMARK 927      BINDING AFFINITY PREDICTED BY RF-SCORE:    0.00 PKD
ROOT
HETATM    1  C   UNL     1     -11.761  12.522  68.254  1.00  0.00    -0.390 C  
ENDROOT
BRANCH   1   2
HETATM    2  C   UNL     1     -11.541  13.745  69.112  1.00  0.00    -0.317 C  
HETATM    3  N   UNL     1     -12.447  14.175  70.054  1.00  0.00    -0.335 NA 
HETATM    4  C   UNL     1     -12.078  15.526  70.407  1.00  0.00    -0.392 C  
HETATM    5  N   UNL     1     -10.439  14.448  69.003  1.00  0.00    -0.239 NA 
HETATM    6  C   UNL     1     -10.593  15.516  70.034  1.00  0.00    -0.324 C  
ENDBRANCH   1   2
BRANCH   1   7
HETATM    7  C   UNL     1     -11.742  12.783  66.760  1.00  0.00    -0.459 A  
HETATM    8  C   UNL     1     -12.446  13.905  66.285  1.00  0.00    -0.454 A  
HETATM    9  C   UNL     1     -11.896  13.327  64.013  1.00  0.00    -0.512 A  
HETATM   10  C   UNL     1     -11.154  12.223  64.452  1.00  0.00    -0.381 A  
HETATM   11  C   UNL     1     -12.526  14.172  64.923  1.00  0.00    -0.419 A  
HETATM   12  C   UNL     1     -10.505  11.397  63.519  1.00  0.00    -0.477 A  
HETATM   13  C   UNL     1      -9.750  10.303  63.932  1.00  0.00    -0.325 A  
HETATM   14  C   UNL     1      -9.632  10.019  65.285  1.00  0.00    -0.355 A  
HETATM   15  C   UNL     1     -10.279  10.824  66.227  1.00  0.00    -0.301 A  
HETATM   16  C   UNL     1     -11.056  11.940  65.841  1.00  0.00    -0.365 A  
ENDBRANCH   1   7
TORSDOF 2
ENDMDL
MODEL       19
REMARK 921   NORMALIZED FREE ENERGY PREDICTED BY IDOCK:   -5.31 KCAL/MOL
REMARK 922        TOTAL FREE ENERGY PREDICTED BY IDOCK:   -6.22 KCAL/MOL
REMARK 923 INTER-LIGAND FREE ENERGY PREDICTED BY IDOCK:   -5.92 KCAL/MOL
REMARK 924 INTRA-LIGAND FREE ENERGY PREDICTED BY IDOCK:   -0.30 KCAL/MOL
REMARK 927      BINDING AFFINITY PREDICTED BY RF-SCORE:    0.00 PKD
ROOT
HETATM    1  C   UNL     1     -13.396  14.041  70.814  1.00  0.00    -0.086 C  
ENDROOT
BRANCH   1   2
HETATM    2  C   UNL     1     -12.839  14.904  71.920  1.00  0.00    -0.328 C  
HETATM    3  N   UNL     1     -12.800  14.506  73.238  1.00  0.00    -0.478 NA 
HETATM    4  C   UNL     1     -12.546  15.689  74.026  1.00  0.00    -0.628 C  
HETATM    5  N   UNL     1     -12.338  16.087  71.656  1.00  0.00    -0.457 NA 
HETATM    6  C   UNL     1     -11.865  16.578  72.984  1.00  0.00    -0.308 C  
ENDBRANCH   1   2
BRANCH   1   7
HETATM    7  C   UNL     1     -12.387  13.115  70.160  1.00  0.00    -0.284 A  
HETATM    8  C   UNL     1     -11.618  13.633  69.102  1.00  0.00    -0.356 A  
HETATM    9  C   UNL     1     -10.565  11.492  68.779  1.00  0.00    -0.241 A  
HETATM   10  C   UNL     1     -11.286  10.953  69.853  1.00  0.00    -0.355 A  
HETATM   11  C   UNL     1     -10.718  12.827  68.414  1.00  0.00    -0.269 A  
HETATM   12  C   UNL     1     -11.098   9.610  70.221  1.00  0.00    -0.327 A  
HETATM   13  C   UNL     1     -11.791   9.056  71.294  1.00  0.00    -0.379 A  
HETATM   14  C   UNL     1     -12.682   9.839  72.015  1.00  0.00    -0.463 A  
HETATM   15  C   UNL     1     -12.889  11.173  71.657  1.00  0.00    -0.524 A  
HETATM   16  C   UNL     1     -12.203  11.766  70.571  1.00  0.00    -0.438 A  
ENDBRANCH   1   7
TORSDOF 2
ENDMDL
MODEL       20
REMARK 921   NORMALIZED FREE ENERGY PREDICTED BY IDOCK:   -5.30 KCAL/MOL
REMARK 922        TOTAL FREE ENERGY PREDICTED BY IDOCK:   -6.20 KCAL/MOL
REMARK 923 INTER-LIGAND FREE ENERGY PREDICTED BY IDOCK:   -5.90 KCAL/MOL
REMARK 924 INTRA-LIGAND FREE ENERGY PREDICTED BY IDOCK:   -0.31 KCAL/MOL
REMARK 927      BINDING AFFINITY PREDICTED BY RF-SCORE:    0.00 PKD
ROOT
HETATM    1  C   UNL     1      -9.746  15.761  67.252  1.00  0.00    -0.223 C  
ENDROOT
BRANCH   1   2
HETATM    2  C   UNL     1     -10.807  15.127  66.385  1.00  0.00    -0.326 C  
HETATM    3  N   UNL     1     -11.814  14.334  66.886  1.00  0.00    -0.418 NA 
HETATM    4  C   UNL     1     -12.399  13.637  65.764  1.00  0.00    -0.482 C  
HETATM    5  N   UNL     1     -10.820  15.331  65.089  1.00  0.00    -0.399 NA 
HETATM    6  C   UNL     1     -12.025  14.585  64.622  1.00  0.00    -0.468 C  
ENDBRANCH   1   2
BRANCH   1   7
HETATM    7  C   UNL     1      -9.658  17.271  67.147  1.00  0.00    -0.257 A  
HETATM    8  C   UNL     1     -10.765  18.021  67.585  1.00  0.00    -0.360 A  
HETATM    9  C   UNL     1      -9.687  20.064  66.907  1.00  0.00    -0.557 A  
HETATM   10  C   UNL     1      -8.552  19.354  66.497  1.00  0.00    -0.363 A  
HETATM   11  C   UNL     1     -10.781  19.406  67.461  1.00  0.00    -0.570 A  
HETATM   12  C   UNL     1      -7.448  20.041  65.962  1.00  0.00    -0.328 A  
HETATM   13  C   UNL     1      -6.303  19.358  65.562  1.00  0.00    -0.274 A  
HETATM   14  C   UNL     1      -6.246  17.977  65.690  1.00  0.00    -0.252 A  
HETATM   15  C   UNL     1      -7.337  17.276  66.209  1.00  0.00    -0.342 A  
HETATM   16  C   UNL     1      -8.516  17.939  66.623  1.00  0.00    -0.281 A  
ENDBRANCH   1   7
TORSDOF 2
ENDMDL
MODEL       21
REMARK 921   NORMALIZED FREE ENERGY PREDICTED BY IDOCK:   -5.29 KCAL/MOL
REMARK 922        TOTAL FREE ENERGY PREDICTED BY IDOCK:   -6.19 KCAL/MOL
REMARK 923 INTER-LIGAND FREE ENERGY PREDICTED BY IDOCK:   -5.94 KCAL/MOL
REMARK 924 INTRA-LIGAND FREE ENERGY PREDICTED BY IDOCK:   -0.25 KCAL/MOL
REMARK 927      BINDING AFFINITY PREDICTED BY RF-SCORE:    0.00 PKD
ROOT
HETATM    1  C   UNL     1     -11.236  12.740  68.181  1.00  0.00    -0.310 C  
ENDROOT
BRANCH   1   2
HETATM    2  C   UNL     1      -9.738  12.914  68.238  1.00  0.00    -0.217 C  
HETATM    3  N   UNL     1      -9.122  14.146  68.220  1.00  0.00    -0.186 NA 
HETATM    4  C   UNL     1      -7.725  13.914  67.933  1.00  0.00    -0.160 C  
HETATM    5  N   UNL     1      -8.947  11.872  68.333  1.00  0.00    -0.182 NA 
HETATM    6  C   UNL     1      -7.580  12.466  68.409  1.00  0.00    -0.129 C  
ENDBRANCH   1   2
BRANCH   1   7
HETATM    7  C   UNL     1     -11.886  12.382  69.504  1.00  0.00    -0.368 A  
HETATM    8  C   UNL     1     -11.982  11.018  69.835  1.00  0.00    -0.427 A  
HETATM    9  C   UNL     1     -13.164  11.562  71.860  1.00  0.00    -0.479 A  
HETATM   10  C   UNL     1     -13.052  12.930  71.583  1.00  0.00    -0.430 A  
HETATM   11  C   UNL     1     -12.620  10.611  71.001  1.00  0.00    -0.516 A  
HETATM   12  C   UNL     1     -13.586  13.874  72.476  1.00  0.00    -0.680 A  
HETATM   13  C   UNL     1     -13.474  15.240  72.230  1.00  0.00    -0.552 A  
HETATM   14  C   UNL     1     -12.825  15.681  71.084  1.00  0.00    -0.540 A  
HETATM   15  C   UNL     1     -12.297  14.756  70.180  1.00  0.00    -0.381 A  
HETATM   16  C   UNL     1     -12.396  13.363  70.399  1.00  0.00    -0.382 A  
ENDBRANCH   1   7
TORSDOF 2
ENDMDL
MODEL       22
REMARK 921   NORMALIZED FREE ENERGY PREDICTED BY IDOCK:   -5.23 KCAL/MOL
REMARK 922        TOTAL FREE ENERGY PREDICTED BY IDOCK:   -6.13 KCAL/MOL
REMARK 923 INTER-LIGAND FREE ENERGY PREDICTED BY IDOCK:   -5.85 KCAL/MOL
REMARK 924 INTRA-LIGAND FREE ENERGY PREDICTED BY IDOCK:   -0.28 KCAL/MOL
REMARK 927      BINDING AFFINITY PREDICTED BY RF-SCORE:    0.00 PKD
ROOT
HETATM    1  C   UNL     1     -10.295  11.179  69.187  1.00  0.00    -0.186 C  
ENDROOT
BRANCH   1   2
HETATM    2  C   UNL     1     -10.846  12.060  68.092  1.00  0.00    -0.221 C  
HETATM    3  N   UNL     1     -11.790  11.632  67.186  1.00  0.00    -0.607 NA 
HETATM    4  C   UNL     1     -11.804  12.594  66.108  1.00  0.00    -0.418 C  
HETATM    5  N   UNL     1     -10.450  13.305  67.974  1.00  0.00    -0.236 NA 
HETATM    6  C   UNL     1     -11.250  13.826  66.827  1.00  0.00    -0.316 C  
ENDBRANCH   1   2
BRANCH   1   7
HETATM    7  C   UNL     1     -11.332  10.655  70.163  1.00  0.00    -0.402 A  
HETATM    8  C   UNL     1     -12.166  11.595  70.796  1.00  0.00    -0.443 A  
HETATM    9  C   UNL     1     -13.216   9.848  72.076  1.00  0.00    -0.555 A  
HETATM   10  C   UNL     1     -12.430   8.880  71.438  1.00  0.00    -0.357 A  
HETATM   11  C   UNL     1     -13.097  11.196  71.748  1.00  0.00    -0.536 A  
HETATM   12  C   UNL     1     -12.585   7.522  71.767  1.00  0.00    -0.363 A  
HETATM   13  C   UNL     1     -11.826   6.540  71.135  1.00  0.00    -0.383 A  
HETATM   14  C   UNL     1     -10.901   6.903  70.165  1.00  0.00    -0.300 A  
HETATM   15  C   UNL     1     -10.728   8.249  69.833  1.00  0.00    -0.234 A  
HETATM   16  C   UNL     1     -11.480   9.270  70.457  1.00  0.00    -0.296 A  
ENDBRANCH   1   7
TORSDOF 2
ENDMDL
MODEL       23
REMARK 921   NORMALIZED FREE ENERGY PREDICTED BY IDOCK:   -5.18 KCAL/MOL
REMARK 922        TOTAL FREE ENERGY PREDICTED BY IDOCK:   -6.08 KCAL/MOL
REMARK 923 INTER-LIGAND FREE ENERGY PREDICTED BY IDOCK:   -5.78 KCAL/MOL
REMARK 924 INTRA-LIGAND FREE ENERGY PREDICTED BY IDOCK:   -0.30 KCAL/MOL
REMARK 927      BINDING AFFINITY PREDICTED BY RF-SCORE:    0.00 PKD
ROOT
HETATM    1  C   UNL     1     -11.997  13.897  65.500  1.00  0.00    -0.397 C  
ENDROOT
BRANCH   1   2
HETATM    2  C   UNL     1     -11.173  15.070  65.974  1.00  0.00    -0.310 C  
HETATM    3  N   UNL     1     -10.773  15.230  67.281  1.00  0.00    -0.305 NA 
HETATM    4  C   UNL     1     -10.331  16.597  67.422  1.00  0.00    -0.292 C  
HETATM    5  N   UNL     1     -10.780  15.994  65.130  1.00  0.00    -0.538 NA 
HETATM    6  C   UNL     1      -9.971  16.924  65.971  1.00  0.00    -0.293 C  
ENDBRANCH   1   2
BRANCH   1   7
HETATM    7  C   UNL     1     -11.193  12.673  65.106  1.00  0.00    -0.336 A  
HETATM    8  C   UNL     1     -10.675  12.626  63.798  1.00  0.00    -0.454 A  
HETATM    9  C   UNL     1      -9.784  10.426  64.196  1.00  0.00    -0.387 A  
HETATM   10  C   UNL     1     -10.251  10.453  65.517  1.00  0.00    -0.316 A  
HETATM   11  C   UNL     1      -9.981  11.510  63.345  1.00  0.00    -0.445 A  
HETATM   12  C   UNL     1     -10.019   9.357  66.366  1.00  0.00    -0.346 A  
HETATM   13  C   UNL     1     -10.460   9.368  67.687  1.00  0.00    -0.328 A  
HETATM   14  C   UNL     1     -11.139  10.475  68.177  1.00  0.00    -0.346 A  
HETATM   15  C   UNL     1     -11.386  11.569  67.344  1.00  0.00    -0.367 A  
HETATM   16  C   UNL     1     -10.955  11.589  65.997  1.00  0.00    -0.316 A  
ENDBRANCH   1   7
TORSDOF 2
ENDMDL
MODEL       24
REMARK 921   NORMALIZED FREE ENERGY PREDICTED BY IDOCK:   -5.17 KCAL/MOL
REMARK 922        TOTAL FREE ENERGY PREDICTED BY IDOCK:   -6.07 KCAL/MOL
REMARK 923 INTER-LIGAND FREE ENERGY PREDICTED BY IDOCK:   -5.84 KCAL/MOL
REMARK 924 INTRA-LIGAND FREE ENERGY PREDICTED BY IDOCK:   -0.22 KCAL/MOL
REMARK 927      BINDING AFFINITY PREDICTED BY RF-SCORE:    0.00 PKD
ROOT
HETATM    1  C   UNL     1      -9.374  16.118  65.958  1.00  0.00    -0.368 C  
ENDROOT
BRANCH   1   2
HETATM    2  C   UNL     1      -9.940  17.425  66.458  1.00  0.00    -0.311 C  
HETATM    3  N   UNL     1     -10.453  18.392  65.622  1.00  0.00    -0.619 NA 
HETATM    4  C   UNL     1     -10.562  19.605  66.398  1.00  0.00    -0.486 C  
HETATM    5  N   UNL     1      -9.985  17.687  67.743  1.00  0.00    -0.302 NA 
HETATM    6  C   UNL     1     -10.643  19.024  67.812  1.00  0.00    -0.404 C  
ENDBRANCH   1   2
BRANCH   1   7
HETATM    7  C   UNL     1     -10.401  15.025  65.733  1.00  0.00    -0.354 A  
HETATM    8  C   UNL     1     -11.308  15.193  64.670  1.00  0.00    -0.362 A  
HETATM    9  C   UNL     1     -12.429  13.147  65.264  1.00  0.00    -0.550 A  
HETATM   10  C   UNL     1     -11.519  12.927  66.306  1.00  0.00    -0.395 A  
HETATM   11  C   UNL     1     -12.317  14.264  64.441  1.00  0.00    -0.417 A  
HETATM   12  C   UNL     1     -11.636  11.780  67.110  1.00  0.00    -0.342 A  
HETATM   13  C   UNL     1     -10.735  11.532  68.142  1.00  0.00    -0.242 A  
HETATM   14  C   UNL     1      -9.704  12.429  68.386  1.00  0.00    -0.189 A  
HETATM   15  C   UNL     1      -9.579  13.580  67.603  1.00  0.00    -0.222 A  
HETATM   16  C   UNL     1     -10.478  13.863  66.549  1.00  0.00    -0.282 A  
ENDBRANCH   1   7
TORSDOF 2
ENDMDL
MODEL       25
REMARK 921   NORMALIZED FREE ENERGY PREDICTED BY IDOCK:   -5.13 KCAL/MOL
REMARK 922        TOTAL FREE ENERGY PREDICTED BY IDOCK:   -6.02 KCAL/MOL
REMARK 923 INTER-LIGAND FREE ENERGY PREDICTED BY IDOCK:   -5.70 KCAL/MOL
REMARK 924 INTRA-LIGAND FREE ENERGY PREDICTED BY IDOCK:   -0.31 KCAL/MOL
REMARK 927      BINDING AFFINITY PREDICTED BY RF-SCORE:    0.00 PKD
ROOT
HETATM    1  C   UNL     1     -10.188  15.514  69.967  1.00  0.00    -0.286 C  
ENDROOT
BRANCH   1   2
HETATM    2  C   UNL     1     -11.497  15.439  70.715  1.00  0.00    -0.355 C  
HETATM    3  N   UNL     1     -11.711  16.064  71.922  1.00  0.00    -0.488 NA 
HETATM    4  C   UNL     1     -12.910  15.491  72.487  1.00  0.00    -0.420 C  
HETATM    5  N   UNL     1     -12.514  14.776  70.217  1.00  0.00    -0.344 NA 
HETATM    6  C   UNL     1     -13.601  14.985  71.218  1.00  0.00    -0.453 C  
ENDBRANCH   1   2
BRANCH   1   7
HETATM    7  C   UNL     1     -10.269  16.186  68.609  1.00  0.00    -0.244 A  
HETATM    8  C   UNL     1     -10.250  17.593  68.576  1.00  0.00    -0.386 A  
HETATM    9  C   UNL     1     -10.527  17.570  66.185  1.00  0.00    -0.288 A  
HETATM   10  C   UNL     1     -10.511  16.170  66.175  1.00  0.00    -0.334 A  
HETATM   11  C   UNL     1     -10.383  18.279  67.374  1.00  0.00    -0.409 A  
HETATM   12  C   UNL     1     -10.633  15.474  64.960  1.00  0.00    -0.435 A  
HETATM   13  C   UNL     1     -10.604  14.083  64.924  1.00  0.00    -0.442 A  
HETATM   14  C   UNL     1     -10.452  13.366  66.103  1.00  0.00    -0.295 A  
HETATM   15  C   UNL     1     -10.340  14.041  67.321  1.00  0.00    -0.264 A  
HETATM   16  C   UNL     1     -10.368  15.453  67.394  1.00  0.00    -0.262 A  
ENDBRANCH   1   7
TORSDOF 2
ENDMDL
MODEL       26
REMARK 921   NORMALIZED FREE ENERGY PREDICTED BY IDOCK:   -5.11 KCAL/MOL
REMARK 922        TOTAL FREE ENERGY PREDICTED BY IDOCK:   -6.00 KCAL/MOL
REMARK 923 INTER-LIGAND FREE ENERGY PREDICTED BY IDOCK:   -5.71 KCAL/MOL
REMARK 924 INTRA-LIGAND FREE ENERGY PREDICTED BY IDOCK:   -0.28 KCAL/MOL
REMARK 927      BINDING AFFINITY PREDICTED BY RF-SCORE:    0.00 PKD
ROOT
HETATM    1  C   UNL     1     -12.088  13.651  67.519  1.00  0.00    -0.352 C  
ENDROOT
BRANCH   1   2
HETATM    2  C   UNL     1     -11.225  14.797  67.989  1.00  0.00    -0.299 C  
HETATM    3  N   UNL     1     -11.714  15.857  68.719  1.00  0.00    -0.392 NA 
HETATM    4  C   UNL     1     -10.712  16.896  68.675  1.00  0.00    -0.345 C  
HETATM    5  N   UNL     1      -9.939  14.815  67.731  1.00  0.00    -0.222 NA 
HETATM    6  C   UNL     1      -9.459  16.063  68.394  1.00  0.00    -0.207 C  
ENDBRANCH   1   2
BRANCH   1   7
HETATM    7  C   UNL     1     -11.781  13.158  66.117  1.00  0.00    -0.428 A  
HETATM    8  C   UNL     1     -12.332  13.875  65.039  1.00  0.00    -0.452 A  
HETATM    9  C   UNL     1     -11.399  12.300  63.475  1.00  0.00    -0.549 A  
HETATM   10  C   UNL     1     -10.803  11.583  64.521  1.00  0.00    -0.390 A  
HETATM   11  C   UNL     1     -12.146  13.447  63.729  1.00  0.00    -0.516 A  
HETATM   12  C   UNL     1     -10.032  10.442  64.241  1.00  0.00    -0.368 A  
HETATM   13  C   UNL     1      -9.417   9.723  65.262  1.00  0.00    -0.343 A  
HETATM   14  C   UNL     1      -9.565  10.134  66.579  1.00  0.00    -0.236 A  
HETATM   15  C   UNL     1     -10.337  11.260  66.877  1.00  0.00    -0.272 A  
HETATM   16  C   UNL     1     -10.976  12.012  65.865  1.00  0.00    -0.342 A  
ENDBRANCH   1   7
TORSDOF 2
ENDMDL
MODEL       27
REMARK 921   NORMALIZED FREE ENERGY PREDICTED BY IDOCK:   -5.08 KCAL/MOL
REMARK 922        TOTAL FREE ENERGY PREDICTED BY IDOCK:   -5.96 KCAL/MOL
REMARK 923 INTER-LIGAND FREE ENERGY PREDICTED BY IDOCK:   -5.65 KCAL/MOL
REMARK 924 INTRA-LIGAND FREE ENERGY PREDICTED BY IDOCK:   -0.31 KCAL/MOL
REMARK 927      BINDING AFFINITY PREDICTED BY RF-SCORE:    0.00 PKD
ROOT
HETATM    1  C   UNL     1     -12.364  13.820  66.569  1.00  0.00    -0.432 C  
ENDROOT
BRANCH   1   2
HETATM    2  C   UNL     1     -11.525  14.990  67.025  1.00  0.00    -0.284 C  
HETATM    3  N   UNL     1     -11.649  15.565  68.269  1.00  0.00    -0.359 NA 
HETATM    4  C   UNL     1     -10.966  16.836  68.216  1.00  0.00    -0.327 C  
HETATM    5  N   UNL     1     -10.608  15.501  66.239  1.00  0.00    -0.301 NA 
HETATM    6  C   UNL     1      -9.990  16.579  67.064  1.00  0.00    -0.268 C  
ENDBRANCH   1   2
BRANCH   1   7
HETATM    7  C   UNL     1     -11.687  12.468  66.688  1.00  0.00    -0.453 A  
HETATM    8  C   UNL     1     -11.751  11.814  67.933  1.00  0.00    -0.347 A  
HETATM    9  C   UNL     1     -10.387  10.017  67.094  1.00  0.00    -0.300 A  
HETATM   10  C   UNL     1     -10.335  10.620  65.830  1.00  0.00    -0.287 A  
HETATM   11  C   UNL     1     -11.102  10.602  68.135  1.00  0.00    -0.343 A  
HETATM   12  C   UNL     1      -9.627  10.000  64.785  1.00  0.00    -0.374 A  
HETATM   13  C   UNL     1      -9.574  10.572  63.517  1.00  0.00    -0.374 A  
HETATM   14  C   UNL     1     -10.228  11.772  63.275  1.00  0.00    -0.452 A  
HETATM   15  C   UNL     1     -10.927  12.407  64.305  1.00  0.00    -0.396 A  
HETATM   16  C   UNL     1     -10.999  11.855  65.604  1.00  0.00    -0.353 A  
ENDBRANCH   1   7
TORSDOF 2
ENDMDL
MODEL       28
REMARK 921   NORMALIZED FREE ENERGY PREDICTED BY IDOCK:   -5.07 KCAL/MOL
REMARK 922        TOTAL FREE ENERGY PREDICTED BY IDOCK:   -5.95 KCAL/MOL
REMARK 923 INTER-LIGAND FREE ENERGY PREDICTED BY IDOCK:   -5.64 KCAL/MOL
REMARK 924 INTRA-LIGAND FREE ENERGY PREDICTED BY IDOCK:   -0.32 KCAL/MOL
REMARK 927      BINDING AFFINITY PREDICTED BY RF-SCORE:    0.00 PKD
ROOT
HETATM    1  C   UNL     1     -11.376  15.889  68.664  1.00  0.00    -0.376 C  
ENDROOT
BRANCH   1   2
HETATM    2  C   UNL     1     -11.593  14.758  67.689  1.00  0.00    -0.354 C  
HETATM    3  N   UNL     1     -11.594  14.931  66.323  1.00  0.00    -0.289 NA 
HETATM    4  C   UNL     1     -12.172  13.739  65.748  1.00  0.00    -0.462 C  
HETATM    5  N   UNL     1     -11.772  13.531  68.118  1.00  0.00    -0.341 NA 
HETATM    6  C   UNL     1     -11.899  12.729  66.865  1.00  0.00    -0.371 C  
ENDBRANCH   1   2
BRANCH   1   7
HETATM    7  C   UNL     1      -9.997  16.518  68.612  1.00  0.00    -0.248 A  
HETATM    8  C   UNL     1      -8.923  15.781  69.144  1.00  0.00    -0.256 A  
HETATM    9  C   UNL     1      -7.410  17.598  68.689  1.00  0.00    -0.257 A  
HETATM   10  C   UNL     1      -8.447  18.345  68.116  1.00  0.00    -0.301 A  
HETATM   11  C   UNL     1      -7.642  16.319  69.187  1.00  0.00    -0.227 A  
HETATM   12  C   UNL     1      -8.187  19.624  67.596  1.00  0.00    -0.335 A  
HETATM   13  C   UNL     1      -9.198  20.379  67.008  1.00  0.00    -0.483 A  
HETATM   14  C   UNL     1     -10.485  19.865  66.930  1.00  0.00    -0.577 A  
HETATM   15  C   UNL     1     -10.764  18.598  67.451  1.00  0.00    -0.456 A  
HETATM   16  C   UNL     1      -9.761  17.807  68.057  1.00  0.00    -0.304 A  
ENDBRANCH   1   7
TORSDOF 2
ENDMDL
MODEL       29
REMARK 921   NORMALIZED FREE ENERGY PREDICTED BY IDOCK:   -5.05 KCAL/MOL
REMARK 922        TOTAL FREE ENERGY PREDICTED BY IDOCK:   -5.92 KCAL/MOL
REMARK 923 INTER-LIGAND FREE ENERGY PREDICTED BY IDOCK:   -5.73 KCAL/MOL
REMARK 924 INTRA-LIGAND FREE ENERGY PREDICTED BY IDOCK:   -0.19 KCAL/MOL
REMARK 927      BINDING AFFINITY PREDICTED BY RF-SCORE:    0.00 PKD
ROOT
HETATM    1  C   UNL     1     -11.989  12.975  68.079  1.00  0.00    -0.335 C  
ENDROOT
BRANCH   1   2
HETATM    2  C   UNL     1     -11.838  13.281  66.608  1.00  0.00    -0.395 C  
HETATM    3  N   UNL     1     -12.331  12.465  65.615  1.00  0.00    -0.621 NA 
HETATM    4  C   UNL     1     -11.704  12.877  64.381  1.00  0.00    -0.372 C  
HETATM    5  N   UNL     1     -11.234  14.376  66.212  1.00  0.00    -0.332 NA 
HETATM    6  C   UNL     1     -11.338  14.323  64.724  1.00  0.00    -0.382 C  
ENDBRANCH   1   2
BRANCH   1   7
HETATM    7  C   UNL     1     -11.065  11.892  68.601  1.00  0.00    -0.295 A  
HETATM    8  C   UNL     1      -9.818  11.738  67.967  1.00  0.00    -0.184 A  
HETATM    9  C   UNL     1      -9.299   9.858  69.379  1.00  0.00    -0.226 A  
HETATM   10  C   UNL     1     -10.515  10.007  70.059  1.00  0.00    -0.337 A  
HETATM   11  C   UNL     1      -8.944  10.726  68.350  1.00  0.00    -0.153 A  
HETATM   12  C   UNL     1     -10.842   9.135  71.111  1.00  0.00    -0.381 A  
HETATM   13  C   UNL     1     -12.037   9.272  71.811  1.00  0.00    -0.457 A  
HETATM   14  C   UNL     1     -12.924  10.284  71.468  1.00  0.00    -0.556 A  
HETATM   15  C   UNL     1     -12.619  11.153  70.418  1.00  0.00    -0.328 A  
HETATM   16  C   UNL     1     -11.415  11.040  69.685  1.00  0.00    -0.375 A  
ENDBRANCH   1   7
TORSDOF 2
ENDMDL
MODEL       30
REMARK 921   NORMALIZED FREE ENERGY PREDICTED BY IDOCK:   -5.02 KCAL/MOL
REMARK 922        TOTAL FREE ENERGY PREDICTED BY IDOCK:   -5.90 KCAL/MOL
REMARK 923 INTER-LIGAND FREE ENERGY PREDICTED BY IDOCK:   -5.70 KCAL/MOL
REMARK 924 INTRA-LIGAND FREE ENERGY PREDICTED BY IDOCK:   -0.20 KCAL/MOL
REMARK 927      BINDING AFFINITY PREDICTED BY RF-SCORE:    0.00 PKD
ROOT
HETATM    1  C   UNL     1     -11.748  15.624  69.319  1.00  0.00    -0.388 C  
ENDROOT
BRANCH   1   2
HETATM    2  C   UNL     1     -10.641  16.460  68.724  1.00  0.00    -0.310 C  
HETATM    3  N   UNL     1     -10.848  17.378  67.719  1.00  0.00    -0.327 NA 
HETATM    4  C   UNL     1      -9.551  17.708  67.176  1.00  0.00    -0.278 C  
HETATM    5  N   UNL     1      -9.411  16.353  69.168  1.00  0.00    -0.250 NA 
HETATM    6  C   UNL     1      -8.654  17.359  68.367  1.00  0.00    -0.270 C  
ENDBRANCH   1   2
BRANCH   1   7
HETATM    7  C   UNL     1     -11.681  14.147  68.984  1.00  0.00    -0.361 A  
HETATM    8  C   UNL     1     -11.164  13.787  67.725  1.00  0.00    -0.312 A  
HETATM    9  C   UNL     1     -11.602  11.463  68.176  1.00  0.00    -0.364 A  
HETATM   10  C   UNL     1     -12.086  11.781  69.452  1.00  0.00    -0.301 A  
HETATM   11  C   UNL     1     -11.130  12.457  67.323  1.00  0.00    -0.329 A  
HETATM   12  C   UNL     1     -12.535  10.759  70.306  1.00  0.00    -0.395 A  
HETATM   13  C   UNL     1     -13.007  11.049  71.584  1.00  0.00    -0.561 A  
HETATM   14  C   UNL     1     -13.037  12.365  72.025  1.00  0.00    -0.470 A  
HETATM   15  C   UNL     1     -12.604  13.393  71.185  1.00  0.00    -0.430 A  
HETATM   16  C   UNL     1     -12.122  13.134  69.881  1.00  0.00    -0.357 A  
ENDBRANCH   1   7
TORSDOF 2
ENDMDL
MODEL       31
REMARK 921   NORMALIZED FREE ENERGY PREDICTED BY IDOCK:   -5.02 KCAL/MOL
REMARK 922        TOTAL FREE ENERGY PREDICTED BY IDOCK:   -5.90 KCAL/MOL
REMARK 923 INTER-LIGAND FREE ENERGY PREDICTED BY IDOCK:   -5.78 KCAL/MOL
REMARK 924 INTRA-LIGAND FREE ENERGY PREDICTED BY IDOCK:   -0.12 KCAL/MOL
REMARK 927      BINDING AFFINITY PREDICTED BY RF-SCORE:    0.00 PKD
ROOT
HETATM    1  C   UNL     1      -9.461  16.331  69.375  1.00  0.00    -0.161 C  
ENDROOT
BRANCH   1   2
HETATM    2  C   UNL     1      -9.934  17.347  68.365  1.00  0.00    -0.329 C  
HETATM    3  N   UNL     1      -9.990  18.698  68.625  1.00  0.00    -0.379 NA 
HETATM    4  C   UNL     1     -10.803  19.293  67.591  1.00  0.00    -0.375 C  
HETATM    5  N   UNL     1     -10.299  16.973  67.161  1.00  0.00    -0.307 NA 
HETATM    6  C   UNL     1     -10.642  18.255  66.478  1.00  0.00    -0.288 C  
ENDBRANCH   1   2
BRANCH   1   7
HETATM    7  C   UNL     1     -10.388  15.145  69.566  1.00  0.00    -0.251 A  
HETATM    8  C   UNL     1     -10.256  14.064  68.676  1.00  0.00    -0.233 A  
HETATM    9  C   UNL     1     -12.106  12.936  69.723  1.00  0.00    -0.312 A  
HETATM   10  C   UNL     1     -12.242  13.976  70.651  1.00  0.00    -0.442 A  
HETATM   11  C   UNL     1     -11.111  12.971  68.750  1.00  0.00    -0.311 A  
HETATM   12  C   UNL     1     -13.238  13.909  71.640  1.00  0.00    -0.446 A  
HETATM   13  C   UNL     1     -13.383  14.923  72.583  1.00  0.00    -0.553 A  
HETATM   14  C   UNL     1     -12.532  16.020  72.550  1.00  0.00    -0.558 A  
HETATM   15  C   UNL     1     -11.543  16.108  71.567  1.00  0.00    -0.502 A  
HETATM   16  C   UNL     1     -11.371  15.097  70.594  1.00  0.00    -0.330 A  
ENDBRANCH   1   7
TORSDOF 2
ENDMDL
MODEL       32
REMARK 921   NORMALIZED FREE ENERGY PREDICTED BY IDOCK:   -5.00 KCAL/MOL
REMARK 922        TOTAL FREE ENERGY PREDICTED BY IDOCK:   -5.88 KCAL/MOL
REMARK 923 INTER-LIGAND FREE ENERGY PREDICTED BY IDOCK:   -5.60 KCAL/MOL
REMARK 924 INTRA-LIGAND FREE ENERGY PREDICTED BY IDOCK:   -0.28 KCAL/MOL
REMARK 927      BINDING AFFINITY PREDICTED BY RF-SCORE:    0.00 PKD
ROOT
HETATM    1  C   UNL     1     -10.770  12.887  68.735  1.00  0.00    -0.249 C  
ENDROOT
BRANCH   1   2
HETATM    2  C   UNL     1     -11.691  12.094  69.631  1.00  0.00    -0.325 C  
HETATM    3  N   UNL     1     -12.367  12.648  70.695  1.00  0.00    -0.342 NA 
HETATM    4  C   UNL     1     -12.845  11.553  71.505  1.00  0.00    -0.380 C  
HETATM    5  N   UNL     1     -11.904  10.819  69.409  1.00  0.00    -0.304 NA 
HETATM    6  C   UNL     1     -12.886  10.432  70.463  1.00  0.00    -0.254 C  
ENDBRANCH   1   2
BRANCH   1   7
HETATM    7  C   UNL     1     -11.204  12.962  67.284  1.00  0.00    -0.329 A  
HETATM    8  C   UNL     1     -12.115  13.972  66.926  1.00  0.00    -0.465 A  
HETATM    9  C   UNL     1     -12.185  13.152  64.664  1.00  0.00    -0.471 A  
HETATM   10  C   UNL     1     -11.249  12.157  64.974  1.00  0.00    -0.372 A  
HETATM   11  C   UNL     1     -12.605  14.064  65.628  1.00  0.00    -0.542 A  
HETATM   12  C   UNL     1     -10.819  11.263  63.979  1.00  0.00    -0.414 A  
HETATM   13  C   UNL     1      -9.878  10.276  64.259  1.00  0.00    -0.357 A  
HETATM   14  C   UNL     1      -9.353  10.169  65.540  1.00  0.00    -0.260 A  
HETATM   15  C   UNL     1      -9.776  11.043  66.544  1.00  0.00    -0.230 A  
HETATM   16  C   UNL     1     -10.732  12.055  66.293  1.00  0.00    -0.302 A  
ENDBRANCH   1   7
TORSDOF 2
ENDMDL
MODEL       33
REMARK 921   NORMALIZED FREE ENERGY PREDICTED BY IDOCK:   -5.00 KCAL/MOL
REMARK 922        TOTAL FREE ENERGY PREDICTED BY IDOCK:   -5.87 KCAL/MOL
REMARK 923 INTER-LIGAND FREE ENERGY PREDICTED BY IDOCK:   -5.58 KCAL/MOL
REMARK 924 INTRA-LIGAND FREE ENERGY PREDICTED BY IDOCK:   -0.29 KCAL/MOL
REMARK 927      BINDING AFFINITY PREDICTED BY RF-SCORE:    0.00 PKD
ROOT
HETATM    1  C   UNL     1     -10.443  11.843  68.584  1.00  0.00    -0.231 C  
ENDROOT
BRANCH   1   2
HETATM    2  C   UNL     1     -11.245  10.979  69.526  1.00  0.00    -0.279 C  
HETATM    3  N   UNL     1     -12.620  10.923  69.510  1.00  0.00    -0.260 NA 
HETATM    4  C   UNL     1     -13.030  10.295  70.744  1.00  0.00    -0.330 C  
HETATM    5  N   UNL     1     -10.644  10.211  70.404  1.00  0.00    -0.275 NA 
HETATM    6  C   UNL     1     -11.766   9.504  71.088  1.00  0.00    -0.363 C  
ENDBRANCH   1   2
BRANCH   1   7
HETATM    7  C   UNL     1     -10.317  11.299  67.174  1.00  0.00    -0.244 A  
HETATM    8  C   UNL     1      -9.509  10.163  66.983  1.00  0.00    -0.197 A  
HETATM    9  C   UNL     1      -9.896  10.249  64.608  1.00  0.00    -0.396 A  
HETATM   10  C   UNL     1     -10.737  11.357  64.765  1.00  0.00    -0.362 A  
HETATM   11  C   UNL     1      -9.296   9.645  65.710  1.00  0.00    -0.286 A  
HETATM   12  C   UNL     1     -11.352  11.937  63.641  1.00  0.00    -0.536 A  
HETATM   13  C   UNL     1     -12.204  13.029  63.773  1.00  0.00    -0.536 A  
HETATM   14  C   UNL     1     -12.454  13.559  65.032  1.00  0.00    -0.462 A  
HETATM   15  C   UNL     1     -11.844  13.002  66.159  1.00  0.00    -0.466 A  
HETATM   16  C   UNL     1     -10.971  11.894  66.059  1.00  0.00    -0.355 A  
ENDBRANCH   1   7
TORSDOF 2
ENDMDL
MODEL       34
REMARK 921   NORMALIZED FREE ENERGY PREDICTED BY IDOCK:   -4.99 KCAL/MOL
REMARK 922        TOTAL FREE ENERGY PREDICTED BY IDOCK:   -5.86 KCAL/MOL
REMARK 923 INTER-LIGAND FREE ENERGY PREDICTED BY IDOCK:   -5.58 KCAL/MOL
REMARK 924 INTRA-LIGAND FREE ENERGY PREDICTED BY IDOCK:   -0.28 KCAL/MOL
REMARK 927      BINDING AFFINITY PREDICTED BY RF-SCORE:    0.00 PKD
ROOT
HETATM    1  C   UNL     1     -12.244  13.241  65.906  1.00  0.00    -0.497 C  
ENDROOT
BRANCH   1   2
HETATM    2  C   UNL     1     -11.391  11.996  65.881  1.00  0.00    -0.337 C  
HETATM    3  N   UNL     1     -11.336  11.100  66.924  1.00  0.00    -0.385 NA 
HETATM    4  C   UNL     1     -10.183  10.260  66.698  1.00  0.00    -0.233 C  
HETATM    5  N   UNL     1     -10.668  11.703  64.826  1.00  0.00    -0.296 NA 
HETATM    6  C   UNL     1     -10.029  10.402  65.181  1.00  0.00    -0.322 C  
ENDBRANCH   1   2
BRANCH   1   7
HETATM    7  C   UNL     1     -11.534  14.489  66.394  1.00  0.00    -0.362 A  
HETATM    8  C   UNL     1     -10.957  15.332  65.425  1.00  0.00    -0.380 A  
HETATM    9  C   UNL     1     -10.089  16.770  67.149  1.00  0.00    -0.282 A  
HETATM   10  C   UNL     1     -10.682  15.976  68.139  1.00  0.00    -0.311 A  
HETATM   11  C   UNL     1     -10.237  16.460  65.800  1.00  0.00    -0.370 A  
HETATM   12  C   UNL     1     -10.540  16.321  69.494  1.00  0.00    -0.314 A  
HETATM   13  C   UNL     1     -11.134  15.556  70.495  1.00  0.00    -0.369 A  
HETATM   14  C   UNL     1     -11.877  14.435  70.154  1.00  0.00    -0.380 A  
HETATM   15  C   UNL     1     -12.019  14.071  68.813  1.00  0.00    -0.382 A  
HETATM   16  C   UNL     1     -11.428  14.824  67.772  1.00  0.00    -0.363 A  
ENDBRANCH   1   7
TORSDOF 2
ENDMDL
MODEL       35
REMARK 921   NORMALIZED FREE ENERGY PREDICTED BY IDOCK:   -4.98 KCAL/MOL
REMARK 922        TOTAL FREE ENERGY PREDICTED BY IDOCK:   -5.85 KCAL/MOL
REMARK 923 INTER-LIGAND FREE ENERGY PREDICTED BY IDOCK:   -5.53 KCAL/MOL
REMARK 924 INTRA-LIGAND FREE ENERGY PREDICTED BY IDOCK:   -0.32 KCAL/MOL
REMARK 927      BINDING AFFINITY PREDICTED BY RF-SCORE:    0.00 PKD
ROOT
HETATM    1  C   UNL     1     -10.368  17.451  67.345  1.00  0.00    -0.343 C  
ENDROOT
BRANCH   1   2
HETATM    2  C   UNL     1      -8.871  17.571  67.197  1.00  0.00    -0.238 C  
HETATM    3  N   UNL     1      -8.259  17.944  66.021  1.00  0.00    -0.527 NA 
HETATM    4  C   UNL     1      -6.860  17.609  66.151  1.00  0.00    -0.293 C  
HETATM    5  N   UNL     1      -8.078  17.341  68.216  1.00  0.00    -0.237 NA 
HETATM    6  C   UNL     1      -6.713  17.610  67.674  1.00  0.00    -0.171 C  
ENDBRANCH   1   2
BRANCH   1   7
HETATM    7  C   UNL     1     -10.874  16.037  67.562  1.00  0.00    -0.292 A  
HETATM    8  C   UNL     1     -10.953  15.193  66.439  1.00  0.00    -0.329 A  
HETATM    9  C   UNL     1     -11.897  13.436  67.787  1.00  0.00    -0.395 A  
HETATM   10  C   UNL     1     -11.796  14.234  68.934  1.00  0.00    -0.372 A  
HETATM   11  C   UNL     1     -11.465  13.905  66.549  1.00  0.00    -0.361 A  
HETATM   12  C   UNL     1     -12.215  13.732  70.177  1.00  0.00    -0.425 A  
HETATM   13  C   UNL     1     -12.111  14.500  71.334  1.00  0.00    -0.420 A  
HETATM   14  C   UNL     1     -11.586  15.783  71.262  1.00  0.00    -0.499 A  
HETATM   15  C   UNL     1     -11.174  16.302  70.032  1.00  0.00    -0.324 A  
HETATM   16  C   UNL     1     -11.268  15.550  68.839  1.00  0.00    -0.306 A  
ENDBRANCH   1   7
TORSDOF 2
ENDMDL
MODEL       36
REMARK 921   NORMALIZED FREE ENERGY PREDICTED BY IDOCK:   -4.96 KCAL/MOL
REMARK 922        TOTAL FREE ENERGY PREDICTED BY IDOCK:   -5.83 KCAL/MOL
REMARK 923 INTER-LIGAND FREE ENERGY PREDICTED BY IDOCK:   -5.51 KCAL/MOL
REMARK 924 INTRA-LIGAND FREE ENERGY PREDICTED BY IDOCK:   -0.32 KCAL/MOL
REMARK 927      BINDING AFFINITY PREDICTED BY RF-SCORE:    0.00 PKD
ROOT
HETATM    1  C   UNL     1     -10.846   9.886  70.664  1.00  0.00    -0.400 C  
ENDROOT
BRANCH   1   2
HETATM    2  C   UNL     1     -12.049   9.117  71.153  1.00  0.00    -0.299 C  
HETATM    3  N   UNL     1     -12.017   7.769  71.433  1.00  0.00    -0.299 NA 
HETATM    4  C   UNL     1     -13.389   7.325  71.522  1.00  0.00    -0.369 C  
HETATM    5  N   UNL     1     -13.194   9.724  71.354  1.00  0.00    -0.388 NA 
HETATM    6  C   UNL     1     -14.086   8.643  71.868  1.00  0.00    -0.443 C  
ENDBRANCH   1   2
BRANCH   1   7
HETATM    7  C   UNL     1     -10.829  10.161  69.173  1.00  0.00    -0.260 A  
HETATM    8  C   UNL     1     -10.423   9.116  68.322  1.00  0.00    -0.254 A  
HETATM    9  C   UNL     1     -10.638  10.554  66.403  1.00  0.00    -0.218 A  
HETATM   10  C   UNL     1     -11.084  11.605  67.215  1.00  0.00    -0.346 A  
HETATM   11  C   UNL     1     -10.323   9.313  66.949  1.00  0.00    -0.316 A  
HETATM   12  C   UNL     1     -11.419  12.842  66.640  1.00  0.00    -0.393 A  
HETATM   13  C   UNL     1     -11.879  13.897  67.424  1.00  0.00    -0.437 A  
HETATM   14  C   UNL     1     -12.010  13.728  68.796  1.00  0.00    -0.400 A  
HETATM   15  C   UNL     1     -11.671  12.508  69.386  1.00  0.00    -0.383 A  
HETATM   16  C   UNL     1     -11.198  11.418  68.619  1.00  0.00    -0.303 A  
ENDBRANCH   1   7
TORSDOF 2
ENDMDL
MODEL       37
REMARK 921   NORMALIZED FREE ENERGY PREDICTED BY IDOCK:   -4.96 KCAL/MOL
REMARK 922        TOTAL FREE ENERGY PREDICTED BY IDOCK:   -5.82 KCAL/MOL
REMARK 923 INTER-LIGAND FREE ENERGY PREDICTED BY IDOCK:   -5.51 KCAL/MOL
REMARK 924 INTRA-LIGAND FREE ENERGY PREDICTED BY IDOCK:   -0.31 KCAL/MOL
REMARK 927      BINDING AFFINITY PREDICTED BY RF-SCORE:    0.00 PKD
ROOT
HETATM    1  C   UNL     1     -12.184  13.369  65.934  1.00  0.00    -0.502 C  
ENDROOT
BRANCH   1   2
HETATM    2  C   UNL     1     -11.401  14.659  65.984  1.00  0.00    -0.344 C  
HETATM    3  N   UNL     1     -10.709  15.076  67.099  1.00  0.00    -0.296 NA 
HETATM    4  C   UNL     1     -10.398  16.473  66.902  1.00  0.00    -0.300 C  
HETATM    5  N   UNL     1     -11.332  15.439  64.932  1.00  0.00    -0.389 NA 
HETATM    6  C   UNL     1     -10.446  16.556  65.374  1.00  0.00    -0.269 C  
ENDBRANCH   1   2
BRANCH   1   7
HETATM    7  C   UNL     1     -11.376  12.122  66.241  1.00  0.00    -0.411 A  
HETATM    8  C   UNL     1     -10.640  11.547  65.188  1.00  0.00    -0.350 A  
HETATM    9  C   UNL     1      -9.928   9.753  66.626  1.00  0.00    -0.292 A  
HETATM   10  C   UNL     1     -10.617  10.318  67.707  1.00  0.00    -0.296 A  
HETATM   11  C   UNL     1      -9.926  10.369  65.378  1.00  0.00    -0.362 A  
HETATM   12  C   UNL     1     -10.585   9.692  68.965  1.00  0.00    -0.237 A  
HETATM   13  C   UNL     1     -11.249  10.243  70.058  1.00  0.00    -0.376 A  
HETATM   14  C   UNL     1     -11.955  11.428  69.908  1.00  0.00    -0.434 A  
HETATM   15  C   UNL     1     -12.006  12.059  68.662  1.00  0.00    -0.290 A  
HETATM   16  C   UNL     1     -11.345  11.525  67.532  1.00  0.00    -0.366 A  
ENDBRANCH   1   7
TORSDOF 2
ENDMDL
MODEL       38
REMARK 921   NORMALIZED FREE ENERGY PREDICTED BY IDOCK:   -4.95 KCAL/MOL
REMARK 922        TOTAL FREE ENERGY PREDICTED BY IDOCK:   -5.82 KCAL/MOL
REMARK 923 INTER-LIGAND FREE ENERGY PREDICTED BY IDOCK:   -5.61 KCAL/MOL
REMARK 924 INTRA-LIGAND FREE ENERGY PREDICTED BY IDOCK:   -0.20 KCAL/MOL
REMARK 927      BINDING AFFINITY PREDICTED BY RF-SCORE:    0.00 PKD
ROOT
HETATM    1  C   UNL     1      -8.771  16.800  66.432  1.00  0.00    -0.337 C  
ENDROOT
BRANCH   1   2
HETATM    2  C   UNL     1      -9.232  18.228  66.594  1.00  0.00    -0.295 C  
HETATM    3  N   UNL     1      -8.634  19.118  67.458  1.00  0.00    -0.285 NA 
HETATM    4  C   UNL     1      -9.538  20.235  67.604  1.00  0.00    -0.395 C  
HETATM    5  N   UNL     1     -10.231  18.693  65.883  1.00  0.00    -0.574 NA 
HETATM    6  C   UNL     1     -10.333  20.122  66.301  1.00  0.00    -0.394 C  
ENDBRANCH   1   2
BRANCH   1   7
HETATM    7  C   UNL     1      -9.879  15.765  66.488  1.00  0.00    -0.286 A  
HETATM    8  C   UNL     1     -10.273  15.165  65.278  1.00  0.00    -0.400 A  
HETATM    9  C   UNL     1     -11.989  13.920  66.417  1.00  0.00    -0.467 A  
HETATM   10  C   UNL     1     -11.599  14.468  67.646  1.00  0.00    -0.402 A  
HETATM   11  C   UNL     1     -11.322  14.254  65.242  1.00  0.00    -0.336 A  
HETATM   12  C   UNL     1     -12.270  14.098  68.824  1.00  0.00    -0.234 A  
HETATM   13  C   UNL     1     -11.891  14.617  70.059  1.00  0.00    -0.363 A  
HETATM   14  C   UNL     1     -10.834  15.514  70.134  1.00  0.00    -0.346 A  
HETATM   15  C   UNL     1     -10.162  15.900  68.971  1.00  0.00    -0.227 A  
HETATM   16  C   UNL     1     -10.523  15.394  67.701  1.00  0.00    -0.272 A  
ENDBRANCH   1   7
TORSDOF 2
ENDMDL
MODEL       39
REMARK 921   NORMALIZED FREE ENERGY PREDICTED BY IDOCK:   -4.91 KCAL/MOL
REMARK 922        TOTAL FREE ENERGY PREDICTED BY IDOCK:   -5.78 KCAL/MOL
REMARK 923 INTER-LIGAND FREE ENERGY PREDICTED BY IDOCK:   -5.54 KCAL/MOL
REMARK 924 INTRA-LIGAND FREE ENERGY PREDICTED BY IDOCK:   -0.24 KCAL/MOL
REMARK 927      BINDING AFFINITY PREDICTED BY RF-SCORE:    0.00 PKD
ROOT
HETATM    1  C   UNL     1     -10.418  15.420  68.498  1.00  0.00    -0.234 C  
ENDROOT
BRANCH   1   2
HETATM    2  C   UNL     1     -11.235  15.372  69.767  1.00  0.00    -0.288 C  
HETATM    3  N   UNL     1     -11.959  14.268  70.155  1.00  0.00    -0.305 NA 
HETATM    4  C   UNL     1     -12.866  14.702  71.192  1.00  0.00    -0.343 C  
HETATM    5  N   UNL     1     -11.267  16.401  70.580  1.00  0.00    -0.318 NA 
HETATM    6  C   UNL     1     -12.126  15.939  71.709  1.00  0.00    -0.492 C  
ENDBRANCH   1   2
BRANCH   1   7
HETATM    7  C   UNL     1      -9.296  16.439  68.502  1.00  0.00    -0.225 A  
HETATM    8  C   UNL     1      -8.061  16.048  69.053  1.00  0.00    -0.226 A  
HETATM    9  C   UNL     1      -7.164  18.251  68.684  1.00  0.00    -0.293 A  
HETATM   10  C   UNL     1      -8.365  18.664  68.094  1.00  0.00    -0.332 A  
HETATM   11  C   UNL     1      -7.006  16.948  69.148  1.00  0.00    -0.234 A  
HETATM   12  C   UNL     1      -8.495  19.978  67.611  1.00  0.00    -0.378 A  
HETATM   13  C   UNL     1      -9.673  20.407  67.007  1.00  0.00    -0.588 A  
HETATM   14  C   UNL     1     -10.740  19.528  66.878  1.00  0.00    -0.576 A  
HETATM   15  C   UNL     1     -10.632  18.222  67.362  1.00  0.00    -0.425 A  
HETATM   16  C   UNL     1      -9.451  17.755  67.983  1.00  0.00    -0.281 A  
ENDBRANCH   1   7
TORSDOF 2
ENDMDL
MODEL       40
REMARK 921   NORMALIZED FREE ENERGY PREDICTED BY IDOCK:   -4.91 KCAL/MOL
REMARK 922        TOTAL FREE ENERGY PREDICTED BY IDOCK:   -5.77 KCAL/MOL
REMARK 923 INTER-LIGAND FREE ENERGY PREDICTED BY IDOCK:   -5.61 KCAL/MOL
REMARK 924 INTRA-LIGAND FREE ENERGY PREDICTED BY IDOCK:   -0.15 KCAL/MOL
REMARK 927      BINDING AFFINITY PREDICTED BY RF-SCORE:    0.00 PKD
ROOT
HETATM    1  C   UNL     1     -13.639  12.194  71.335  1.00  0.00     0.447 C  
ENDROOT
BRANCH   1   2
HETATM    2  C   UNL     1     -12.737  10.986  71.415  1.00  0.00    -0.429 C  
HETATM    3  N   UNL     1     -11.553  10.883  70.720  1.00  0.00    -0.257 NA 
HETATM    4  C   UNL     1     -11.161   9.493  70.760  1.00  0.00    -0.317 C  
HETATM    5  N   UNL     1     -13.046   9.971  72.187  1.00  0.00    -0.426 NA 
HETATM    6  C   UNL     1     -11.899   9.032  72.019  1.00  0.00    -0.356 C  
ENDBRANCH   1   2
BRANCH   1   7
HETATM    7  C   UNL     1     -12.950  13.520  71.595  1.00  0.00    -0.447 A  
HETATM    8  C   UNL     1     -12.942  14.002  72.918  1.00  0.00    -0.437 A  
HETATM    9  C   UNL     1     -11.816  16.009  72.212  1.00  0.00    -0.628 A  
HETATM   10  C   UNL     1     -11.771  15.544  70.891  1.00  0.00    -0.413 A  
HETATM   11  C   UNL     1     -12.384  15.238  73.222  1.00  0.00    -0.588 A  
HETATM   12  C   UNL     1     -11.171  16.328  69.890  1.00  0.00    -0.319 A  
HETATM   13  C   UNL     1     -11.101  15.880  68.574  1.00  0.00    -0.340 A  
HETATM   14  C   UNL     1     -11.630  14.641  68.239  1.00  0.00    -0.353 A  
HETATM   15  C   UNL     1     -12.239  13.853  69.219  1.00  0.00    -0.319 A  
HETATM   16  C   UNL     1     -12.330  14.279  70.564  1.00  0.00    -0.430 A  
ENDBRANCH   1   7
TORSDOF 2
ENDMDL
MODEL       41
REMARK 921   NORMALIZED FREE ENERGY PREDICTED BY IDOCK:   -4.90 KCAL/MOL
REMARK 922        TOTAL FREE ENERGY PREDICTED BY IDOCK:   -5.76 KCAL/MOL
REMARK 923 INTER-LIGAND FREE ENERGY PREDICTED BY IDOCK:   -5.45 KCAL/MOL
REMARK 924 INTRA-LIGAND FREE ENERGY PREDICTED BY IDOCK:   -0.31 KCAL/MOL
REMARK 927      BINDING AFFINITY PREDICTED BY RF-SCORE:    0.00 PKD
ROOT
HETATM    1  C   UNL     1      -9.068  17.023  68.589  1.00  0.00    -0.271 C  
ENDROOT
BRANCH   1   2
HETATM    2  C   UNL     1      -9.542  18.323  67.987  1.00  0.00    -0.304 C  
HETATM    3  N   UNL     1     -10.657  18.419  67.185  1.00  0.00    -0.402 NA 
HETATM    4  C   UNL     1     -10.592  19.702  66.525  1.00  0.00    -0.482 C  
HETATM    5  N   UNL     1      -8.904  19.444  68.229  1.00  0.00    -0.328 NA 
HETATM    6  C   UNL     1      -9.704  20.474  67.504  1.00  0.00    -0.414 C  
ENDBRANCH   1   2
BRANCH   1   7
HETATM    7  C   UNL     1     -10.175  16.071  68.999  1.00  0.00    -0.236 A  
HETATM    8  C   UNL     1     -10.854  16.341  70.203  1.00  0.00    -0.299 A  
HETATM    9  C   UNL     1     -12.166  14.339  69.946  1.00  0.00    -0.407 A  
HETATM   10  C   UNL     1     -11.540  14.060  68.725  1.00  0.00    -0.366 A  
HETATM   11  C   UNL     1     -11.837  15.479  70.675  1.00  0.00    -0.400 A  
HETATM   12  C   UNL     1     -11.905  12.917  67.994  1.00  0.00    -0.390 A  
HETATM   13  C   UNL     1     -11.307  12.626  66.770  1.00  0.00    -0.373 A  
HETATM   14  C   UNL     1     -10.336  13.476  66.260  1.00  0.00    -0.293 A  
HETATM   15  C   UNL     1      -9.953  14.612  66.978  1.00  0.00    -0.246 A  
HETATM   16  C   UNL     1     -10.538  14.934  68.225  1.00  0.00    -0.240 A  
ENDBRANCH   1   7
TORSDOF 2
ENDMDL
MODEL       42
REMARK 921   NORMALIZED FREE ENERGY PREDICTED BY IDOCK:   -4.89 KCAL/MOL
REMARK 922        TOTAL FREE ENERGY PREDICTED BY IDOCK:   -5.76 KCAL/MOL
REMARK 923 INTER-LIGAND FREE ENERGY PREDICTED BY IDOCK:   -5.53 KCAL/MOL
REMARK 924 INTRA-LIGAND FREE ENERGY PREDICTED BY IDOCK:   -0.22 KCAL/MOL
REMARK 927      BINDING AFFINITY PREDICTED BY RF-SCORE:    0.00 PKD
ROOT
HETATM    1  C   UNL     1     -12.159  13.609  68.487  1.00  0.00    -0.321 C  
ENDROOT
BRANCH   1   2
HETATM    2  C   UNL     1     -11.245  14.777  68.770  1.00  0.00    -0.270 C  
HETATM    3  N   UNL     1     -11.597  16.085  68.525  1.00  0.00    -0.367 NA 
HETATM    4  C   UNL     1     -10.383  16.865  68.576  1.00  0.00    -0.336 C  
HETATM    5  N   UNL     1     -10.058  14.584  69.294  1.00  0.00    -0.133 NA 
HETATM    6  C   UNL     1      -9.510  15.963  69.453  1.00  0.00    -0.248 C  
ENDBRANCH   1   2
BRANCH   1   7
HETATM    7  C   UNL     1     -11.584  12.563  67.551  1.00  0.00    -0.424 A  
HETATM    8  C   UNL     1     -10.941  11.453  68.130  1.00  0.00    -0.284 A  
HETATM    9  C   UNL     1     -10.371  10.608  65.949  1.00  0.00    -0.291 A  
HETATM   10  C   UNL     1     -11.035  11.679  65.338  1.00  0.00    -0.328 A  
HETATM   11  C   UNL     1     -10.336  10.486  67.336  1.00  0.00    -0.269 A  
HETATM   12  C   UNL     1     -11.080  11.769  63.936  1.00  0.00    -0.482 A  
HETATM   13  C   UNL     1     -11.747  12.816  63.305  1.00  0.00    -0.444 A  
HETATM   14  C   UNL     1     -12.380  13.788  64.068  1.00  0.00    -0.370 A  
HETATM   15  C   UNL     1     -12.337  13.719  65.463  1.00  0.00    -0.507 A  
HETATM   16  C   UNL     1     -11.666  12.671  66.135  1.00  0.00    -0.461 A  
ENDBRANCH   1   7
TORSDOF 2
ENDMDL
MODEL       43
REMARK 921   NORMALIZED FREE ENERGY PREDICTED BY IDOCK:   -4.89 KCAL/MOL
REMARK 922        TOTAL FREE ENERGY PREDICTED BY IDOCK:   -5.74 KCAL/MOL
REMARK 923 INTER-LIGAND FREE ENERGY PREDICTED BY IDOCK:   -5.52 KCAL/MOL
REMARK 924 INTRA-LIGAND FREE ENERGY PREDICTED BY IDOCK:   -0.23 KCAL/MOL
REMARK 927      BINDING AFFINITY PREDICTED BY RF-SCORE:    0.00 PKD
ROOT
HETATM    1  C   UNL     1     -11.857  15.870  68.585  1.00  0.00    -0.243 C  
ENDROOT
BRANCH   1   2
HETATM    2  C   UNL     1     -10.545  16.615  68.562  1.00  0.00    -0.338 C  
HETATM    3  N   UNL     1      -9.327  15.990  68.417  1.00  0.00    -0.202 NA 
HETATM    4  C   UNL     1      -8.314  16.949  68.792  1.00  0.00    -0.240 C  
HETATM    5  N   UNL     1     -10.517  17.923  68.660  1.00  0.00    -0.322 NA 
HETATM    6  C   UNL     1      -9.067  18.259  68.549  1.00  0.00    -0.311 C  
ENDBRANCH   1   2
BRANCH   1   7
HETATM    7  C   UNL     1     -11.754  14.390  68.268  1.00  0.00    -0.376 A  
HETATM    8  C   UNL     1     -11.659  13.496  69.350  1.00  0.00    -0.369 A  
HETATM    9  C   UNL     1     -11.442  11.638  67.835  1.00  0.00    -0.381 A  
HETATM   10  C   UNL     1     -11.572  12.494  66.734  1.00  0.00    -0.446 A  
HETATM   11  C   UNL     1     -11.499  12.132  69.135  1.00  0.00    -0.352 A  
HETATM   12  C   UNL     1     -11.536  11.971  65.430  1.00  0.00    -0.343 A  
HETATM   13  C   UNL     1     -11.679  12.799  64.320  1.00  0.00    -0.443 A  
HETATM   14  C   UNL     1     -11.861  14.164  64.499  1.00  0.00    -0.451 A  
HETATM   15  C   UNL     1     -11.889  14.702  65.788  1.00  0.00    -0.274 A  
HETATM   16  C   UNL     1     -11.744  13.889  66.936  1.00  0.00    -0.425 A  
ENDBRANCH   1   7
TORSDOF 2
ENDMDL
MODEL       44
REMARK 921   NORMALIZED FREE ENERGY PREDICTED BY IDOCK:   -4.88 KCAL/MOL
REMARK 922        TOTAL FREE ENERGY PREDICTED BY IDOCK:   -5.73 KCAL/MOL
REMARK 923 INTER-LIGAND FREE ENERGY PREDICTED BY IDOCK:   -5.66 KCAL/MOL
REMARK 924 INTRA-LIGAND FREE ENERGY PREDICTED BY IDOCK:   -0.07 KCAL/MOL
REMARK 927      BINDING AFFINITY PREDICTED BY RF-SCORE:    0.00 PKD
ROOT
HETATM    1  C   UNL     1     -11.563  15.202  68.140  1.00  0.00    -0.358 C  
ENDROOT
BRANCH   1   2
HETATM    2  C   UNL     1     -11.917  15.359  69.599  1.00  0.00    -0.343 C  
HETATM    3  N   UNL     1     -12.915  14.637  70.213  1.00  0.00    -0.218 NA 
HETATM    4  C   UNL     1     -13.197  15.292  71.469  1.00  0.00    -0.459 C  
HETATM    5  N   UNL     1     -11.255  16.197  70.361  1.00  0.00    -0.385 NA 
HETATM    6  C   UNL     1     -11.871  16.018  71.708  1.00  0.00    -0.519 C  
ENDBRANCH   1   2
BRANCH   1   7
HETATM    7  C   UNL     1     -11.148  13.801  67.734  1.00  0.00    -0.288 A  
HETATM    8  C   UNL     1     -10.559  12.984  68.717  1.00  0.00    -0.218 A  
HETATM    9  C   UNL     1     -10.224  11.229  67.104  1.00  0.00    -0.235 A  
HETATM   10  C   UNL     1     -10.841  11.999  66.108  1.00  0.00    -0.325 A  
HETATM   11  C   UNL     1     -10.097  11.711  68.403  1.00  0.00    -0.207 A  
HETATM   12  C   UNL     1     -10.982  11.483  64.809  1.00  0.00    -0.338 A  
HETATM   13  C   UNL     1     -11.605  12.223  63.807  1.00  0.00    -0.555 A  
HETATM   14  C   UNL     1     -12.096  13.489  64.091  1.00  0.00    -0.488 A  
HETATM   15  C   UNL     1     -11.955  14.022  65.375  1.00  0.00    -0.386 A  
HETATM   16  C   UNL     1     -11.326  13.299  66.414  1.00  0.00    -0.341 A  
ENDBRANCH   1   7
TORSDOF 2
ENDMDL
MODEL       45
REMARK 921   NORMALIZED FREE ENERGY PREDICTED BY IDOCK:   -4.87 KCAL/MOL
REMARK 922        TOTAL FREE ENERGY PREDICTED BY IDOCK:   -5.73 KCAL/MOL
REMARK 923 INTER-LIGAND FREE ENERGY PREDICTED BY IDOCK:   -5.42 KCAL/MOL
REMARK 924 INTRA-LIGAND FREE ENERGY PREDICTED BY IDOCK:   -0.31 KCAL/MOL
REMARK 927      BINDING AFFINITY PREDICTED BY RF-SCORE:    0.00 PKD
ROOT
HETATM    1  C   UNL     1     -10.644  16.007  66.256  1.00  0.00    -0.288 C  
ENDROOT
BRANCH   1   2
HETATM    2  C   UNL     1      -9.204  16.452  66.338  1.00  0.00    -0.302 C  
HETATM    3  N   UNL     1      -8.193  15.645  66.807  1.00  0.00    -0.255 NA 
HETATM    4  C   UNL     1      -7.059  16.500  67.069  1.00  0.00    -0.212 C  
HETATM    5  N   UNL     1      -8.851  17.650  65.935  1.00  0.00    -0.520 NA 
HETATM    6  C   UNL     1      -7.372  17.672  66.136  1.00  0.00    -0.309 C  
ENDBRANCH   1   2
BRANCH   1   7
HETATM    7  C   UNL     1     -11.131  15.205  67.447  1.00  0.00    -0.325 A  
HETATM    8  C   UNL     1     -11.544  15.918  68.589  1.00  0.00    -0.383 A  
HETATM    9  C   UNL     1     -11.946  13.858  69.767  1.00  0.00    -0.398 A  
HETATM   10  C   UNL     1     -11.580  13.116  68.637  1.00  0.00    -0.356 A  
HETATM   11  C   UNL     1     -11.943  15.250  69.740  1.00  0.00    -0.374 A  
HETATM   12  C   UNL     1     -11.614  11.711  68.678  1.00  0.00    -0.373 A  
HETATM   13  C   UNL     1     -11.269  10.952  67.563  1.00  0.00    -0.364 A  
HETATM   14  C   UNL     1     -10.885  11.588  66.390  1.00  0.00    -0.334 A  
HETATM   15  C   UNL     1     -10.836  12.983  66.335  1.00  0.00    -0.294 A  
HETATM   16  C   UNL     1     -11.177  13.783  67.449  1.00  0.00    -0.330 A  
ENDBRANCH   1   7
TORSDOF 2
ENDMDL
MODEL       46
REMARK 921   NORMALIZED FREE ENERGY PREDICTED BY IDOCK:   -4.87 KCAL/MOL
REMARK 922        TOTAL FREE ENERGY PREDICTED BY IDOCK:   -5.72 KCAL/MOL
REMARK 923 INTER-LIGAND FREE ENERGY PREDICTED BY IDOCK:   -5.42 KCAL/MOL
REMARK 924 INTRA-LIGAND FREE ENERGY PREDICTED BY IDOCK:   -0.30 KCAL/MOL
REMARK 927      BINDING AFFINITY PREDICTED BY RF-SCORE:    0.00 PKD
ROOT
HETATM    1  C   UNL     1      -9.931  18.051  66.902  1.00  0.00    -0.340 C  
ENDROOT
BRANCH   1   2
HETATM    2  C   UNL     1      -8.424  18.110  66.951  1.00  0.00    -0.253 C  
HETATM    3  N   UNL     1      -7.635  18.144  65.822  1.00  0.00    -0.543 NA 
HETATM    4  C   UNL     1      -6.287  17.841  66.242  1.00  0.00    -0.234 C  
HETATM    5  N   UNL     1      -7.793  18.156  68.100  1.00  0.00    -0.271 NA 
HETATM    6  C   UNL     1      -6.355  18.253  67.715  1.00  0.00    -0.185 C  
ENDBRANCH   1   2
BRANCH   1   7
HETATM    7  C   UNL     1     -10.508  16.657  66.740  1.00  0.00    -0.261 A  
HETATM    8  C   UNL     1     -10.590  16.133  65.437  1.00  0.00    -0.399 A  
HETATM    9  C   UNL     1     -11.655  14.142  66.272  1.00  0.00    -0.379 A  
HETATM   10  C   UNL     1     -11.554  14.615  67.587  1.00  0.00    -0.383 A  
HETATM   11  C   UNL     1     -11.164  14.888  65.204  1.00  0.00    -0.389 A  
HETATM   12  C   UNL     1     -12.035  13.834  68.652  1.00  0.00    -0.401 A  
HETATM   13  C   UNL     1     -11.932  14.276  69.968  1.00  0.00    -0.396 A  
HETATM   14  C   UNL     1     -11.346  15.505  70.238  1.00  0.00    -0.348 A  
HETATM   15  C   UNL     1     -10.872  16.299  69.190  1.00  0.00    -0.314 A  
HETATM   16  C   UNL     1     -10.964  15.881  67.842  1.00  0.00    -0.327 A  
ENDBRANCH   1   7
TORSDOF 2
ENDMDL
MODEL       47
REMARK 921   NORMALIZED FREE ENERGY PREDICTED BY IDOCK:   -4.86 KCAL/MOL
REMARK 922        TOTAL FREE ENERGY PREDICTED BY IDOCK:   -5.72 KCAL/MOL
REMARK 923 INTER-LIGAND FREE ENERGY PREDICTED BY IDOCK:   -5.64 KCAL/MOL
REMARK 924 INTRA-LIGAND FREE ENERGY PREDICTED BY IDOCK:   -0.08 KCAL/MOL
REMARK 927      BINDING AFFINITY PREDICTED BY RF-SCORE:    0.00 PKD
ROOT
HETATM    1  C   UNL     1     -10.613  12.209  67.234  1.00  0.00    -0.255 C  
ENDROOT
BRANCH   1   2
HETATM    2  C   UNL     1     -11.184  12.203  65.836  1.00  0.00    -0.339 C  
HETATM    3  N   UNL     1     -10.479  11.769  64.737  1.00  0.00    -0.278 NA 
HETATM    4  C   UNL     1     -11.192  12.234  63.570  1.00  0.00    -0.460 C  
HETATM    5  N   UNL     1     -12.415  12.601  65.616  1.00  0.00    -0.620 NA 
HETATM    6  C   UNL     1     -12.599  12.398  64.149  1.00  0.00    -0.403 C  
ENDBRANCH   1   2
BRANCH   1   7
HETATM    7  C   UNL     1     -11.016  13.401  68.080  1.00  0.00    -0.277 A  
HETATM    8  C   UNL     1     -11.806  13.155  69.219  1.00  0.00    -0.377 A  
HETATM    9  C   UNL     1     -11.935  15.515  69.677  1.00  0.00    -0.380 A  
HETATM   10  C   UNL     1     -11.118  15.795  68.574  1.00  0.00    -0.335 A  
HETATM   11  C   UNL     1     -12.266  14.203  70.007  1.00  0.00    -0.418 A  
HETATM   12  C   UNL     1     -10.776  17.124  68.273  1.00  0.00    -0.363 A  
HETATM   13  C   UNL     1      -9.953  17.426  67.192  1.00  0.00    -0.291 A  
HETATM   14  C   UNL     1      -9.460  16.402  66.395  1.00  0.00    -0.320 A  
HETATM   15  C   UNL     1      -9.798  15.075  66.674  1.00  0.00    -0.266 A  
HETATM   16  C   UNL     1     -10.634  14.734  67.762  1.00  0.00    -0.257 A  
ENDBRANCH   1   7
TORSDOF 2
ENDMDL
MODEL       48
REMARK 921   NORMALIZED FREE ENERGY PREDICTED BY IDOCK:   -4.86 KCAL/MOL
REMARK 922        TOTAL FREE ENERGY PREDICTED BY IDOCK:   -5.72 KCAL/MOL
REMARK 923 INTER-LIGAND FREE ENERGY PREDICTED BY IDOCK:   -5.40 KCAL/MOL
REMARK 924 INTRA-LIGAND FREE ENERGY PREDICTED BY IDOCK:   -0.32 KCAL/MOL
REMARK 927      BINDING AFFINITY PREDICTED BY RF-SCORE:    0.00 PKD
ROOT
HETATM    1  C   UNL     1     -12.134  15.801  69.618  1.00  0.00    -0.282 C  
ENDROOT
BRANCH   1   2
HETATM    2  C   UNL     1     -12.544  15.210  70.945  1.00  0.00    -0.379 C  
HETATM    3  N   UNL     1     -12.900  13.890  71.103  1.00  0.00    -0.349 NA 
HETATM    4  C   UNL     1     -13.554  13.781  72.386  1.00  0.00    -0.588 C  
HETATM    5  N   UNL     1     -12.555  15.947  72.030  1.00  0.00    -0.454 NA 
HETATM    6  C   UNL     1     -12.962  14.995  73.105  1.00  0.00    -0.522 C  
ENDBRANCH   1   2
BRANCH   1   7
HETATM    7  C   UNL     1     -10.890  15.187  69.005  1.00  0.00    -0.242 A  
HETATM    8  C   UNL     1      -9.646  15.550  69.555  1.00  0.00    -0.278 A  
HETATM    9  C   UNL     1      -8.497  14.225  67.906  1.00  0.00    -0.168 A  
HETATM   10  C   UNL     1      -9.718  13.811  67.358  1.00  0.00    -0.235 A  
HETATM   11  C   UNL     1      -8.459  15.077  69.006  1.00  0.00    -0.200 A  
HETATM   12  C   UNL     1      -9.733  12.931  66.262  1.00  0.00    -0.268 A  
HETATM   13  C   UNL     1     -10.934  12.494  65.710  1.00  0.00    -0.327 A  
HETATM   14  C   UNL     1     -12.138  12.931  66.245  1.00  0.00    -0.433 A  
HETATM   15  C   UNL     1     -12.141  13.815  67.328  1.00  0.00    -0.393 A  
HETATM   16  C   UNL     1     -10.939  14.280  67.911  1.00  0.00    -0.278 A  
ENDBRANCH   1   7
TORSDOF 2
ENDMDL
MODEL       49
REMARK 921   NORMALIZED FREE ENERGY PREDICTED BY IDOCK:   -4.86 KCAL/MOL
REMARK 922        TOTAL FREE ENERGY PREDICTED BY IDOCK:   -5.71 KCAL/MOL
REMARK 923 INTER-LIGAND FREE ENERGY PREDICTED BY IDOCK:   -5.65 KCAL/MOL
REMARK 924 INTRA-LIGAND FREE ENERGY PREDICTED BY IDOCK:   -0.06 KCAL/MOL
REMARK 927      BINDING AFFINITY PREDICTED BY RF-SCORE:    0.00 PKD
ROOT
HETATM    1  C   UNL     1     -10.793  16.750  65.473  1.00  0.00    -0.135 C  
ENDROOT
BRANCH   1   2
HETATM    2  C   UNL     1     -10.173  17.789  66.377  1.00  0.00    -0.365 C  
HETATM    3  N   UNL     1     -10.680  18.107  67.616  1.00  0.00    -0.399 NA 
HETATM    4  C   UNL     1     -10.063  19.350  68.017  1.00  0.00    -0.412 C  
HETATM    5  N   UNL     1      -9.087  18.428  66.013  1.00  0.00    -0.498 NA 
HETATM    6  C   UNL     1      -8.783  19.308  67.179  1.00  0.00    -0.290 C  
ENDBRANCH   1   2
BRANCH   1   7
HETATM    7  C   UNL     1     -10.391  15.320  65.781  1.00  0.00    -0.364 A  
HETATM    8  C   UNL     1      -9.443  15.113  66.800  1.00  0.00    -0.260 A  
HETATM    9  C   UNL     1      -9.466  12.742  66.382  1.00  0.00    -0.229 A  
HETATM   10  C   UNL     1     -10.439  12.906  65.388  1.00  0.00    -0.308 A  
HETATM   11  C   UNL     1      -8.981  13.835  67.095  1.00  0.00    -0.241 A  
HETATM   12  C   UNL     1     -10.933  11.786  64.698  1.00  0.00    -0.368 A  
HETATM   13  C   UNL     1     -11.912  11.921  63.717  1.00  0.00    -0.547 A  
HETATM   14  C   UNL     1     -12.410  13.181  63.411  1.00  0.00    -0.443 A  
HETATM   15  C   UNL     1     -11.923  14.306  64.080  1.00  0.00    -0.401 A  
HETATM   16  C   UNL     1     -10.928  14.204  65.080  1.00  0.00    -0.391 A  
ENDBRANCH   1   7
TORSDOF 2
ENDMDL
MODEL       50
REMARK 921   NORMALIZED FREE ENERGY PREDICTED BY IDOCK:   -4.85 KCAL/MOL
REMARK 922        TOTAL FREE ENERGY PREDICTED BY IDOCK:   -5.71 KCAL/MOL
REMARK 923 INTER-LIGAND FREE ENERGY PREDICTED BY IDOCK:   -5.69 KCAL/MOL
REMARK 924 INTRA-LIGAND FREE ENERGY PREDICTED BY IDOCK:   -0.01 KCAL/MOL
REMARK 927      BINDING AFFINITY PREDICTED BY RF-SCORE:    0.00 PKD
ROOT
HETATM    1  C   UNL     1     -11.326  10.700  68.495  1.00  0.00    -0.348 C  
ENDROOT
BRANCH   1   2
HETATM    2  C   UNL     1     -11.631  10.261  69.906  1.00  0.00    -0.256 C  
HETATM    3  N   UNL     1     -10.684   9.727  70.750  1.00  0.00    -0.321 NA 
HETATM    4  C   UNL     1     -11.395   9.113  71.847  1.00  0.00    -0.346 C  
HETATM    5  N   UNL     1     -12.838  10.396  70.402  1.00  0.00    -0.265 NA 
HETATM    6  C   UNL     1     -12.707   9.900  71.803  1.00  0.00    -0.428 C  
ENDBRANCH   1   2
BRANCH   1   7
HETATM    7  C   UNL     1     -11.473  12.189  68.246  1.00  0.00    -0.360 A  
HETATM    8  C   UNL     1     -11.448  13.042  69.364  1.00  0.00    -0.323 A  
HETATM    9  C   UNL     1     -11.848  14.952  67.954  1.00  0.00    -0.286 A  
HETATM   10  C   UNL     1     -11.840  14.137  66.814  1.00  0.00    -0.449 A  
HETATM   11  C   UNL     1     -11.639  14.412  69.220  1.00  0.00    -0.345 A  
HETATM   12  C   UNL     1     -12.028  14.707  65.543  1.00  0.00    -0.256 A  
HETATM   13  C   UNL     1     -12.009  13.920  64.395  1.00  0.00    -0.480 A  
HETATM   14  C   UNL     1     -11.801  12.552  64.501  1.00  0.00    -0.448 A  
HETATM   15  C   UNL     1     -11.622  11.968  65.757  1.00  0.00    -0.353 A  
HETATM   16  C   UNL     1     -11.638  12.737  66.943  1.00  0.00    -0.428 A  
ENDBRANCH   1   7
TORSDOF 2
ENDMDL
MODEL       51
REMARK 921   NORMALIZED FREE ENERGY PREDICTED BY IDOCK:   -4.84 KCAL/MOL
REMARK 922        TOTAL FREE ENERGY PREDICTED BY IDOCK:   -5.70 KCAL/MOL
REMARK 923 INTER-LIGAND FREE ENERGY PREDICTED BY IDOCK:   -5.41 KCAL/MOL
REMARK 924 INTRA-LIGAND FREE ENERGY PREDICTED BY IDOCK:   -0.28 KCAL/MOL
REMARK 927      BINDING AFFINITY PREDICTED BY RF-SCORE:    0.00 PKD
ROOT
HETATM    1  C   UNL     1     -12.625   9.559  70.720  1.00  0.00    -0.158 C  
ENDROOT
BRANCH   1   2
HETATM    2  C   UNL     1     -11.485   8.901  71.460  1.00  0.00    -0.321 C  
HETATM    3  N   UNL     1     -11.663   7.869  72.353  1.00  0.00    -0.355 NA 
HETATM    4  C   UNL     1     -10.437   7.747  73.105  1.00  0.00    -0.349 C  
HETATM    5  N   UNL     1     -10.247   9.285  71.257  1.00  0.00    -0.319 NA 
HETATM    6  C   UNL     1      -9.444   8.373  72.124  1.00  0.00    -0.290 C  
ENDBRANCH   1   2
BRANCH   1   7
HETATM    7  C   UNL     1     -12.449  11.045  70.472  1.00  0.00    -0.432 A  
HETATM    8  C   UNL     1     -12.745  11.922  71.531  1.00  0.00    -0.379 A  
HETATM    9  C   UNL     1     -12.282  13.822  70.128  1.00  0.00    -0.425 A  
HETATM   10  C   UNL     1     -11.941  12.978  69.063  1.00  0.00    -0.312 A  
HETATM   11  C   UNL     1     -12.667  13.300  71.359  1.00  0.00    -0.401 A  
HETATM   12  C   UNL     1     -11.530  13.527  67.836  1.00  0.00    -0.353 A  
HETATM   13  C   UNL     1     -11.172  12.708  66.768  1.00  0.00    -0.347 A  
HETATM   14  C   UNL     1     -11.219  11.329  66.912  1.00  0.00    -0.300 A  
HETATM   15  C   UNL     1     -11.635  10.766  68.122  1.00  0.00    -0.276 A  
HETATM   16  C   UNL     1     -12.008  11.568  69.225  1.00  0.00    -0.397 A  
ENDBRANCH   1   7
TORSDOF 2
ENDMDL
MODEL       52
REMARK 921   NORMALIZED FREE ENERGY PREDICTED BY IDOCK:   -4.81 KCAL/MOL
REMARK 922        TOTAL FREE ENERGY PREDICTED BY IDOCK:   -5.66 KCAL/MOL
REMARK 923 INTER-LIGAND FREE ENERGY PREDICTED BY IDOCK:   -5.37 KCAL/MOL
REMARK 924 INTRA-LIGAND FREE ENERGY PREDICTED BY IDOCK:   -0.30 KCAL/MOL
REMARK 927      BINDING AFFINITY PREDICTED BY RF-SCORE:    0.00 PKD
ROOT
HETATM    1  C   UNL     1     -11.230  15.934  65.563  1.00  0.00    -0.049 C  
ENDROOT
BRANCH   1   2
HETATM    2  C   UNL     1     -10.162  16.879  66.058  1.00  0.00    -0.336 C  
HETATM    3  N   UNL     1      -8.817  16.669  65.851  1.00  0.00    -0.502 NA 
HETATM    4  C   UNL     1      -8.110  17.555  66.746  1.00  0.00    -0.244 C  
HETATM    5  N   UNL     1     -10.486  17.975  66.702  1.00  0.00    -0.350 NA 
HETATM    6  C   UNL     1      -9.173  18.634  66.967  1.00  0.00    -0.291 C  
ENDBRANCH   1   2
BRANCH   1   7
HETATM    7  C   UNL     1     -11.344  14.638  66.343  1.00  0.00    -0.348 A  
HETATM    8  C   UNL     1     -11.798  14.714  67.673  1.00  0.00    -0.366 A  
HETATM    9  C   UNL     1     -11.496  12.342  67.945  1.00  0.00    -0.385 A  
HETATM   10  C   UNL     1     -11.076  12.222  66.614  1.00  0.00    -0.344 A  
HETATM   11  C   UNL     1     -11.869  13.577  68.469  1.00  0.00    -0.398 A  
HETATM   12  C   UNL     1     -10.727  10.962  66.099  1.00  0.00    -0.225 A  
HETATM   13  C   UNL     1     -10.322  10.815  64.775  1.00  0.00    -0.380 A  
HETATM   14  C   UNL     1     -10.260  11.927  63.947  1.00  0.00    -0.420 A  
HETATM   15  C   UNL     1     -10.593  13.189  64.446  1.00  0.00    -0.441 A  
HETATM   16  C   UNL     1     -11.006  13.373  65.785  1.00  0.00    -0.288 A  
ENDBRANCH   1   7
TORSDOF 2
ENDMDL
MODEL       53
REMARK 921   NORMALIZED FREE ENERGY PREDICTED BY IDOCK:   -4.79 KCAL/MOL
REMARK 922        TOTAL FREE ENERGY PREDICTED BY IDOCK:   -5.63 KCAL/MOL
REMARK 923 INTER-LIGAND FREE ENERGY PREDICTED BY IDOCK:   -5.58 KCAL/MOL
REMARK 924 INTRA-LIGAND FREE ENERGY PREDICTED BY IDOCK:   -0.05 KCAL/MOL
REMARK 927      BINDING AFFINITY PREDICTED BY RF-SCORE:    0.00 PKD
ROOT
HETATM    1  C   UNL     1     -12.699  11.110  71.471  1.00  0.00    -0.499 C  
ENDROOT
BRANCH   1   2
HETATM    2  C   UNL     1     -12.276  11.674  70.136  1.00  0.00    -0.288 C  
HETATM    3  N   UNL     1     -11.956  13.000  69.946  1.00  0.00    -0.330 NA 
HETATM    4  C   UNL     1     -11.953  13.232  68.520  1.00  0.00    -0.304 C  
HETATM    5  N   UNL     1     -12.175  10.897  69.083  1.00  0.00    -0.428 NA 
HETATM    6  C   UNL     1     -11.696  11.813  68.007  1.00  0.00    -0.293 C  
ENDBRANCH   1   2
BRANCH   1   7
HETATM    7  C   UNL     1     -12.840   9.601  71.507  1.00  0.00    -0.485 A  
HETATM    8  C   UNL     1     -14.141   9.066  71.461  1.00  0.00    -0.299 A  
HETATM    9  C   UNL     1     -13.265   6.835  71.682  1.00  0.00    -0.235 A  
HETATM   10  C   UNL     1     -11.954   7.328  71.691  1.00  0.00    -0.341 A  
HETATM   11  C   UNL     1     -14.352   7.695  71.553  1.00  0.00    -0.589 A  
HETATM   12  C   UNL     1     -10.870   6.440  71.798  1.00  0.00    -0.283 A  
HETATM   13  C   UNL     1      -9.558   6.906  71.794  1.00  0.00    -0.162 A  
HETATM   14  C   UNL     1      -9.311   8.267  71.684  1.00  0.00    -0.254 A  
HETATM   15  C   UNL     1     -10.377   9.165  71.587  1.00  0.00    -0.388 A  
HETATM   16  C   UNL     1     -11.721   8.726  71.591  1.00  0.00    -0.402 A  
ENDBRANCH   1   7
TORSDOF 2
ENDMDL
MODEL       54
REMARK 921   NORMALIZED FREE ENERGY PREDICTED BY IDOCK:   -4.76 KCAL/MOL
REMARK 922        TOTAL FREE ENERGY PREDICTED BY IDOCK:   -5.61 KCAL/MOL
REMARK 923 INTER-LIGAND FREE ENERGY PREDICTED BY IDOCK:   -5.30 KCAL/MOL
REMARK 924 INTRA-LIGAND FREE ENERGY PREDICTED BY IDOCK:   -0.31 KCAL/MOL
REMARK 927      BINDING AFFINITY PREDICTED BY RF-SCORE:    0.00 PKD
ROOT
HETATM    1  C   UNL     1     -11.923  13.996  67.460  1.00  0.00    -0.430 C  
ENDROOT
BRANCH   1   2
HETATM    2  C   UNL     1     -11.040  15.108  67.970  1.00  0.00    -0.308 C  
HETATM    3  N   UNL     1     -11.511  16.153  68.734  1.00  0.00    -0.364 NA 
HETATM    4  C   UNL     1     -10.488  17.173  68.728  1.00  0.00    -0.351 C  
HETATM    5  N   UNL     1      -9.753  15.110  67.716  1.00  0.00    -0.211 NA 
HETATM    6  C   UNL     1      -9.251  16.325  68.422  1.00  0.00    -0.203 C  
ENDBRANCH   1   2
BRANCH   1   7
HETATM    7  C   UNL     1     -11.680  12.645  68.105  1.00  0.00    -0.396 A  
HETATM    8  C   UNL     1     -12.009  12.504  69.467  1.00  0.00    -0.329 A  
HETATM    9  C   UNL     1     -11.181  10.244  69.464  1.00  0.00    -0.314 A  
HETATM   10  C   UNL     1     -10.878  10.334  68.100  1.00  0.00    -0.312 A  
HETATM   11  C   UNL     1     -11.756  11.315  70.142  1.00  0.00    -0.429 A  
HETATM   12  C   UNL     1     -10.320   9.232  67.430  1.00  0.00    -0.327 A  
HETATM   13  C   UNL     1     -10.025   9.293  66.071  1.00  0.00    -0.325 A  
HETATM   14  C   UNL     1     -10.282  10.458  65.362  1.00  0.00    -0.329 A  
HETATM   15  C   UNL     1     -10.827  11.567  66.014  1.00  0.00    -0.330 A  
HETATM   16  C   UNL     1     -11.136  11.539  67.394  1.00  0.00    -0.339 A  
ENDBRANCH   1   7
TORSDOF 2
ENDMDL
MODEL       55
REMARK 921   NORMALIZED FREE ENERGY PREDICTED BY IDOCK:   -4.75 KCAL/MOL
REMARK 922        TOTAL FREE ENERGY PREDICTED BY IDOCK:   -5.60 KCAL/MOL
REMARK 923 INTER-LIGAND FREE ENERGY PREDICTED BY IDOCK:   -5.30 KCAL/MOL
REMARK 924 INTRA-LIGAND FREE ENERGY PREDICTED BY IDOCK:   -0.30 KCAL/MOL
REMARK 927      BINDING AFFINITY PREDICTED BY RF-SCORE:    0.00 PKD
ROOT
HETATM    1  C   UNL     1     -11.968  13.571  68.241  1.00  0.00    -0.377 C  
ENDROOT
BRANCH   1   2
HETATM    2  C   UNL     1     -11.244  12.247  68.222  1.00  0.00    -0.267 C  
HETATM    3  N   UNL     1     -11.871  11.051  67.952  1.00  0.00    -0.608 NA 
HETATM    4  C   UNL     1     -10.970  10.001  68.366  1.00  0.00    -0.217 C  
HETATM    5  N   UNL     1      -9.953  12.187  68.447  1.00  0.00    -0.211 NA 
HETATM    6  C   UNL     1      -9.630  10.738  68.294  1.00  0.00    -0.166 C  
ENDBRANCH   1   2
BRANCH   1   7
HETATM    7  C   UNL     1     -11.616  14.504  67.098  1.00  0.00    -0.406 A  
HETATM    8  C   UNL     1     -11.892  14.065  65.789  1.00  0.00    -0.393 A  
HETATM    9  C   UNL     1     -10.916  16.068  64.878  1.00  0.00    -0.399 A  
HETATM   10  C   UNL     1     -10.661  16.555  66.167  1.00  0.00    -0.239 A  
HETATM   11  C   UNL     1     -11.541  14.839  64.689  1.00  0.00    -0.401 A  
HETATM   12  C   UNL     1     -10.051  17.810  66.336  1.00  0.00    -0.357 A  
HETATM   13  C   UNL     1      -9.802  18.321  67.607  1.00  0.00    -0.328 A  
HETATM   14  C   UNL     1     -10.158  17.584  68.727  1.00  0.00    -0.363 A  
HETATM   15  C   UNL     1     -10.756  16.329  68.578  1.00  0.00    -0.307 A  
HETATM   16  C   UNL     1     -11.021  15.780  67.302  1.00  0.00    -0.259 A  
ENDBRANCH   1   7
TORSDOF 2
ENDMDL
MODEL       56
REMARK 921   NORMALIZED FREE ENERGY PREDICTED BY IDOCK:   -4.72 KCAL/MOL
REMARK 922        TOTAL FREE ENERGY PREDICTED BY IDOCK:   -5.56 KCAL/MOL
REMARK 923 INTER-LIGAND FREE ENERGY PREDICTED BY IDOCK:   -5.30 KCAL/MOL
REMARK 924 INTRA-LIGAND FREE ENERGY PREDICTED BY IDOCK:   -0.26 KCAL/MOL
REMARK 927      BINDING AFFINITY PREDICTED BY RF-SCORE:    0.00 PKD
ROOT
HETATM    1  C   UNL     1     -11.345  11.260  68.615  1.00  0.00    -0.336 C  
ENDROOT
BRANCH   1   2
HETATM    2  C   UNL     1     -10.019  10.569  68.827  1.00  0.00    -0.192 C  
HETATM    3  N   UNL     1      -9.910   9.249  69.203  1.00  0.00    -0.162 NA 
HETATM    4  C   UNL     1      -8.550   9.048  69.644  1.00  0.00    -0.137 C  
HETATM    5  N   UNL     1      -8.892  11.211  68.633  1.00  0.00    -0.164 NA 
HETATM    6  C   UNL     1      -7.844  10.182  68.896  1.00  0.00    -0.100 C  
ENDBRANCH   1   2
BRANCH   1   7
HETATM    7  C   UNL     1     -11.998  11.782  69.881  1.00  0.00    -0.405 A  
HETATM    8  C   UNL     1     -12.612  10.845  70.732  1.00  0.00    -0.470 A  
HETATM    9  C   UNL     1     -13.346  12.609  72.196  1.00  0.00    -0.570 A  
HETATM   10  C   UNL     1     -12.713  13.567  71.392  1.00  0.00    -0.423 A  
HETATM   11  C   UNL     1     -13.285  11.256  71.877  1.00  0.00    -0.491 A  
HETATM   12  C   UNL     1     -12.767  14.926  71.745  1.00  0.00    -0.401 A  
HETATM   13  C   UNL     1     -12.133  15.894  70.971  1.00  0.00    -0.438 A  
HETATM   14  C   UNL     1     -11.436  15.516  69.832  1.00  0.00    -0.338 A  
HETATM   15  C   UNL     1     -11.381  14.171  69.461  1.00  0.00    -0.308 A  
HETATM   16  C   UNL     1     -12.015  13.163  70.223  1.00  0.00    -0.366 A  
ENDBRANCH   1   7
TORSDOF 2
ENDMDL
MODEL       57
REMARK 921   NORMALIZED FREE ENERGY PREDICTED BY IDOCK:   -4.72 KCAL/MOL
REMARK 922        TOTAL FREE ENERGY PREDICTED BY IDOCK:   -5.56 KCAL/MOL
REMARK 923 INTER-LIGAND FREE ENERGY PREDICTED BY IDOCK:   -5.26 KCAL/MOL
REMARK 924 INTRA-LIGAND FREE ENERGY PREDICTED BY IDOCK:   -0.30 KCAL/MOL
REMARK 927      BINDING AFFINITY PREDICTED BY RF-SCORE:    0.00 PKD
ROOT
HETATM    1  C   UNL     1      -9.167  10.165  67.369  1.00  0.00    -0.156 C  
ENDROOT
BRANCH   1   2
HETATM    2  C   UNL     1      -9.779   8.821  67.682  1.00  0.00    -0.169 C  
HETATM    3  N   UNL     1     -10.105   8.421  68.958  1.00  0.00    -0.197 NA 
HETATM    4  C   UNL     1     -10.321   6.994  68.910  1.00  0.00    -0.190 C  
HETATM    5  N   UNL     1     -10.051   7.970  66.720  1.00  0.00    -0.277 NA 
HETATM    6  C   UNL     1     -10.674   6.815  67.431  1.00  0.00    -0.335 C  
ENDBRANCH   1   2
BRANCH   1   7
HETATM    7  C   UNL     1     -10.161  11.305  67.253  1.00  0.00    -0.226 A  
HETATM    8  C   UNL     1     -10.560  11.945  68.441  1.00  0.00    -0.239 A  
HETATM    9  C   UNL     1     -12.078  13.350  67.209  1.00  0.00    -0.352 A  
HETATM   10  C   UNL     1     -11.677  12.762  66.003  1.00  0.00    -0.470 A  
HETATM   11  C   UNL     1     -11.515  12.956  68.420  1.00  0.00    -0.347 A  
HETATM   12  C   UNL     1     -12.241  13.192  64.790  1.00  0.00    -0.477 A  
HETATM   13  C   UNL     1     -11.847  12.634  63.577  1.00  0.00    -0.619 A  
HETATM   14  C   UNL     1     -10.882  11.636  63.560  1.00  0.00    -0.497 A  
HETATM   15  C   UNL     1     -10.317  11.189  64.758  1.00  0.00    -0.387 A  
HETATM   16  C   UNL     1     -10.697  11.733  66.006  1.00  0.00    -0.324 A  
ENDBRANCH   1   7
TORSDOF 2
ENDMDL
MODEL       58
REMARK 921   NORMALIZED FREE ENERGY PREDICTED BY IDOCK:   -4.72 KCAL/MOL
REMARK 922        TOTAL FREE ENERGY PREDICTED BY IDOCK:   -5.56 KCAL/MOL
REMARK 923 INTER-LIGAND FREE ENERGY PREDICTED BY IDOCK:   -5.38 KCAL/MOL
REMARK 924 INTRA-LIGAND FREE ENERGY PREDICTED BY IDOCK:   -0.18 KCAL/MOL
REMARK 927      BINDING AFFINITY PREDICTED BY RF-SCORE:    0.00 PKD
ROOT
HETATM    1  C   UNL     1      -9.786  11.350  66.909  1.00  0.00    -0.213 C  
ENDROOT
BRANCH   1   2
HETATM    2  C   UNL     1     -10.546  11.066  68.182  1.00  0.00    -0.191 C  
HETATM    3  N   UNL     1      -9.983  10.443  69.272  1.00  0.00    -0.221 NA 
HETATM    4  C   UNL     1     -11.070  10.032  70.130  1.00  0.00    -0.310 C  
HETATM    5  N   UNL     1     -11.800  11.433  68.307  1.00  0.00    -0.567 NA 
HETATM    6  C   UNL     1     -12.156  11.019  69.696  1.00  0.00    -0.340 C  
ENDBRANCH   1   2
BRANCH   1   7
HETATM    7  C   UNL     1     -10.547  12.168  65.883  1.00  0.00    -0.293 A  
HETATM    8  C   UNL     1     -11.337  11.471  64.950  1.00  0.00    -0.189 A  
HETATM    9  C   UNL     1     -11.918  13.534  63.855  1.00  0.00    -0.491 A  
HETATM   10  C   UNL     1     -11.173  14.264  64.789  1.00  0.00    -0.387 A  
HETATM   11  C   UNL     1     -12.013  12.148  63.941  1.00  0.00    -0.581 A  
HETATM   12  C   UNL     1     -11.111  15.665  64.698  1.00  0.00    -0.387 A  
HETATM   13  C   UNL     1     -10.389  16.413  65.624  1.00  0.00    -0.371 A  
HETATM   14  C   UNL     1      -9.719  15.770  66.656  1.00  0.00    -0.266 A  
HETATM   15  C   UNL     1      -9.761  14.377  66.756  1.00  0.00    -0.278 A  
HETATM   16  C   UNL     1     -10.482  13.588  65.831  1.00  0.00    -0.292 A  
ENDBRANCH   1   7
TORSDOF 2
ENDMDL
MODEL       59
REMARK 921   NORMALIZED FREE ENERGY PREDICTED BY IDOCK:   -4.71 KCAL/MOL
REMARK 922        TOTAL FREE ENERGY PREDICTED BY IDOCK:   -5.55 KCAL/MOL
REMARK 923 INTER-LIGAND FREE ENERGY PREDICTED BY IDOCK:   -5.47 KCAL/MOL
REMARK 924 INTRA-LIGAND FREE ENERGY PREDICTED BY IDOCK:   -0.08 KCAL/MOL
REMARK 927      BINDING AFFINITY PREDICTED BY RF-SCORE:    0.00 PKD
ROOT
HETATM    1  C   UNL     1     -10.736  15.768  66.765  1.00  0.00    -0.293 C  
ENDROOT
BRANCH   1   2
HETATM    2  C   UNL     1      -9.986  17.041  67.071  1.00  0.00    -0.288 C  
HETATM    3  N   UNL     1     -10.300  18.255  66.502  1.00  0.00    -0.385 NA 
HETATM    4  C   UNL     1      -9.181  19.136  66.745  1.00  0.00    -0.320 C  
HETATM    5  N   UNL     1      -8.995  17.043  67.931  1.00  0.00    -0.224 NA 
HETATM    6  C   UNL     1      -8.567  18.472  67.980  1.00  0.00    -0.291 C  
ENDBRANCH   1   2
BRANCH   1   7
HETATM    7  C   UNL     1     -11.287  15.047  67.980  1.00  0.00    -0.339 A  
HETATM    8  C   UNL     1     -11.779  15.834  69.038  1.00  0.00    -0.405 A  
HETATM    9  C   UNL     1     -12.230  13.859  70.338  1.00  0.00    -0.438 A  
HETATM   10  C   UNL     1     -11.785  13.042  69.290  1.00  0.00    -0.375 A  
HETATM   11  C   UNL     1     -12.242  15.245  70.209  1.00  0.00    -0.403 A  
HETATM   12  C   UNL     1     -11.805  11.644  69.433  1.00  0.00    -0.408 A  
HETATM   13  C   UNL     1     -11.382  10.812  68.400  1.00  0.00    -0.367 A  
HETATM   14  C   UNL     1     -10.932  11.366  67.210  1.00  0.00    -0.336 A  
HETATM   15  C   UNL     1     -10.896  12.755  67.055  1.00  0.00    -0.282 A  
HETATM   16  C   UNL     1     -11.316  13.628  68.084  1.00  0.00    -0.321 A  
ENDBRANCH   1   7
TORSDOF 2
ENDMDL
MODEL       60
REMARK 921   NORMALIZED FREE ENERGY PREDICTED BY IDOCK:   -4.70 KCAL/MOL
REMARK 922        TOTAL FREE ENERGY PREDICTED BY IDOCK:   -5.54 KCAL/MOL
REMARK 923 INTER-LIGAND FREE ENERGY PREDICTED BY IDOCK:   -5.84 KCAL/MOL
REMARK 924 INTRA-LIGAND FREE ENERGY PREDICTED BY IDOCK:    0.31 KCAL/MOL
REMARK 927      BINDING AFFINITY PREDICTED BY RF-SCORE:    0.00 PKD
ROOT
HETATM    1  C   UNL     1     -12.128  14.586  70.292  1.00  0.00    -0.386 C  
ENDROOT
BRANCH   1   2
HETATM    2  C   UNL     1     -12.462  15.315  71.571  1.00  0.00    -0.361 C  
HETATM    3  N   UNL     1     -11.561  16.111  72.242  1.00  0.00    -0.414 NA 
HETATM    4  C   UNL     1     -12.102  16.339  73.561  1.00  0.00    -0.457 C  
HETATM    5  N   UNL     1     -13.663  15.231  72.093  1.00  0.00    -0.446 NA 
HETATM    6  C   UNL     1     -13.592  16.113  73.295  1.00  0.00    -0.281 C  
ENDBRANCH   1   2
BRANCH   1   7
HETATM    7  C   UNL     1     -12.249  13.076  70.370  1.00  0.00    -0.386 A  
HETATM    8  C   UNL     1     -12.846  12.529  71.521  1.00  0.00    -0.367 A  
HETATM    9  C   UNL     1     -12.438  10.300  70.708  1.00  0.00    -0.439 A  
HETATM   10  C   UNL     1     -11.873  10.809  69.532  1.00  0.00    -0.380 A  
HETATM   11  C   UNL     1     -12.935  11.152  71.691  1.00  0.00    -0.548 A  
HETATM   12  C   UNL     1     -11.399   9.931  68.542  1.00  0.00    -0.049 A  
HETATM   13  C   UNL     1     -10.848  10.414  67.359  1.00  0.00    -0.344 A  
HETATM   14  C   UNL     1     -10.762  11.783  67.148  1.00  0.00    -0.283 A  
HETATM   15  C   UNL     1     -11.218  12.671  68.126  1.00  0.00    -0.311 A  
HETATM   16  C   UNL     1     -11.781  12.214  69.339  1.00  0.00    -0.391 A  
ENDBRANCH   1   7
TORSDOF 2
ENDMDL
MODEL       61
REMARK 921   NORMALIZED FREE ENERGY PREDICTED BY IDOCK:   -4.68 KCAL/MOL
REMARK 922        TOTAL FREE ENERGY PREDICTED BY IDOCK:   -5.52 KCAL/MOL
REMARK 923 INTER-LIGAND FREE ENERGY PREDICTED BY IDOCK:   -5.23 KCAL/MOL
REMARK 924 INTRA-LIGAND FREE ENERGY PREDICTED BY IDOCK:   -0.29 KCAL/MOL
REMARK 927      BINDING AFFINITY PREDICTED BY RF-SCORE:    0.00 PKD
ROOT
HETATM    1  C   UNL     1     -11.147   9.712  71.072  1.00  0.00    -0.438 C  
ENDROOT
BRANCH   1   2
HETATM    2  C   UNL     1     -12.367   8.856  71.310  1.00  0.00    -0.291 C  
HETATM    3  N   UNL     1     -13.601   9.376  71.633  1.00  0.00    -0.379 NA 
HETATM    4  C   UNL     1     -14.404   8.281  72.124  1.00  0.00    -0.404 C  
HETATM    5  N   UNL     1     -12.301   7.551  71.194  1.00  0.00    -0.313 NA 
HETATM    6  C   UNL     1     -13.698   7.097  71.458  1.00  0.00    -0.309 C  
ENDBRANCH   1   2
BRANCH   1   7
HETATM    7  C   UNL     1     -11.137  10.449  69.746  1.00  0.00    -0.352 A  
HETATM    8  C   UNL     1     -11.672  11.750  69.718  1.00  0.00    -0.408 A  
HETATM    9  C   UNL     1     -11.291  11.889  67.345  1.00  0.00    -0.389 A  
HETATM   10  C   UNL     1     -10.717  10.611  67.342  1.00  0.00    -0.326 A  
HETATM   11  C   UNL     1     -11.753  12.462  68.527  1.00  0.00    -0.373 A  
HETATM   12  C   UNL     1     -10.235  10.061  66.141  1.00  0.00    -0.283 A  
HETATM   13  C   UNL     1      -9.646   8.800  66.115  1.00  0.00    -0.323 A  
HETATM   14  C   UNL     1      -9.531   8.070  67.290  1.00  0.00    -0.196 A  
HETATM   15  C   UNL     1     -10.014   8.597  68.491  1.00  0.00    -0.201 A  
HETATM   16  C   UNL     1     -10.619   9.873  68.551  1.00  0.00    -0.248 A  
ENDBRANCH   1   7
TORSDOF 2
ENDMDL
MODEL       62
REMARK 921   NORMALIZED FREE ENERGY PREDICTED BY IDOCK:   -4.64 KCAL/MOL
REMARK 922        TOTAL FREE ENERGY PREDICTED BY IDOCK:   -5.47 KCAL/MOL
REMARK 923 INTER-LIGAND FREE ENERGY PREDICTED BY IDOCK:   -5.28 KCAL/MOL
REMARK 924 INTRA-LIGAND FREE ENERGY PREDICTED BY IDOCK:   -0.19 KCAL/MOL
REMARK 927      BINDING AFFINITY PREDICTED BY RF-SCORE:    0.00 PKD
ROOT
HETATM    1  C   UNL     1     -10.804  15.396  70.459  1.00  0.00    -0.327 C  
ENDROOT
BRANCH   1   2
HETATM    2  C   UNL     1     -12.139  15.580  71.140  1.00  0.00    -0.380 C  
HETATM    3  N   UNL     1     -12.282  16.203  72.359  1.00  0.00    -0.499 NA 
HETATM    4  C   UNL     1     -13.604  15.882  72.843  1.00  0.00    -0.541 C  
HETATM    5  N   UNL     1     -13.244  15.162  70.569  1.00  0.00    -0.285 NA 
HETATM    6  C   UNL     1     -14.315  15.569  71.524  1.00  0.00    -0.336 C  
ENDBRANCH   1   2
BRANCH   1   7
HETATM    7  C   UNL     1     -10.872  15.277  68.948  1.00  0.00    -0.247 A  
HETATM    8  C   UNL     1     -10.776  16.462  68.195  1.00  0.00    -0.336 A  
HETATM    9  C   UNL     1     -11.098  15.227  66.154  1.00  0.00    -0.280 A  
HETATM   10  C   UNL     1     -11.159  14.023  66.867  1.00  0.00    -0.310 A  
HETATM   11  C   UNL     1     -10.893  16.438  66.810  1.00  0.00    -0.098 A  
HETATM   12  C   UNL     1     -11.342  12.810  66.183  1.00  0.00    -0.371 A  
HETATM   13  C   UNL     1     -11.391  11.599  66.869  1.00  0.00    -0.364 A  
HETATM   14  C   UNL     1     -11.258  11.585  68.250  1.00  0.00    -0.322 A  
HETATM   15  C   UNL     1     -11.086  12.783  68.948  1.00  0.00    -0.310 A  
HETATM   16  C   UNL     1     -11.034  14.030  68.282  1.00  0.00    -0.272 A  
ENDBRANCH   1   7
TORSDOF 2
ENDMDL
MODEL       63
REMARK 921   NORMALIZED FREE ENERGY PREDICTED BY IDOCK:   -4.63 KCAL/MOL
REMARK 922        TOTAL FREE ENERGY PREDICTED BY IDOCK:   -5.46 KCAL/MOL
REMARK 923 INTER-LIGAND FREE ENERGY PREDICTED BY IDOCK:   -5.18 KCAL/MOL
REMARK 924 INTRA-LIGAND FREE ENERGY PREDICTED BY IDOCK:   -0.29 KCAL/MOL
REMARK 927      BINDING AFFINITY PREDICTED BY RF-SCORE:    0.00 PKD
ROOT
HETATM    1  C   UNL     1     -10.873  16.856  68.321  1.00  0.00    -0.357 C  
ENDROOT
BRANCH   1   2
HETATM    2  C   UNL     1     -10.336  18.098  67.652  1.00  0.00    -0.397 C  
HETATM    3  N   UNL     1      -9.828  18.103  66.373  1.00  0.00    -0.361 NA 
HETATM    4  C   UNL     1      -9.104  19.343  66.213  1.00  0.00    -0.346 C  
HETATM    5  N   UNL     1     -10.356  19.253  68.273  1.00  0.00    -0.404 NA 
HETATM    6  C   UNL     1      -9.793  20.206  67.272  1.00  0.00    -0.441 C  
ENDBRANCH   1   2
BRANCH   1   7
HETATM    7  C   UNL     1     -10.125  15.579  67.986  1.00  0.00    -0.223 A  
HETATM    8  C   UNL     1      -8.820  15.436  68.492  1.00  0.00    -0.183 A  
HETATM    9  C   UNL     1      -8.578  13.328  67.356  1.00  0.00    -0.204 A  
HETATM   10  C   UNL     1      -9.887  13.418  66.866  1.00  0.00    -0.256 A  
HETATM   11  C   UNL     1      -8.051  14.322  68.176  1.00  0.00    -0.144 A  
HETATM   12  C   UNL     1     -10.407  12.391  66.060  1.00  0.00    -0.275 A  
HETATM   13  C   UNL     1     -11.711  12.450  65.575  1.00  0.00    -0.459 A  
HETATM   14  C   UNL     1     -12.513  13.539  65.888  1.00  0.00    -0.484 A  
HETATM   15  C   UNL     1     -12.009  14.574  66.680  1.00  0.00    -0.358 A  
HETATM   16  C   UNL     1     -10.689  14.546  67.187  1.00  0.00    -0.286 A  
ENDBRANCH   1   7
TORSDOF 2
ENDMDL
MODEL       64
REMARK 921   NORMALIZED FREE ENERGY PREDICTED BY IDOCK:   -4.58 KCAL/MOL
REMARK 922        TOTAL FREE ENERGY PREDICTED BY IDOCK:   -5.41 KCAL/MOL
REMARK 923 INTER-LIGAND FREE ENERGY PREDICTED BY IDOCK:   -5.25 KCAL/MOL
REMARK 924 INTRA-LIGAND FREE ENERGY PREDICTED BY IDOCK:   -0.16 KCAL/MOL
REMARK 927      BINDING AFFINITY PREDICTED BY RF-SCORE:    0.00 PKD
ROOT
HETATM    1  C   UNL     1     -12.239  13.796  69.639  1.00  0.00    -0.359 C  
ENDROOT
BRANCH   1   2
HETATM    2  C   UNL     1     -11.830  12.353  69.813  1.00  0.00    -0.317 C  
HETATM    3  N   UNL     1     -10.843  11.755  69.063  1.00  0.00    -0.213 NA 
HETATM    4  C   UNL     1     -10.976  10.330  69.252  1.00  0.00    -0.241 C  
HETATM    5  N   UNL     1     -12.401  11.602  70.725  1.00  0.00    -0.385 NA 
HETATM    6  C   UNL     1     -11.694  10.294  70.603  1.00  0.00    -0.348 C  
ENDBRANCH   1   2
BRANCH   1   7
HETATM    7  C   UNL     1     -11.347  14.603  68.715  1.00  0.00    -0.302 A  
HETATM    8  C   UNL     1     -10.337  15.386  69.304  1.00  0.00    -0.253 A  
HETATM    9  C   UNL     1      -9.695  16.236  67.145  1.00  0.00    -0.240 A  
HETATM   10  C   UNL     1     -10.664  15.439  66.521  1.00  0.00    -0.308 A  
HETATM   11  C   UNL     1      -9.521  16.200  68.526  1.00  0.00    -0.216 A  
HETATM   12  C   UNL     1     -10.806  15.472  65.123  1.00  0.00    -0.452 A  
HETATM   13  C   UNL     1     -11.751  14.679  64.479  1.00  0.00    -0.410 A  
HETATM   14  C   UNL     1     -12.568  13.840  65.224  1.00  0.00    -0.510 A  
HETATM   15  C   UNL     1     -12.448  13.802  66.615  1.00  0.00    -0.307 A  
HETATM   16  C   UNL     1     -11.500  14.597  67.301  1.00  0.00    -0.386 A  
ENDBRANCH   1   7
TORSDOF 2
ENDMDL
MODEL       65
REMARK 921   NORMALIZED FREE ENERGY PREDICTED BY IDOCK:   -4.57 KCAL/MOL
REMARK 922        TOTAL FREE ENERGY PREDICTED BY IDOCK:   -5.40 KCAL/MOL
REMARK 923 INTER-LIGAND FREE ENERGY PREDICTED BY IDOCK:   -5.32 KCAL/MOL
REMARK 924 INTRA-LIGAND FREE ENERGY PREDICTED BY IDOCK:   -0.07 KCAL/MOL
REMARK 927      BINDING AFFINITY PREDICTED BY RF-SCORE:    0.00 PKD
ROOT
HETATM    1  C   UNL     1      -9.999  11.967  68.538  1.00  0.00    -0.196 C  
ENDROOT
BRANCH   1   2
HETATM    2  C   UNL     1     -10.811  11.087  69.456  1.00  0.00    -0.216 C  
HETATM    3  N   UNL     1     -12.050  11.444  69.940  1.00  0.00    -0.327 NA 
HETATM    4  C   UNL     1     -12.350  10.549  71.033  1.00  0.00    -0.399 C  
HETATM    5  N   UNL     1     -10.365   9.908  69.820  1.00  0.00    -0.229 NA 
HETATM    6  C   UNL     1     -11.463   9.356  70.667  1.00  0.00    -0.284 C  
ENDBRANCH   1   2
BRANCH   1   7
HETATM    7  C   UNL     1     -10.782  12.595  67.401  1.00  0.00    -0.251 A  
HETATM    8  C   UNL     1     -11.572  13.721  67.698  1.00  0.00    -0.381 A  
HETATM    9  C   UNL     1     -12.376  13.794  65.431  1.00  0.00    -0.504 A  
HETATM   10  C   UNL     1     -11.572  12.699  65.089  1.00  0.00    -0.386 A  
HETATM   11  C   UNL     1     -12.366  14.313  66.722  1.00  0.00    -0.280 A  
HETATM   12  C   UNL     1     -11.579  12.206  63.773  1.00  0.00    -0.557 A  
HETATM   13  C   UNL     1     -10.778  11.129  63.406  1.00  0.00    -0.286 A  
HETATM   14  C   UNL     1      -9.958  10.527  64.351  1.00  0.00    -0.410 A  
HETATM   15  C   UNL     1      -9.946  10.997  65.666  1.00  0.00    -0.299 A  
HETATM   16  C   UNL     1     -10.750  12.087  66.073  1.00  0.00    -0.317 A  
ENDBRANCH   1   7
TORSDOF 2
ENDMDL
MODEL       66
REMARK 921   NORMALIZED FREE ENERGY PREDICTED BY IDOCK:   -4.57 KCAL/MOL
REMARK 922        TOTAL FREE ENERGY PREDICTED BY IDOCK:   -5.39 KCAL/MOL
REMARK 923 INTER-LIGAND FREE ENERGY PREDICTED BY IDOCK:   -5.21 KCAL/MOL
REMARK 924 INTRA-LIGAND FREE ENERGY PREDICTED BY IDOCK:   -0.18 KCAL/MOL
REMARK 927      BINDING AFFINITY PREDICTED BY RF-SCORE:    0.00 PKD
ROOT
HETATM    1  C   UNL     1     -10.879  16.350  68.233  1.00  0.00    -0.347 C  
ENDROOT
BRANCH   1   2
HETATM    2  C   UNL     1     -10.672  15.344  67.127  1.00  0.00    -0.314 C  
HETATM    3  N   UNL     1      -9.882  15.587  66.026  1.00  0.00    -0.308 NA 
HETATM    4  C   UNL     1     -10.203  14.577  65.045  1.00  0.00    -0.365 C  
HETATM    5  N   UNL     1     -11.236  14.160  67.185  1.00  0.00    -0.306 NA 
HETATM    6  C   UNL     1     -10.752  13.473  65.953  1.00  0.00    -0.277 C  
ENDBRANCH   1   2
BRANCH   1   7
HETATM    7  C   UNL     1     -10.057  17.617  68.102  1.00  0.00    -0.347 A  
HETATM    8  C   UNL     1     -10.698  18.761  67.591  1.00  0.00    -0.449 A  
HETATM    9  C   UNL     1      -8.637  20.001  67.693  1.00  0.00    -0.385 A  
HETATM   10  C   UNL     1      -7.975  18.894  68.240  1.00  0.00    -0.343 A  
HETATM   11  C   UNL     1      -9.993  19.941  67.384  1.00  0.00    -0.558 A  
HETATM   12  C   UNL     1      -6.611  18.983  68.568  1.00  0.00    -0.276 A  
HETATM   13  C   UNL     1      -5.935  17.902  69.127  1.00  0.00    -0.224 A  
HETATM   14  C   UNL     1      -6.614  16.715  69.365  1.00  0.00    -0.222 A  
HETATM   15  C   UNL     1      -7.967  16.605  69.036  1.00  0.00    -0.208 A  
HETATM   16  C   UNL     1      -8.682  17.683  68.465  1.00  0.00    -0.285 A  
ENDBRANCH   1   7
TORSDOF 2
ENDMDL
MODEL       67
REMARK 921   NORMALIZED FREE ENERGY PREDICTED BY IDOCK:   -4.57 KCAL/MOL
REMARK 922        TOTAL FREE ENERGY PREDICTED BY IDOCK:   -5.39 KCAL/MOL
REMARK 923 INTER-LIGAND FREE ENERGY PREDICTED BY IDOCK:   -5.06 KCAL/MOL
REMARK 924 INTRA-LIGAND FREE ENERGY PREDICTED BY IDOCK:   -0.32 KCAL/MOL
REMARK 927      BINDING AFFINITY PREDICTED BY RF-SCORE:    0.00 PKD
ROOT
HETATM    1  C   UNL     1      -8.818   9.519  66.193  1.00  0.00    -0.177 C  
ENDROOT
BRANCH   1   2
HETATM    2  C   UNL     1      -9.377   8.128  66.373  1.00  0.00    -0.210 C  
HETATM    3  N   UNL     1     -10.650   7.883  66.839  1.00  0.00    -0.331 NA 
HETATM    4  C   UNL     1     -10.701   6.488  67.209  1.00  0.00    -0.356 C  
HETATM    5  N   UNL     1      -8.660   7.074  66.064  1.00  0.00    -0.145 NA 
HETATM    6  C   UNL     1      -9.575   5.927  66.338  1.00  0.00    -0.146 C  
ENDBRANCH   1   2
BRANCH   1   7
HETATM    7  C   UNL     1      -9.634  10.420  65.286  1.00  0.00    -0.316 A  
HETATM    8  C   UNL     1      -9.489  10.250  63.896  1.00  0.00    -0.356 A  
HETATM    9  C   UNL     1     -10.989  12.087  63.485  1.00  0.00    -0.514 A  
HETATM   10  C   UNL     1     -11.188  12.260  64.860  1.00  0.00    -0.365 A  
HETATM   11  C   UNL     1     -10.157  11.080  63.003  1.00  0.00    -0.285 A  
HETATM   12  C   UNL     1     -12.052  13.267  65.324  1.00  0.00    -0.456 A  
HETATM   13  C   UNL     1     -12.278  13.448  66.686  1.00  0.00    -0.391 A  
HETATM   14  C   UNL     1     -11.642  12.624  67.604  1.00  0.00    -0.414 A  
HETATM   15  C   UNL     1     -10.772  11.624  67.161  1.00  0.00    -0.288 A  
HETATM   16  C   UNL     1     -10.519  11.415  65.786  1.00  0.00    -0.314 A  
ENDBRANCH   1   7
TORSDOF 2
ENDMDL
MODEL       68
REMARK 921   NORMALIZED FREE ENERGY PREDICTED BY IDOCK:   -4.56 KCAL/MOL
REMARK 922        TOTAL FREE ENERGY PREDICTED BY IDOCK:   -5.38 KCAL/MOL
REMARK 923 INTER-LIGAND FREE ENERGY PREDICTED BY IDOCK:   -5.07 KCAL/MOL
REMARK 924 INTRA-LIGAND FREE ENERGY PREDICTED BY IDOCK:   -0.31 KCAL/MOL
REMARK 927      BINDING AFFINITY PREDICTED BY RF-SCORE:    0.00 PKD
ROOT
HETATM    1  C   UNL     1     -12.156   7.154  71.720  1.00  0.00    -0.363 C  
ENDROOT
BRANCH   1   2
HETATM    2  C   UNL     1     -11.139   6.609  72.694  1.00  0.00    -0.257 C  
HETATM    3  N   UNL     1     -10.572   5.361  72.570  1.00  0.00    -0.217 NA 
HETATM    4  C   UNL     1      -9.944   5.057  73.834  1.00  0.00    -0.173 C  
HETATM    5  N   UNL     1     -10.730   7.334  73.708  1.00  0.00    -0.300 NA 
HETATM    6  C   UNL     1      -9.716   6.469  74.379  1.00  0.00    -0.306 C  
ENDBRANCH   1   2
BRANCH   1   7
HETATM    7  C   UNL     1     -11.626   8.211  70.771  1.00  0.00    -0.249 A  
HETATM    8  C   UNL     1     -10.725   7.797  69.772  1.00  0.00    -0.236 A  
HETATM    9  C   UNL     1     -10.473  10.069  69.017  1.00  0.00    -0.233 A  
HETATM   10  C   UNL     1     -11.395  10.512  69.973  1.00  0.00    -0.392 A  
HETATM   11  C   UNL     1     -10.150   8.720  68.905  1.00  0.00    -0.210 A  
HETATM   12  C   UNL     1     -11.725  11.875  70.052  1.00  0.00    -0.366 A  
HETATM   13  C   UNL     1     -12.651  12.337  70.985  1.00  0.00    -0.352 A  
HETATM   14  C   UNL     1     -13.259  11.440  71.852  1.00  0.00    -0.485 A  
HETATM   15  C   UNL     1     -12.935  10.082  71.794  1.00  0.00    -0.560 A  
HETATM   16  C   UNL     1     -11.998   9.581  70.862  1.00  0.00    -0.372 A  
ENDBRANCH   1   7
TORSDOF 2
ENDMDL
MODEL       69
REMARK 921   NORMALIZED FREE ENERGY PREDICTED BY IDOCK:   -4.56 KCAL/MOL
REMARK 922        TOTAL FREE ENERGY PREDICTED BY IDOCK:   -5.38 KCAL/MOL
REMARK 923 INTER-LIGAND FREE ENERGY PREDICTED BY IDOCK:   -5.16 KCAL/MOL
REMARK 924 INTRA-LIGAND FREE ENERGY PREDICTED BY IDOCK:   -0.23 KCAL/MOL
REMARK 927      BINDING AFFINITY PREDICTED BY RF-SCORE:    0.00 PKD
ROOT
HETATM    1  C   UNL     1      -9.942  17.796  68.421  1.00  0.00    -0.362 C  
ENDROOT
BRANCH   1   2
HETATM    2  C   UNL     1      -8.443  17.628  68.495  1.00  0.00    -0.289 C  
HETATM    3  N   UNL     1      -7.837  16.516  69.033  1.00  0.00    -0.237 NA 
HETATM    4  C   UNL     1      -6.451  16.857  69.254  1.00  0.00    -0.228 C  
HETATM    5  N   UNL     1      -7.643  18.550  68.015  1.00  0.00    -0.250 NA 
HETATM    6  C   UNL     1      -6.278  17.988  68.237  1.00  0.00    -0.183 C  
ENDBRANCH   1   2
BRANCH   1   7
HETATM    7  C   UNL     1     -10.731  16.502  68.481  1.00  0.00    -0.336 A  
HETATM    8  C   UNL     1     -11.224  16.097  69.735  1.00  0.00    -0.343 A  
HETATM    9  C   UNL     1     -12.107  14.077  68.768  1.00  0.00    -0.338 A  
HETATM   10  C   UNL     1     -11.666  14.467  67.497  1.00  0.00    -0.413 A  
HETATM   11  C   UNL     1     -11.902  14.891  69.878  1.00  0.00    -0.355 A  
HETATM   12  C   UNL     1     -11.905  13.641  66.386  1.00  0.00    -0.433 A  
HETATM   13  C   UNL     1     -11.490  14.015  65.111  1.00  0.00    -0.328 A  
HETATM   14  C   UNL     1     -10.827  15.221  64.929  1.00  0.00    -0.444 A  
HETATM   15  C   UNL     1     -10.571  16.050  66.024  1.00  0.00    -0.324 A  
HETATM   16  C   UNL     1     -10.978  15.699  67.332  1.00  0.00    -0.293 A  
ENDBRANCH   1   7
TORSDOF 2
ENDMDL
MODEL       70
REMARK 921   NORMALIZED FREE ENERGY PREDICTED BY IDOCK:   -4.56 KCAL/MOL
REMARK 922        TOTAL FREE ENERGY PREDICTED BY IDOCK:   -5.38 KCAL/MOL
REMARK 923 INTER-LIGAND FREE ENERGY PREDICTED BY IDOCK:   -5.24 KCAL/MOL
REMARK 924 INTRA-LIGAND FREE ENERGY PREDICTED BY IDOCK:   -0.14 KCAL/MOL
REMARK 927      BINDING AFFINITY PREDICTED BY RF-SCORE:    0.00 PKD
ROOT
HETATM    1  C   UNL     1      -9.954   9.476  65.737  1.00  0.00    -0.316 C  
ENDROOT
BRANCH   1   2
HETATM    2  C   UNL     1      -9.792   8.293  66.660  1.00  0.00    -0.267 C  
HETATM    3  N   UNL     1     -10.815   7.419  66.952  1.00  0.00    -0.293 NA 
HETATM    4  C   UNL     1     -10.402   6.658  68.108  1.00  0.00    -0.190 C  
HETATM    5  N   UNL     1      -8.632   8.034  67.217  1.00  0.00    -0.124 NA 
HETATM    6  C   UNL     1      -8.881   6.787  67.997  1.00  0.00    -0.119 C  
ENDBRANCH   1   2
BRANCH   1   7
HETATM    7  C   UNL     1     -10.528  10.719  66.390  1.00  0.00    -0.293 A  
HETATM    8  C   UNL     1     -10.499  10.789  67.795  1.00  0.00    -0.243 A  
HETATM    9  C   UNL     1     -11.654  12.900  67.744  1.00  0.00    -0.391 A  
HETATM   10  C   UNL     1     -11.667  12.883  66.344  1.00  0.00    -0.454 A  
HETATM   11  C   UNL     1     -11.062  11.868  68.467  1.00  0.00    -0.290 A  
HETATM   12  C   UNL     1     -12.249  13.947  65.633  1.00  0.00    -0.477 A  
HETATM   13  C   UNL     1     -12.260  13.959  64.241  1.00  0.00    -0.447 A  
HETATM   14  C   UNL     1     -11.688  12.907  63.539  1.00  0.00    -0.576 A  
HETATM   15  C   UNL     1     -11.114  11.836  64.229  1.00  0.00    -0.420 A  
HETATM   16  C   UNL     1     -11.089  11.791  65.642  1.00  0.00    -0.340 A  
ENDBRANCH   1   7
TORSDOF 2
ENDMDL
MODEL       71
REMARK 921   NORMALIZED FREE ENERGY PREDICTED BY IDOCK:   -4.55 KCAL/MOL
REMARK 922        TOTAL FREE ENERGY PREDICTED BY IDOCK:   -5.37 KCAL/MOL
REMARK 923 INTER-LIGAND FREE ENERGY PREDICTED BY IDOCK:   -5.18 KCAL/MOL
REMARK 924 INTRA-LIGAND FREE ENERGY PREDICTED BY IDOCK:   -0.19 KCAL/MOL
REMARK 927      BINDING AFFINITY PREDICTED BY RF-SCORE:    0.00 PKD
ROOT
HETATM    1  C   UNL     1     -12.012  13.585  68.864  1.00  0.00    -0.378 C  
ENDROOT
BRANCH   1   2
HETATM    2  C   UNL     1     -11.210  14.860  68.773  1.00  0.00    -0.275 C  
HETATM    3  N   UNL     1     -10.357  15.285  69.767  1.00  0.00    -0.264 NA 
HETATM    4  C   UNL     1     -10.054  16.671  69.498  1.00  0.00    -0.133 C  
HETATM    5  N   UNL     1     -11.282  15.620  67.706  1.00  0.00    -0.322 NA 
HETATM    6  C   UNL     1     -10.323  16.728  67.992  1.00  0.00    -0.317 C  
ENDBRANCH   1   2
BRANCH   1   7
HETATM    7  C   UNL     1     -11.193  12.336  69.127  1.00  0.00    -0.300 A  
HETATM    8  C   UNL     1      -9.989  12.184  68.415  1.00  0.00    -0.206 A  
HETATM    9  C   UNL     1      -9.630  10.027  69.421  1.00  0.00    -0.237 A  
HETATM   10  C   UNL     1     -10.803  10.161  70.176  1.00  0.00    -0.368 A  
HETATM   11  C   UNL     1      -9.217  11.036  68.557  1.00  0.00    -0.177 A  
HETATM   12  C   UNL     1     -11.190   9.139  71.061  1.00  0.00    -0.380 A  
HETATM   13  C   UNL     1     -12.343   9.257  71.832  1.00  0.00    -0.454 A  
HETATM   14  C   UNL     1     -13.126  10.398  71.730  1.00  0.00    -0.567 A  
HETATM   15  C   UNL     1     -12.762  11.419  70.847  1.00  0.00    -0.397 A  
HETATM   16  C   UNL     1     -11.600  11.330  70.048  1.00  0.00    -0.404 A  
ENDBRANCH   1   7
TORSDOF 2
ENDMDL
MODEL       72
REMARK 921   NORMALIZED FREE ENERGY PREDICTED BY IDOCK:   -4.54 KCAL/MOL
REMARK 922        TOTAL FREE ENERGY PREDICTED BY IDOCK:   -5.35 KCAL/MOL
REMARK 923 INTER-LIGAND FREE ENERGY PREDICTED BY IDOCK:   -5.13 KCAL/MOL
REMARK 924 INTRA-LIGAND FREE ENERGY PREDICTED BY IDOCK:   -0.22 KCAL/MOL
REMARK 927      BINDING AFFINITY PREDICTED BY RF-SCORE:    0.00 PKD
ROOT
HETATM    1  C   UNL     1      -9.568  12.682  66.224  1.00  0.00    -0.244 C  
ENDROOT
BRANCH   1   2
HETATM    2  C   UNL     1     -10.602  13.122  65.216  1.00  0.00    -0.313 C  
HETATM    3  N   UNL     1     -10.920  14.443  64.992  1.00  0.00    -0.366 NA 
HETATM    4  C   UNL     1     -12.159  14.457  64.251  1.00  0.00    -0.436 C  
HETATM    5  N   UNL     1     -11.237  12.240  64.482  1.00  0.00    -0.312 NA 
HETATM    6  C   UNL     1     -12.114  13.070  63.605  1.00  0.00    -0.531 C  
ENDBRANCH   1   2
BRANCH   1   7
HETATM    7  C   UNL     1     -10.075  11.710  67.272  1.00  0.00    -0.221 A  
HETATM    8  C   UNL     1      -9.746  10.351  67.114  1.00  0.00    -0.206 A  
HETATM    9  C   UNL     1     -11.037   9.780  69.064  1.00  0.00    -0.143 A  
HETATM   10  C   UNL     1     -11.353  11.128  69.275  1.00  0.00    -0.349 A  
HETATM   11  C   UNL     1     -10.227   9.393  68.000  1.00  0.00    -0.248 A  
HETATM   12  C   UNL     1     -12.153  11.499  70.370  1.00  0.00    -0.471 A  
HETATM   13  C   UNL     1     -12.467  12.834  70.609  1.00  0.00    -0.328 A  
HETATM   14  C   UNL     1     -11.987  13.818  69.755  1.00  0.00    -0.406 A  
HETATM   15  C   UNL     1     -11.199  13.466  68.656  1.00  0.00    -0.304 A  
HETATM   16  C   UNL     1     -10.863  12.120  68.383  1.00  0.00    -0.255 A  
ENDBRANCH   1   7
TORSDOF 2
ENDMDL
MODEL       73
REMARK 921   NORMALIZED FREE ENERGY PREDICTED BY IDOCK:   -4.53 KCAL/MOL
REMARK 922        TOTAL FREE ENERGY PREDICTED BY IDOCK:   -5.35 KCAL/MOL
REMARK 923 INTER-LIGAND FREE ENERGY PREDICTED BY IDOCK:   -5.07 KCAL/MOL
REMARK 924 INTRA-LIGAND FREE ENERGY PREDICTED BY IDOCK:   -0.27 KCAL/MOL
REMARK 927      BINDING AFFINITY PREDICTED BY RF-SCORE:    0.00 PKD
ROOT
HETATM    1  C   UNL     1     -10.063  11.608  67.519  1.00  0.00    -0.209 C  
ENDROOT
BRANCH   1   2
HETATM    2  C   UNL     1     -10.798  12.198  66.340  1.00  0.00    -0.271 C  
HETATM    3  N   UNL     1     -10.158  12.727  65.242  1.00  0.00    -0.274 NA 
HETATM    4  C   UNL     1     -11.139  13.495  64.512  1.00  0.00    -0.381 C  
HETATM    5  N   UNL     1     -12.110  12.209  66.308  1.00  0.00    -0.589 NA 
HETATM    6  C   UNL     1     -12.429  12.820  64.984  1.00  0.00    -0.506 C  
ENDBRANCH   1   2
BRANCH   1   7
HETATM    7  C   UNL     1     -10.148  10.097  67.630  1.00  0.00    -0.231 A  
HETATM    8  C   UNL     1      -9.839   9.341  66.485  1.00  0.00    -0.331 A  
HETATM    9  C   UNL     1     -10.372   7.303  67.649  1.00  0.00    -0.290 A  
HETATM   10  C   UNL     1     -10.651   8.020  68.820  1.00  0.00    -0.145 A  
HETATM   11  C   UNL     1      -9.955   7.955  66.493  1.00  0.00    -0.267 A  
HETATM   12  C   UNL     1     -11.047   7.339  69.983  1.00  0.00    -0.262 A  
HETATM   13  C   UNL     1     -11.314   8.029  71.163  1.00  0.00    -0.292 A  
HETATM   14  C   UNL     1     -11.189   9.411  71.195  1.00  0.00    -0.427 A  
HETATM   15  C   UNL     1     -10.806  10.105  70.045  1.00  0.00    -0.361 A  
HETATM   16  C   UNL     1     -10.530   9.436  68.830  1.00  0.00    -0.236 A  
ENDBRANCH   1   7
TORSDOF 2
ENDMDL
MODEL       74
REMARK 921   NORMALIZED FREE ENERGY PREDICTED BY IDOCK:   -4.51 KCAL/MOL
REMARK 922        TOTAL FREE ENERGY PREDICTED BY IDOCK:   -5.33 KCAL/MOL
REMARK 923 INTER-LIGAND FREE ENERGY PREDICTED BY IDOCK:   -5.10 KCAL/MOL
REMARK 924 INTRA-LIGAND FREE ENERGY PREDICTED BY IDOCK:   -0.23 KCAL/MOL
REMARK 927      BINDING AFFINITY PREDICTED BY RF-SCORE:    0.00 PKD
ROOT
HETATM    1  C   UNL     1     -11.224  15.387  66.842  1.00  0.00    -0.214 C  
ENDROOT
BRANCH   1   2
HETATM    2  C   UNL     1      -9.987  16.251  66.783  1.00  0.00    -0.261 C  
HETATM    3  N   UNL     1      -9.061  16.172  65.767  1.00  0.00    -0.412 NA 
HETATM    4  C   UNL     1      -7.879  16.865  66.221  1.00  0.00    -0.311 C  
HETATM    5  N   UNL     1      -9.754  17.148  67.711  1.00  0.00    -0.265 NA 
HETATM    6  C   UNL     1      -8.489  17.802  67.267  1.00  0.00    -0.231 C  
ENDBRANCH   1   2
BRANCH   1   7
HETATM    7  C   UNL     1     -11.280  14.285  65.801  1.00  0.00    -0.317 A  
HETATM    8  C   UNL     1     -11.929  14.569  64.585  1.00  0.00    -0.478 A  
HETATM    9  C   UNL     1     -11.563  12.313  63.829  1.00  0.00    -0.555 A  
HETATM   10  C   UNL     1     -10.877  12.006  65.010  1.00  0.00    -0.351 A  
HETATM   11  C   UNL     1     -12.074  13.589  63.609  1.00  0.00    -0.459 A  
HETATM   12  C   UNL     1     -10.348  10.718  65.201  1.00  0.00    -0.341 A  
HETATM   13  C   UNL     1      -9.648  10.394  66.360  1.00  0.00    -0.225 A  
HETATM   14  C   UNL     1      -9.468  11.354  67.346  1.00  0.00    -0.174 A  
HETATM   15  C   UNL     1      -9.996  12.637  67.178  1.00  0.00    -0.217 A  
HETATM   16  C   UNL     1     -10.713  12.998  66.015  1.00  0.00    -0.290 A  
ENDBRANCH   1   7
TORSDOF 2
ENDMDL
MODEL       75
REMARK 921   NORMALIZED FREE ENERGY PREDICTED BY IDOCK:   -4.50 KCAL/MOL
REMARK 922        TOTAL FREE ENERGY PREDICTED BY IDOCK:   -5.32 KCAL/MOL
REMARK 923 INTER-LIGAND FREE ENERGY PREDICTED BY IDOCK:   -5.11 KCAL/MOL
REMARK 924 INTRA-LIGAND FREE ENERGY PREDICTED BY IDOCK:   -0.21 KCAL/MOL
REMARK 927      BINDING AFFINITY PREDICTED BY RF-SCORE:    0.00 PKD
ROOT
HETATM    1  C   UNL     1      -9.069  15.264  67.662  1.00  0.00    -0.184 C  
ENDROOT
BRANCH   1   2
HETATM    2  C   UNL     1      -9.729  14.526  66.523  1.00  0.00    -0.285 C  
HETATM    3  N   UNL     1     -10.009  13.179  66.560  1.00  0.00    -0.262 NA 
HETATM    4  C   UNL     1     -10.297  12.771  65.205  1.00  0.00    -0.295 C  
HETATM    5  N   UNL     1     -10.091  15.164  65.434  1.00  0.00    -0.352 NA 
HETATM    6  C   UNL     1     -10.733  14.107  64.599  1.00  0.00    -0.389 C  
ENDBRANCH   1   2
BRANCH   1   7
HETATM    7  C   UNL     1      -8.272  16.487  67.250  1.00  0.00    -0.196 A  
HETATM    8  C   UNL     1      -6.921  16.299  66.902  1.00  0.00    -0.226 A  
HETATM    9  C   UNL     1      -6.642  18.668  66.580  1.00  0.00    -0.219 A  
HETATM   10  C   UNL     1      -7.991  18.889  66.883  1.00  0.00    -0.266 A  
HETATM   11  C   UNL     1      -6.112  17.380  66.575  1.00  0.00    -0.250 A  
HETATM   12  C   UNL     1      -8.512  20.194  66.858  1.00  0.00    -0.376 A  
HETATM   13  C   UNL     1      -9.853  20.438  67.140  1.00  0.00    -0.601 A  
HETATM   14  C   UNL     1     -10.694  19.378  67.452  1.00  0.00    -0.594 A  
HETATM   15  C   UNL     1     -10.191  18.075  67.491  1.00  0.00    -0.376 A  
HETATM   16  C   UNL     1      -8.834  17.794  67.212  1.00  0.00    -0.240 A  
ENDBRANCH   1   7
TORSDOF 2
ENDMDL
MODEL       76
REMARK 921   NORMALIZED FREE ENERGY PREDICTED BY IDOCK:   -4.48 KCAL/MOL
REMARK 922        TOTAL FREE ENERGY PREDICTED BY IDOCK:   -5.29 KCAL/MOL
REMARK 923 INTER-LIGAND FREE ENERGY PREDICTED BY IDOCK:   -5.00 KCAL/MOL
REMARK 924 INTRA-LIGAND FREE ENERGY PREDICTED BY IDOCK:   -0.29 KCAL/MOL
REMARK 927      BINDING AFFINITY PREDICTED BY RF-SCORE:    0.00 PKD
ROOT
HETATM    1  C   UNL     1      -9.567  10.807  65.224  1.00  0.00    -0.278 C  
ENDROOT
BRANCH   1   2
HETATM    2  C   UNL     1     -10.056   9.975  66.384  1.00  0.00    -0.241 C  
HETATM    3  N   UNL     1     -10.691  10.512  67.481  1.00  0.00    -0.256 NA 
HETATM    4  C   UNL     1     -10.686   9.497  68.509  1.00  0.00    -0.182 C  
HETATM    5  N   UNL     1      -9.908   8.671  66.381  1.00  0.00    -0.269 NA 
HETATM    6  C   UNL     1     -10.551   8.235  67.654  1.00  0.00    -0.194 C  
ENDBRANCH   1   2
BRANCH   1   7
HETATM    7  C   UNL     1     -10.488  11.945  64.825  1.00  0.00    -0.333 A  
HETATM    8  C   UNL     1     -11.548  11.649  63.949  1.00  0.00    -0.403 A  
HETATM    9  C   UNL     1     -12.203  13.965  63.910  1.00  0.00    -0.375 A  
HETATM   10  C   UNL     1     -11.182  14.290  64.813  1.00  0.00    -0.387 A  
HETATM   11  C   UNL     1     -12.395  12.652  63.491  1.00  0.00    -0.591 A  
HETATM   12  C   UNL     1     -11.021  15.619  65.241  1.00  0.00    -0.375 A  
HETATM   13  C   UNL     1     -10.024  15.963  66.150  1.00  0.00    -0.337 A  
HETATM   14  C   UNL     1      -9.173  14.983  66.643  1.00  0.00    -0.302 A  
HETATM   15  C   UNL     1      -9.313  13.659  66.219  1.00  0.00    -0.153 A  
HETATM   16  C   UNL     1     -10.313  13.276  65.296  1.00  0.00    -0.324 A  
ENDBRANCH   1   7
TORSDOF 2
ENDMDL
MODEL       77
REMARK 921   NORMALIZED FREE ENERGY PREDICTED BY IDOCK:   -4.46 KCAL/MOL
REMARK 922        TOTAL FREE ENERGY PREDICTED BY IDOCK:   -5.27 KCAL/MOL
REMARK 923 INTER-LIGAND FREE ENERGY PREDICTED BY IDOCK:   -5.04 KCAL/MOL
REMARK 924 INTRA-LIGAND FREE ENERGY PREDICTED BY IDOCK:   -0.23 KCAL/MOL
REMARK 927      BINDING AFFINITY PREDICTED BY RF-SCORE:    0.00 PKD
ROOT
HETATM    1  C   UNL     1      -9.863  11.714  68.819  1.00  0.00    -0.129 C  
ENDROOT
BRANCH   1   2
HETATM    2  C   UNL     1     -10.566  12.093  67.538  1.00  0.00    -0.214 C  
HETATM    3  N   UNL     1     -10.070  13.024  66.654  1.00  0.00    -0.246 NA 
HETATM    4  C   UNL     1     -11.150  13.375  65.762  1.00  0.00    -0.282 C  
HETATM    5  N   UNL     1     -11.695  11.517  67.200  1.00  0.00    -0.577 NA 
HETATM    6  C   UNL     1     -12.024  12.124  65.877  1.00  0.00    -0.177 C  
ENDBRANCH   1   2
BRANCH   1   7
HETATM    7  C   UNL     1     -10.233  10.349  69.367  1.00  0.00    -0.257 A  
HETATM    8  C   UNL     1      -9.498   9.240  68.907  1.00  0.00    -0.154 A  
HETATM    9  C   UNL     1     -10.875   7.750  70.202  1.00  0.00    -0.248 A  
HETATM   10  C   UNL     1     -11.603   8.833  70.711  1.00  0.00    -0.288 A  
HETATM   11  C   UNL     1      -9.819   7.952  69.317  1.00  0.00    -0.177 A  
HETATM   12  C   UNL     1     -12.649   8.608  71.623  1.00  0.00    -0.381 A  
HETATM   13  C   UNL     1     -13.377   9.669  72.155  1.00  0.00    -0.545 A  
HETATM   14  C   UNL     1     -13.069  10.971  71.782  1.00  0.00    -0.554 A  
HETATM   15  C   UNL     1     -12.039  11.211  70.869  1.00  0.00    -0.427 A  
HETATM   16  C   UNL     1     -11.282  10.157  70.309  1.00  0.00    -0.387 A  
ENDBRANCH   1   7
TORSDOF 2
ENDMDL
MODEL       78
REMARK 921   NORMALIZED FREE ENERGY PREDICTED BY IDOCK:   -4.46 KCAL/MOL
REMARK 922        TOTAL FREE ENERGY PREDICTED BY IDOCK:   -5.27 KCAL/MOL
REMARK 923 INTER-LIGAND FREE ENERGY PREDICTED BY IDOCK:   -5.10 KCAL/MOL
REMARK 924 INTRA-LIGAND FREE ENERGY PREDICTED BY IDOCK:   -0.17 KCAL/MOL
REMARK 927      BINDING AFFINITY PREDICTED BY RF-SCORE:    0.00 PKD
ROOT
HETATM    1  C   UNL     1     -12.117   6.843  71.434  1.00  0.00    -0.408 C  
ENDROOT
BRANCH   1   2
HETATM    2  C   UNL     1     -11.280   6.413  72.614  1.00  0.00    -0.255 C  
HETATM    3  N   UNL     1     -11.101   5.095  72.969  1.00  0.00    -0.292 NA 
HETATM    4  C   UNL     1     -10.560   5.089  74.308  1.00  0.00    -0.261 C  
HETATM    5  N   UNL     1     -10.657   7.301  73.351  1.00  0.00    -0.379 NA 
HETATM    6  C   UNL     1      -9.922   6.479  74.356  1.00  0.00    -0.351 C  
ENDBRANCH   1   2
BRANCH   1   7
HETATM    7  C   UNL     1     -12.256   8.345  71.267  1.00  0.00    -0.305 A  
HETATM    8  C   UNL     1     -13.222   9.002  72.051  1.00  0.00    -0.486 A  
HETATM    9  C   UNL     1     -12.706  11.098  70.985  1.00  0.00    -0.476 A  
HETATM   10  C   UNL     1     -11.709  10.484  70.216  1.00  0.00    -0.420 A  
HETATM   11  C   UNL     1     -13.448  10.366  71.908  1.00  0.00    -0.384 A  
HETATM   12  C   UNL     1     -10.954  11.247  69.307  1.00  0.00    -0.297 A  
HETATM   13  C   UNL     1      -9.947  10.663  68.543  1.00  0.00    -0.176 A  
HETATM   14  C   UNL     1      -9.681   9.307  68.676  1.00  0.00    -0.158 A  
HETATM   15  C   UNL     1     -10.429   8.532  69.567  1.00  0.00    -0.222 A  
HETATM   16  C   UNL     1     -11.459   9.093  70.355  1.00  0.00    -0.228 A  
ENDBRANCH   1   7
TORSDOF 2
ENDMDL
MODEL       79
REMARK 921   NORMALIZED FREE ENERGY PREDICTED BY IDOCK:   -4.43 KCAL/MOL
REMARK 922        TOTAL FREE ENERGY PREDICTED BY IDOCK:   -5.24 KCAL/MOL
REMARK 923 INTER-LIGAND FREE ENERGY PREDICTED BY IDOCK:   -5.14 KCAL/MOL
REMARK 924 INTRA-LIGAND FREE ENERGY PREDICTED BY IDOCK:   -0.10 KCAL/MOL
REMARK 927      BINDING AFFINITY PREDICTED BY RF-SCORE:    0.00 PKD
ROOT
HETATM    1  C   UNL     1     -11.589  15.199  65.121  1.00  0.00    -0.245 C  
ENDROOT
BRANCH   1   2
HETATM    2  C   UNL     1     -11.464  13.855  64.444  1.00  0.00    -0.361 C  
HETATM    3  N   UNL     1     -12.393  13.373  63.551  1.00  0.00    -0.749 NA 
HETATM    4  C   UNL     1     -12.134  11.961  63.395  1.00  0.00    -0.432 C  
HETATM    5  N   UNL     1     -10.425  13.087  64.672  1.00  0.00    -0.365 NA 
HETATM    6  C   UNL     1     -10.658  11.903  63.794  1.00  0.00    -0.422 C  
ENDBRANCH   1   2
BRANCH   1   7
HETATM    7  C   UNL     1     -10.538  15.479  66.178  1.00  0.00    -0.321 A  
HETATM    8  C   UNL     1      -9.274  15.915  65.741  1.00  0.00    -0.241 A  
HETATM    9  C   UNL     1      -8.460  15.925  68.007  1.00  0.00    -0.162 A  
HETATM   10  C   UNL     1      -9.717  15.529  68.482  1.00  0.00    -0.203 A  
HETATM   11  C   UNL     1      -8.242  16.131  66.647  1.00  0.00    -0.321 A  
HETATM   12  C   UNL     1      -9.922  15.350  69.861  1.00  0.00    -0.229 A  
HETATM   13  C   UNL     1     -11.166  14.972  70.358  1.00  0.00    -0.290 A  
HETATM   14  C   UNL     1     -12.224  14.767  69.482  1.00  0.00    -0.280 A  
HETATM   15  C   UNL     1     -12.035  14.930  68.107  1.00  0.00    -0.234 A  
HETATM   16  C   UNL     1     -10.784  15.311  67.570  1.00  0.00    -0.285 A  
ENDBRANCH   1   7
TORSDOF 2
ENDMDL
MODEL       80
REMARK 921   NORMALIZED FREE ENERGY PREDICTED BY IDOCK:   -4.42 KCAL/MOL
REMARK 922        TOTAL FREE ENERGY PREDICTED BY IDOCK:   -5.22 KCAL/MOL
REMARK 923 INTER-LIGAND FREE ENERGY PREDICTED BY IDOCK:   -4.99 KCAL/MOL
REMARK 924 INTRA-LIGAND FREE ENERGY PREDICTED BY IDOCK:   -0.23 KCAL/MOL
REMARK 927      BINDING AFFINITY PREDICTED BY RF-SCORE:    0.00 PKD
ROOT
HETATM    1  C   UNL     1     -11.401  15.487  67.531  1.00  0.00    -0.232 C  
ENDROOT
BRANCH   1   2
HETATM    2  C   UNL     1      -9.928  15.811  67.470  1.00  0.00    -0.236 C  
HETATM    3  N   UNL     1      -9.016  15.345  68.391  1.00  0.00    -0.184 NA 
HETATM    4  C   UNL     1      -7.813  16.127  68.225  1.00  0.00    -0.153 C  
HETATM    5  N   UNL     1      -9.445  16.550  66.500  1.00  0.00    -0.256 NA 
HETATM    6  C   UNL     1      -7.979  16.590  66.776  1.00  0.00    -0.255 C  
ENDBRANCH   1   2
BRANCH   1   7
HETATM    7  C   UNL     1     -11.841  14.761  68.788  1.00  0.00    -0.330 A  
HETATM    8  C   UNL     1     -12.311  15.540  69.861  1.00  0.00    -0.306 A  
HETATM    9  C   UNL     1     -12.580  13.569  71.216  1.00  0.00    -0.427 A  
HETATM   10  C   UNL     1     -12.154  12.758  70.156  1.00  0.00    -0.370 A  
HETATM   11  C   UNL     1     -12.673  14.950  71.066  1.00  0.00    -0.412 A  
HETATM   12  C   UNL     1     -12.091  11.363  70.321  1.00  0.00    -0.459 A  
HETATM   13  C   UNL     1     -11.686  10.535  69.278  1.00  0.00    -0.281 A  
HETATM   14  C   UNL     1     -11.337  11.090  68.054  1.00  0.00    -0.374 A  
HETATM   15  C   UNL     1     -11.383  12.475  67.876  1.00  0.00    -0.343 A  
HETATM   16  C   UNL     1     -11.788  13.344  68.915  1.00  0.00    -0.373 A  
ENDBRANCH   1   7
TORSDOF 2
ENDMDL
MODEL       81
REMARK 921   NORMALIZED FREE ENERGY PREDICTED BY IDOCK:   -4.42 KCAL/MOL
REMARK 922        TOTAL FREE ENERGY PREDICTED BY IDOCK:   -5.22 KCAL/MOL
REMARK 923 INTER-LIGAND FREE ENERGY PREDICTED BY IDOCK:   -4.96 KCAL/MOL
REMARK 924 INTRA-LIGAND FREE ENERGY PREDICTED BY IDOCK:   -0.27 KCAL/MOL
REMARK 927      BINDING AFFINITY PREDICTED BY RF-SCORE:    0.00 PKD
ROOT
HETATM    1  C   UNL     1      -9.325  14.563  67.307  1.00  0.00    -0.213 C  
ENDROOT
BRANCH   1   2
HETATM    2  C   UNL     1     -10.200  14.700  68.529  1.00  0.00    -0.240 C  
HETATM    3  N   UNL     1     -11.327  13.938  68.737  1.00  0.00    -0.259 NA 
HETATM    4  C   UNL     1     -12.078  14.576  69.793  1.00  0.00    -0.331 C  
HETATM    5  N   UNL     1      -9.898  15.558  69.474  1.00  0.00    -0.272 NA 
HETATM    6  C   UNL     1     -10.963  15.351  70.499  1.00  0.00    -0.323 C  
ENDBRANCH   1   2
BRANCH   1   7
HETATM    7  C   UNL     1      -9.430  13.227  66.597  1.00  0.00    -0.262 A  
HETATM    8  C   UNL     1      -8.593  12.185  67.040  1.00  0.00    -0.191 A  
HETATM    9  C   UNL     1      -9.429  10.737  65.308  1.00  0.00    -0.263 A  
HETATM   10  C   UNL     1     -10.303  11.737  64.864  1.00  0.00    -0.334 A  
HETATM   11  C   UNL     1      -8.589  10.952  66.397  1.00  0.00    -0.160 A  
HETATM   12  C   UNL     1     -11.159  11.490  63.777  1.00  0.00    -0.471 A  
HETATM   13  C   UNL     1     -12.047  12.464  63.328  1.00  0.00    -0.519 A  
HETATM   14  C   UNL     1     -12.092  13.699  63.959  1.00  0.00    -0.474 A  
HETATM   15  C   UNL     1     -11.240  13.965  65.035  1.00  0.00    -0.342 A  
HETATM   16  C   UNL     1     -10.325  13.000  65.514  1.00  0.00    -0.304 A  
ENDBRANCH   1   7
TORSDOF 2
ENDMDL
MODEL       82
REMARK 921   NORMALIZED FREE ENERGY PREDICTED BY IDOCK:   -4.41 KCAL/MOL
REMARK 922        TOTAL FREE ENERGY PREDICTED BY IDOCK:   -5.22 KCAL/MOL
REMARK 923 INTER-LIGAND FREE ENERGY PREDICTED BY IDOCK:   -4.93 KCAL/MOL
REMARK 924 INTRA-LIGAND FREE ENERGY PREDICTED BY IDOCK:   -0.28 KCAL/MOL
REMARK 927      BINDING AFFINITY PREDICTED BY RF-SCORE:    0.00 PKD
ROOT
HETATM    1  C   UNL     1      -9.965   7.579  71.294  1.00  0.00    -0.196 C  
ENDROOT
BRANCH   1   2
HETATM    2  C   UNL     1      -9.317   7.357  72.639  1.00  0.00    -0.150 C  
HETATM    3  N   UNL     1      -8.717   8.364  73.361  1.00  0.00    -0.327 NA 
HETATM    4  C   UNL     1      -7.921   7.730  74.386  1.00  0.00    -0.220 C  
HETATM    5  N   UNL     1      -9.323   6.169  73.195  1.00  0.00    -0.139 NA 
HETATM    6  C   UNL     1      -8.641   6.384  74.505  1.00  0.00    -0.143 C  
ENDBRANCH   1   2
BRANCH   1   7
HETATM    7  C   UNL     1     -10.986   8.700  71.257  1.00  0.00    -0.333 A  
HETATM    8  C   UNL     1     -12.095   8.600  72.117  1.00  0.00    -0.451 A  
HETATM    9  C   UNL     1     -13.014  10.636  71.219  1.00  0.00    -0.513 A  
HETATM   10  C   UNL     1     -11.906  10.788  70.376  1.00  0.00    -0.450 A  
HETATM   11  C   UNL     1     -13.103   9.557  72.095  1.00  0.00    -0.522 A  
HETATM   12  C   UNL     1     -11.824  11.898  69.517  1.00  0.00    -0.395 A  
HETATM   13  C   UNL     1     -10.726  12.079  68.681  1.00  0.00    -0.266 A  
HETATM   14  C   UNL     1      -9.692  11.153  68.693  1.00  0.00    -0.202 A  
HETATM   15  C   UNL     1      -9.761  10.039  69.533  1.00  0.00    -0.253 A  
HETATM   16  C   UNL     1     -10.863   9.823  70.392  1.00  0.00    -0.370 A  
ENDBRANCH   1   7
TORSDOF 2
ENDMDL
MODEL       83
REMARK 921   NORMALIZED FREE ENERGY PREDICTED BY IDOCK:   -4.40 KCAL/MOL
REMARK 922        TOTAL FREE ENERGY PREDICTED BY IDOCK:   -5.21 KCAL/MOL
REMARK 923 INTER-LIGAND FREE ENERGY PREDICTED BY IDOCK:   -4.91 KCAL/MOL
REMARK 924 INTRA-LIGAND FREE ENERGY PREDICTED BY IDOCK:   -0.30 KCAL/MOL
REMARK 927      BINDING AFFINITY PREDICTED BY RF-SCORE:    0.00 PKD
ROOT
HETATM    1  C   UNL     1     -11.178  10.875  67.515  1.00  0.00    -0.364 C  
ENDROOT
BRANCH   1   2
HETATM    2  C   UNL     1      -9.751  10.415  67.690  1.00  0.00    -0.168 C  
HETATM    3  N   UNL     1      -9.096  10.437  68.901  1.00  0.00    -0.164 NA 
HETATM    4  C   UNL     1      -7.689  10.274  68.622  1.00  0.00    -0.094 C  
HETATM    5  N   UNL     1      -9.070   9.946  66.671  1.00  0.00    -0.145 NA 
HETATM    6  C   UNL     1      -7.754   9.569  67.265  1.00  0.00    -0.091 C  
ENDBRANCH   1   2
BRANCH   1   7
HETATM    7  C   UNL     1     -11.493  12.223  68.135  1.00  0.00    -0.371 A  
HETATM    8  C   UNL     1     -11.228  13.372  67.367  1.00  0.00    -0.311 A  
HETATM    9  C   UNL     1     -11.915  14.786  69.190  1.00  0.00    -0.317 A  
HETATM   10  C   UNL     1     -12.227  13.665  69.969  1.00  0.00    -0.395 A  
HETATM   11  C   UNL     1     -11.433  14.643  67.892  1.00  0.00    -0.350 A  
HETATM   12  C   UNL     1     -12.735  13.832  71.269  1.00  0.00    -0.450 A  
HETATM   13  C   UNL     1     -13.067  12.733  72.057  1.00  0.00    -0.474 A  
HETATM   14  C   UNL     1     -12.894  11.450  71.556  1.00  0.00    -0.508 A  
HETATM   15  C   UNL     1     -12.380  11.265  70.270  1.00  0.00    -0.389 A  
HETATM   16  C   UNL     1     -12.031  12.359  69.445  1.00  0.00    -0.319 A  
ENDBRANCH   1   7
TORSDOF 2
ENDMDL
MODEL       84
REMARK 921   NORMALIZED FREE ENERGY PREDICTED BY IDOCK:   -4.39 KCAL/MOL
REMARK 922        TOTAL FREE ENERGY PREDICTED BY IDOCK:   -5.19 KCAL/MOL
REMARK 923 INTER-LIGAND FREE ENERGY PREDICTED BY IDOCK:   -4.88 KCAL/MOL
REMARK 924 INTRA-LIGAND FREE ENERGY PREDICTED BY IDOCK:   -0.31 KCAL/MOL
REMARK 927      BINDING AFFINITY PREDICTED BY RF-SCORE:    0.00 PKD
ROOT
HETATM    1  C   UNL     1     -11.152  15.413  68.584  1.00  0.00    -0.290 C  
ENDROOT
BRANCH   1   2
HETATM    2  C   UNL     1     -11.951  15.050  69.812  1.00  0.00    -0.328 C  
HETATM    3  N   UNL     1     -12.002  13.774  70.327  1.00  0.00    -0.328 NA 
HETATM    4  C   UNL     1     -13.111  13.738  71.252  1.00  0.00    -0.297 C  
HETATM    5  N   UNL     1     -12.627  15.966  70.465  1.00  0.00    -0.342 NA 
HETATM    6  C   UNL     1     -13.221  15.221  71.613  1.00  0.00    -0.446 C  
ENDBRANCH   1   2
BRANCH   1   7
HETATM    7  C   UNL     1     -11.151  14.360  67.492  1.00  0.00    -0.312 A  
HETATM    8  C   UNL     1     -12.272  14.300  66.643  1.00  0.00    -0.411 A  
HETATM    9  C   UNL     1     -11.344  12.393  65.503  1.00  0.00    -0.387 A  
HETATM   10  C   UNL     1     -10.197  12.446  66.305  1.00  0.00    -0.258 A  
HETATM   11  C   UNL     1     -12.369  13.321  65.660  1.00  0.00    -0.521 A  
HETATM   12  C   UNL     1      -9.163  11.514  66.114  1.00  0.00    -0.230 A  
HETATM   13  C   UNL     1      -8.006  11.556  66.887  1.00  0.00    -0.164 A  
HETATM   14  C   UNL     1      -7.867  12.533  67.864  1.00  0.00    -0.144 A  
HETATM   15  C   UNL     1      -8.889  13.461  68.075  1.00  0.00    -0.183 A  
HETATM   16  C   UNL     1     -10.078  13.444  67.309  1.00  0.00    -0.238 A  
ENDBRANCH   1   7
TORSDOF 2
ENDMDL
MODEL       85
REMARK 921   NORMALIZED FREE ENERGY PREDICTED BY IDOCK:   -4.38 KCAL/MOL
REMARK 922        TOTAL FREE ENERGY PREDICTED BY IDOCK:   -5.18 KCAL/MOL
REMARK 923 INTER-LIGAND FREE ENERGY PREDICTED BY IDOCK:   -4.89 KCAL/MOL
REMARK 924 INTRA-LIGAND FREE ENERGY PREDICTED BY IDOCK:   -0.29 KCAL/MOL
REMARK 927      BINDING AFFINITY PREDICTED BY RF-SCORE:    0.00 PKD
ROOT
HETATM    1  C   UNL     1     -11.982  15.726  69.304  1.00  0.00    -0.305 C  
ENDROOT
BRANCH   1   2
HETATM    2  C   UNL     1     -12.341  15.521  70.756  1.00  0.00    -0.414 C  
HETATM    3  N   UNL     1     -11.589  16.022  71.795  1.00  0.00    -0.464 NA 
HETATM    4  C   UNL     1     -12.023  15.343  72.994  1.00  0.00    -0.447 C  
HETATM    5  N   UNL     1     -13.424  14.860  71.090  1.00  0.00    -0.405 NA 
HETATM    6  C   UNL     1     -13.436  14.925  72.580  1.00  0.00    -0.471 C  
ENDBRANCH   1   2
BRANCH   1   7
HETATM    7  C   UNL     1     -11.221  14.577  68.669  1.00  0.00    -0.281 A  
HETATM    8  C   UNL     1     -11.970  13.581  68.016  1.00  0.00    -0.372 A  
HETATM    9  C   UNL     1      -9.963  12.336  67.549  1.00  0.00    -0.201 A  
HETATM   10  C   UNL     1      -9.182  13.327  68.157  1.00  0.00    -0.212 A  
HETATM   11  C   UNL     1     -11.347  12.467  67.466  1.00  0.00    -0.375 A  
HETATM   12  C   UNL     1      -7.785  13.186  68.209  1.00  0.00    -0.141 A  
HETATM   13  C   UNL     1      -6.986  14.165  68.794  1.00  0.00    -0.104 A  
HETATM   14  C   UNL     1      -7.574  15.300  69.336  1.00  0.00    -0.219 A  
HETATM   15  C   UNL     1      -8.963  15.452  69.302  1.00  0.00    -0.261 A  
HETATM   16  C   UNL     1      -9.803  14.475  68.718  1.00  0.00    -0.220 A  
ENDBRANCH   1   7
TORSDOF 2
ENDMDL
MODEL       86
REMARK 921   NORMALIZED FREE ENERGY PREDICTED BY IDOCK:   -4.38 KCAL/MOL
REMARK 922        TOTAL FREE ENERGY PREDICTED BY IDOCK:   -5.18 KCAL/MOL
REMARK 923 INTER-LIGAND FREE ENERGY PREDICTED BY IDOCK:   -5.00 KCAL/MOL
REMARK 924 INTRA-LIGAND FREE ENERGY PREDICTED BY IDOCK:   -0.18 KCAL/MOL
REMARK 927      BINDING AFFINITY PREDICTED BY RF-SCORE:    0.00 PKD
ROOT
HETATM    1  C   UNL     1     -11.443  11.970  65.405  1.00  0.00    -0.361 C  
ENDROOT
BRANCH   1   2
HETATM    2  C   UNL     1     -10.188  11.175  65.137  1.00  0.00    -0.289 C  
HETATM    3  N   UNL     1      -9.213  10.966  66.085  1.00  0.00    -0.178 NA 
HETATM    4  C   UNL     1      -8.041  10.491  65.387  1.00  0.00    -0.141 C  
HETATM    5  N   UNL     1      -9.986  10.621  63.965  1.00  0.00    -0.332 NA 
HETATM    6  C   UNL     1      -8.686   9.906  64.128  1.00  0.00    -0.206 C  
ENDBRANCH   1   2
BRANCH   1   7
HETATM    7  C   UNL     1     -11.414  12.794  66.678  1.00  0.00    -0.404 A  
HETATM    8  C   UNL     1     -11.784  12.155  67.876  1.00  0.00    -0.403 A  
HETATM    9  C   UNL     1     -11.521  14.216  69.092  1.00  0.00    -0.338 A  
HETATM   10  C   UNL     1     -11.111  14.875  67.926  1.00  0.00    -0.304 A  
HETATM   11  C   UNL     1     -11.841  12.861  69.072  1.00  0.00    -0.352 A  
HETATM   12  C   UNL     1     -10.769  16.238  67.974  1.00  0.00    -0.331 A  
HETATM   13  C   UNL     1     -10.344  16.911  66.831  1.00  0.00    -0.304 A  
HETATM   14  C   UNL     1     -10.256  16.231  65.624  1.00  0.00    -0.368 A  
HETATM   15  C   UNL     1     -10.602  14.879  65.557  1.00  0.00    -0.373 A  
HETATM   16  C   UNL     1     -11.040  14.166  66.697  1.00  0.00    -0.314 A  
ENDBRANCH   1   7
TORSDOF 2
ENDMDL
MODEL       87
REMARK 921   NORMALIZED FREE ENERGY PREDICTED BY IDOCK:   -4.36 KCAL/MOL
REMARK 922        TOTAL FREE ENERGY PREDICTED BY IDOCK:   -5.16 KCAL/MOL
REMARK 923 INTER-LIGAND FREE ENERGY PREDICTED BY IDOCK:   -4.84 KCAL/MOL
REMARK 924 INTRA-LIGAND FREE ENERGY PREDICTED BY IDOCK:   -0.32 KCAL/MOL
REMARK 927      BINDING AFFINITY PREDICTED BY RF-SCORE:    0.00 PKD
ROOT
HETATM    1  C   UNL     1      -8.793  11.037  67.291  1.00  0.00    -0.135 C  
ENDROOT
BRANCH   1   2
HETATM    2  C   UNL     1      -9.136   9.745  67.993  1.00  0.00    -0.125 C  
HETATM    3  N   UNL     1      -9.837   8.725  67.391  1.00  0.00    -0.180 NA 
HETATM    4  C   UNL     1     -10.274   7.836  68.442  1.00  0.00    -0.200 C  
HETATM    5  N   UNL     1      -8.749   9.532  69.229  1.00  0.00    -0.142 NA 
HETATM    6  C   UNL     1      -9.239   8.154  69.523  1.00  0.00    -0.158 C  
ENDBRANCH   1   2
BRANCH   1   7
HETATM    7  C   UNL     1      -9.955  11.997  67.123  1.00  0.00    -0.208 A  
HETATM    8  C   UNL     1     -10.332  12.767  68.239  1.00  0.00    -0.248 A  
HETATM    9  C   UNL     1     -12.156  13.729  66.997  1.00  0.00    -0.436 A  
HETATM   10  C   UNL     1     -11.786  13.008  65.855  1.00  0.00    -0.442 A  
HETATM   11  C   UNL     1     -11.426  13.622  68.178  1.00  0.00    -0.348 A  
HETATM   12  C   UNL     1     -12.522  13.149  64.666  1.00  0.00    -0.433 A  
HETATM   13  C   UNL     1     -12.165  12.454  63.514  1.00  0.00    -0.661 A  
HETATM   14  C   UNL     1     -11.065  11.607  63.534  1.00  0.00    -0.476 A  
HETATM   15  C   UNL     1     -10.328  11.447  64.710  1.00  0.00    -0.349 A  
HETATM   16  C   UNL     1     -10.666  12.135  65.898  1.00  0.00    -0.302 A  
ENDBRANCH   1   7
TORSDOF 2
ENDMDL
MODEL       88
REMARK 921   NORMALIZED FREE ENERGY PREDICTED BY IDOCK:   -4.36 KCAL/MOL
REMARK 922        TOTAL FREE ENERGY PREDICTED BY IDOCK:   -5.16 KCAL/MOL
REMARK 923 INTER-LIGAND FREE ENERGY PREDICTED BY IDOCK:   -4.90 KCAL/MOL
REMARK 924 INTRA-LIGAND FREE ENERGY PREDICTED BY IDOCK:   -0.26 KCAL/MOL
REMARK 927      BINDING AFFINITY PREDICTED BY RF-SCORE:    0.00 PKD
ROOT
HETATM    1  C   UNL     1     -11.485  12.425  66.654  1.00  0.00    -0.429 C  
ENDROOT
BRANCH   1   2
HETATM    2  C   UNL     1     -10.727  13.722  66.503  1.00  0.00    -0.284 C  
HETATM    3  N   UNL     1     -11.278  14.855  65.947  1.00  0.00    -0.336 NA 
HETATM    4  C   UNL     1     -10.185  15.751  65.649  1.00  0.00    -0.380 C  
HETATM    5  N   UNL     1      -9.490  13.827  66.927  1.00  0.00    -0.253 NA 
HETATM    6  C   UNL     1      -9.133  15.247  66.640  1.00  0.00    -0.282 C  
ENDBRANCH   1   2
BRANCH   1   7
HETATM    7  C   UNL     1     -11.592  11.913  68.078  1.00  0.00    -0.401 A  
HETATM    8  C   UNL     1     -12.112  12.789  69.048  1.00  0.00    -0.188 A  
HETATM    9  C   UNL     1     -11.743  11.150  70.771  1.00  0.00    -0.215 A  
HETATM   10  C   UNL     1     -11.255  10.237  69.827  1.00  0.00    -0.339 A  
HETATM   11  C   UNL     1     -12.182  12.412  70.384  1.00  0.00    -0.370 A  
HETATM   12  C   UNL     1     -10.839   8.958  70.235  1.00  0.00    -0.265 A  
HETATM   13  C   UNL     1     -10.365   8.029  69.313  1.00  0.00    -0.224 A  
HETATM   14  C   UNL     1     -10.301   8.366  67.968  1.00  0.00    -0.270 A  
HETATM   15  C   UNL     1     -10.701   9.636  67.545  1.00  0.00    -0.321 A  
HETATM   16  C   UNL     1     -11.184  10.604  68.456  1.00  0.00    -0.342 A  
ENDBRANCH   1   7
TORSDOF 2
ENDMDL
MODEL       89
REMARK 921   NORMALIZED FREE ENERGY PREDICTED BY IDOCK:   -4.34 KCAL/MOL
REMARK 922        TOTAL FREE ENERGY PREDICTED BY IDOCK:   -5.13 KCAL/MOL
REMARK 923 INTER-LIGAND FREE ENERGY PREDICTED BY IDOCK:   -4.88 KCAL/MOL
REMARK 924 INTRA-LIGAND FREE ENERGY PREDICTED BY IDOCK:   -0.26 KCAL/MOL
REMARK 927      BINDING AFFINITY PREDICTED BY RF-SCORE:    0.00 PKD
ROOT
HETATM    1  C   UNL     1      -9.959   9.511  65.845  1.00  0.00    -0.342 C  
ENDROOT
BRANCH   1   2
HETATM    2  C   UNL     1      -8.477   9.667  65.606  1.00  0.00    -0.132 C  
HETATM    3  N   UNL     1      -7.521   9.247  66.503  1.00  0.00    -0.092 NA 
HETATM    4  C   UNL     1      -6.277   9.868  66.115  1.00  0.00    -0.072 C  
HETATM    5  N   UNL     1      -8.032  10.205  64.495  1.00  0.00    -0.148 NA 
HETATM    6  C   UNL     1      -6.548  10.131  64.632  1.00  0.00    -0.125 C  
ENDBRANCH   1   2
BRANCH   1   7
HETATM    7  C   UNL     1     -10.639  10.729  66.440  1.00  0.00    -0.266 A  
HETATM    8  C   UNL     1     -10.710  10.817  67.842  1.00  0.00    -0.282 A  
HETATM    9  C   UNL     1     -11.967  12.863  67.682  1.00  0.00    -0.344 A  
HETATM   10  C   UNL     1     -11.883  12.829  66.284  1.00  0.00    -0.485 A  
HETATM   11  C   UNL     1     -11.372  11.873  68.458  1.00  0.00    -0.329 A  
HETATM   12  C   UNL     1     -12.470  13.853  65.520  1.00  0.00    -0.541 A  
HETATM   13  C   UNL     1     -12.387  13.849  64.131  1.00  0.00    -0.380 A  
HETATM   14  C   UNL     1     -11.715  12.820  63.484  1.00  0.00    -0.597 A  
HETATM   15  C   UNL     1     -11.135  11.789  64.227  1.00  0.00    -0.420 A  
HETATM   16  C   UNL     1     -11.203  11.762  65.639  1.00  0.00    -0.324 A  
ENDBRANCH   1   7
TORSDOF 2
ENDMDL
MODEL       90
REMARK 921   NORMALIZED FREE ENERGY PREDICTED BY IDOCK:   -4.29 KCAL/MOL
REMARK 922        TOTAL FREE ENERGY PREDICTED BY IDOCK:   -5.08 KCAL/MOL
REMARK 923 INTER-LIGAND FREE ENERGY PREDICTED BY IDOCK:   -4.81 KCAL/MOL
REMARK 924 INTRA-LIGAND FREE ENERGY PREDICTED BY IDOCK:   -0.27 KCAL/MOL
REMARK 927      BINDING AFFINITY PREDICTED BY RF-SCORE:    0.00 PKD
ROOT
HETATM    1  C   UNL     1      -9.417  10.141  69.727  1.00  0.00    -0.201 C  
ENDROOT
BRANCH   1   2
HETATM    2  C   UNL     1      -9.696  10.741  68.370  1.00  0.00    -0.174 C  
HETATM    3  N   UNL     1     -10.774  10.380  67.595  1.00  0.00    -0.264 NA 
HETATM    4  C   UNL     1     -10.521  10.878  66.263  1.00  0.00    -0.245 C  
HETATM    5  N   UNL     1      -8.911  11.670  67.877  1.00  0.00    -0.163 NA 
HETATM    6  C   UNL     1      -9.548  12.018  66.573  1.00  0.00    -0.224 C  
ENDBRANCH   1   2
BRANCH   1   7
HETATM    7  C   UNL     1     -10.190   8.871  70.032  1.00  0.00    -0.214 A  
HETATM    8  C   UNL     1      -9.632   7.651  69.607  1.00  0.00    -0.160 A  
HETATM    9  C   UNL     1     -11.556   6.454  70.421  1.00  0.00    -0.440 A  
HETATM   10  C   UNL     1     -12.123   7.645  70.891  1.00  0.00    -0.226 A  
HETATM   11  C   UNL     1     -10.312   6.453  69.796  1.00  0.00    -0.246 A  
HETATM   12  C   UNL     1     -13.369   7.620  71.541  1.00  0.00    -0.383 A  
HETATM   13  C   UNL     1     -13.946   8.789  72.031  1.00  0.00    -0.511 A  
HETATM   14  C   UNL     1     -13.285   9.999  71.878  1.00  0.00    -0.557 A  
HETATM   15  C   UNL     1     -12.051  10.044  71.225  1.00  0.00    -0.487 A  
HETATM   16  C   UNL     1     -11.438   8.877  70.714  1.00  0.00    -0.319 A  
ENDBRANCH   1   7
TORSDOF 2
ENDMDL
MODEL       91
REMARK 921   NORMALIZED FREE ENERGY PREDICTED BY IDOCK:   -4.28 KCAL/MOL
REMARK 922        TOTAL FREE ENERGY PREDICTED BY IDOCK:   -5.07 KCAL/MOL
REMARK 923 INTER-LIGAND FREE ENERGY PREDICTED BY IDOCK:   -4.83 KCAL/MOL
REMARK 924 INTRA-LIGAND FREE ENERGY PREDICTED BY IDOCK:   -0.23 KCAL/MOL
REMARK 927      BINDING AFFINITY PREDICTED BY RF-SCORE:    0.00 PKD
ROOT
HETATM    1  C   UNL     1     -11.500  11.613  68.152  1.00  0.00    -0.382 C  
ENDROOT
BRANCH   1   2
HETATM    2  C   UNL     1     -11.155  13.072  68.332  1.00  0.00    -0.262 C  
HETATM    3  N   UNL     1     -11.955  13.955  69.021  1.00  0.00    -0.353 NA 
HETATM    4  C   UNL     1     -11.501  15.284  68.685  1.00  0.00    -0.337 C  
HETATM    5  N   UNL     1     -10.040  13.560  67.843  1.00  0.00    -0.242 NA 
HETATM    6  C   UNL     1     -10.058  14.989  68.271  1.00  0.00    -0.222 C  
ENDBRANCH   1   2
BRANCH   1   7
HETATM    7  C   UNL     1     -11.652  10.832  69.444  1.00  0.00    -0.380 A  
HETATM    8  C   UNL     1     -12.924  10.805  70.044  1.00  0.00     0.042 A  
HETATM    9  C   UNL     1     -12.060   9.527  71.892  1.00  0.00    -0.409 A  
HETATM   10  C   UNL     1     -10.788   9.501  71.305  1.00  0.00    -0.413 A  
HETATM   11  C   UNL     1     -13.125  10.162  71.260  1.00  0.00    -0.490 A  
HETATM   12  C   UNL     1      -9.731   8.833  71.948  1.00  0.00    -0.386 A  
HETATM   13  C   UNL     1      -8.463   8.780  71.377  1.00  0.00    -0.245 A  
HETATM   14  C   UNL     1      -8.232   9.395  70.154  1.00  0.00    -0.180 A  
HETATM   15  C   UNL     1      -9.268  10.071  69.505  1.00  0.00    -0.238 A  
HETATM   16  C   UNL     1     -10.567  10.146  70.059  1.00  0.00    -0.338 A  
ENDBRANCH   1   7
TORSDOF 2
ENDMDL
MODEL       92
REMARK 921   NORMALIZED FREE ENERGY PREDICTED BY IDOCK:   -4.28 KCAL/MOL
REMARK 922        TOTAL FREE ENERGY PREDICTED BY IDOCK:   -5.07 KCAL/MOL
REMARK 923 INTER-LIGAND FREE ENERGY PREDICTED BY IDOCK:   -4.75 KCAL/MOL
REMARK 924 INTRA-LIGAND FREE ENERGY PREDICTED BY IDOCK:   -0.31 KCAL/MOL
REMARK 927      BINDING AFFINITY PREDICTED BY RF-SCORE:    0.00 PKD
ROOT
HETATM    1  C   UNL     1      -9.493   7.624  71.294  1.00  0.00    -0.166 C  
ENDROOT
BRANCH   1   2
HETATM    2  C   UNL     1      -9.706   6.414  70.417  1.00  0.00    -0.165 C  
HETATM    3  N   UNL     1     -10.134   5.199  70.902  1.00  0.00    -0.219 NA 
HETATM    4  C   UNL     1      -9.882   4.221  69.870  1.00  0.00    -0.197 C  
HETATM    5  N   UNL     1      -9.506   6.483  69.123  1.00  0.00    -0.136 NA 
HETATM    6  C   UNL     1      -9.866   5.121  68.632  1.00  0.00    -0.160 C  
ENDBRANCH   1   2
BRANCH   1   7
HETATM    7  C   UNL     1     -10.661   8.590  71.339  1.00  0.00    -0.317 A  
HETATM    8  C   UNL     1     -11.686   8.332  72.269  1.00  0.00    -0.453 A  
HETATM    9  C   UNL     1     -12.938  10.221  71.459  1.00  0.00    -0.556 A  
HETATM   10  C   UNL     1     -11.920  10.532  70.548  1.00  0.00    -0.436 A  
HETATM   11  C   UNL     1     -12.817   9.138  72.325  1.00  0.00    -0.472 A  
HETATM   12  C   UNL     1     -12.053  11.645  69.701  1.00  0.00    -0.345 A  
HETATM   13  C   UNL     1     -11.048  11.983  68.798  1.00  0.00    -0.298 A  
HETATM   14  C   UNL     1      -9.896  11.211  68.730  1.00  0.00    -0.201 A  
HETATM   15  C   UNL     1      -9.752  10.095  69.558  1.00  0.00    -0.251 A  
HETATM   16  C   UNL     1     -10.754   9.723  70.483  1.00  0.00    -0.381 A  
ENDBRANCH   1   7
TORSDOF 2
ENDMDL
MODEL       93
REMARK 921   NORMALIZED FREE ENERGY PREDICTED BY IDOCK:   -4.27 KCAL/MOL
REMARK 922        TOTAL FREE ENERGY PREDICTED BY IDOCK:   -5.06 KCAL/MOL
REMARK 923 INTER-LIGAND FREE ENERGY PREDICTED BY IDOCK:   -4.84 KCAL/MOL
REMARK 924 INTRA-LIGAND FREE ENERGY PREDICTED BY IDOCK:   -0.22 KCAL/MOL
REMARK 927      BINDING AFFINITY PREDICTED BY RF-SCORE:    0.00 PKD
ROOT
HETATM    1  C   UNL     1     -10.514  12.866  67.115  1.00  0.00    -0.241 C  
ENDROOT
BRANCH   1   2
HETATM    2  C   UNL     1     -11.209  12.591  65.804  1.00  0.00    -0.320 C  
HETATM    3  N   UNL     1     -10.578  12.022  64.721  1.00  0.00    -0.283 NA 
HETATM    4  C   UNL     1     -11.428  12.240  63.575  1.00  0.00    -0.476 C  
HETATM    5  N   UNL     1     -12.482  12.872  65.651  1.00  0.00    -0.574 NA 
HETATM    6  C   UNL     1     -12.784  12.415  64.263  1.00  0.00    -0.342 C  
ENDBRANCH   1   2
BRANCH   1   7
HETATM    7  C   UNL     1     -11.035  12.063  68.292  1.00  0.00    -0.275 A  
HETATM    8  C   UNL     1     -11.923  12.704  69.176  1.00  0.00    -0.293 A  
HETATM    9  C   UNL     1     -11.992  10.746  70.574  1.00  0.00    -0.456 A  
HETATM   10  C   UNL     1     -11.141  10.063  69.696  1.00  0.00    -0.300 A  
HETATM   11  C   UNL     1     -12.393  12.052  70.310  1.00  0.00    -0.275 A  
HETATM   12  C   UNL     1     -10.768   8.736  69.969  1.00  0.00    -0.236 A  
HETATM   13  C   UNL     1      -9.935   8.032  69.103  1.00  0.00    -0.188 A  
HETATM   14  C   UNL     1      -9.464   8.646  67.950  1.00  0.00    -0.157 A  
HETATM   15  C   UNL     1      -9.816   9.968  67.668  1.00  0.00    -0.194 A  
HETATM   16  C   UNL     1     -10.657  10.712  68.528  1.00  0.00    -0.229 A  
ENDBRANCH   1   7
TORSDOF 2
ENDMDL
MODEL       94
REMARK 921   NORMALIZED FREE ENERGY PREDICTED BY IDOCK:   -4.25 KCAL/MOL
REMARK 922        TOTAL FREE ENERGY PREDICTED BY IDOCK:   -5.03 KCAL/MOL
REMARK 923 INTER-LIGAND FREE ENERGY PREDICTED BY IDOCK:   -4.73 KCAL/MOL
REMARK 924 INTRA-LIGAND FREE ENERGY PREDICTED BY IDOCK:   -0.31 KCAL/MOL
REMARK 927      BINDING AFFINITY PREDICTED BY RF-SCORE:    0.00 PKD
ROOT
HETATM    1  C   UNL     1     -10.410   8.727  70.863  1.00  0.00    -0.281 C  
ENDROOT
BRANCH   1   2
HETATM    2  C   UNL     1     -11.722   9.218  71.426  1.00  0.00    -0.361 C  
HETATM    3  N   UNL     1     -12.227  10.474  71.172  1.00  0.00    -0.375 NA 
HETATM    4  C   UNL     1     -13.278  10.707  72.134  1.00  0.00    -0.273 C  
HETATM    5  N   UNL     1     -12.459   8.438  72.180  1.00  0.00    -0.353 NA 
HETATM    6  C   UNL     1     -13.663   9.267  72.481  1.00  0.00    -0.409 C  
ENDBRANCH   1   2
BRANCH   1   7
HETATM    7  C   UNL     1     -10.479   8.227  69.432  1.00  0.00    -0.224 A  
HETATM    8  C   UNL     1     -10.996   6.936  69.217  1.00  0.00    -0.260 A  
HETATM    9  C   UNL     1     -10.563   7.123  66.857  1.00  0.00    -0.371 A  
HETATM   10  C   UNL     1     -10.078   8.426  67.028  1.00  0.00    -0.354 A  
HETATM   11  C   UNL     1     -11.033   6.387  67.941  1.00  0.00    -0.416 A  
HETATM   12  C   UNL     1      -9.632   9.160  65.916  1.00  0.00    -0.343 A  
HETATM   13  C   UNL     1      -9.160  10.462  66.059  1.00  0.00    -0.187 A  
HETATM   14  C   UNL     1      -9.128  11.049  67.317  1.00  0.00    -0.142 A  
HETATM   15  C   UNL     1      -9.559  10.330  68.434  1.00  0.00    -0.155 A  
HETATM   16  C   UNL     1     -10.041   9.005  68.324  1.00  0.00    -0.223 A  
ENDBRANCH   1   7
TORSDOF 2
ENDMDL
MODEL       95
REMARK 921   NORMALIZED FREE ENERGY PREDICTED BY IDOCK:   -4.22 KCAL/MOL
REMARK 922        TOTAL FREE ENERGY PREDICTED BY IDOCK:   -5.00 KCAL/MOL
REMARK 923 INTER-LIGAND FREE ENERGY PREDICTED BY IDOCK:   -4.68 KCAL/MOL
REMARK 924 INTRA-LIGAND FREE ENERGY PREDICTED BY IDOCK:   -0.33 KCAL/MOL
REMARK 927      BINDING AFFINITY PREDICTED BY RF-SCORE:    0.00 PKD
ROOT
HETATM    1  C   UNL     1      -9.365   8.504  69.643  1.00  0.00    -0.157 C  
ENDROOT
BRANCH   1   2
HETATM    2  C   UNL     1      -9.811   7.415  68.699  1.00  0.00    -0.163 C  
HETATM    3  N   UNL     1     -10.523   7.662  67.547  1.00  0.00    -0.255 NA 
HETATM    4  C   UNL     1     -11.065   6.398  67.107  1.00  0.00    -0.341 C  
HETATM    5  N   UNL     1      -9.510   6.160  68.936  1.00  0.00    -0.123 NA 
HETATM    6  C   UNL     1     -10.082   5.429  67.767  1.00  0.00    -0.171 C  
ENDBRANCH   1   2
BRANCH   1   7
HETATM    7  C   UNL     1     -10.487   9.352  70.211  1.00  0.00    -0.298 A  
HETATM    8  C   UNL     1     -11.226   8.821  71.284  1.00  0.00    -0.352 A  
HETATM    9  C   UNL     1     -12.663  10.753  71.290  1.00  0.00    -0.546 A  
HETATM   10  C   UNL     1     -11.925  11.330  70.248  1.00  0.00    -0.466 A  
HETATM   11  C   UNL     1     -12.309   9.514  71.816  1.00  0.00    -0.474 A  
HETATM   12  C   UNL     1     -12.285  12.593  69.749  1.00  0.00    -0.209 A  
HETATM   13  C   UNL     1     -11.558  13.194  68.724  1.00  0.00    -0.348 A  
HETATM   14  C   UNL     1     -10.460  12.539  68.185  1.00  0.00    -0.238 A  
HETATM   15  C   UNL     1     -10.094  11.278  68.662  1.00  0.00    -0.216 A  
HETATM   16  C   UNL     1     -10.812  10.639  69.699  1.00  0.00    -0.318 A  
ENDBRANCH   1   7
TORSDOF 2
ENDMDL
MODEL       96
REMARK 921   NORMALIZED FREE ENERGY PREDICTED BY IDOCK:   -4.22 KCAL/MOL
REMARK 922        TOTAL FREE ENERGY PREDICTED BY IDOCK:   -5.00 KCAL/MOL
REMARK 923 INTER-LIGAND FREE ENERGY PREDICTED BY IDOCK:   -4.82 KCAL/MOL
REMARK 924 INTRA-LIGAND FREE ENERGY PREDICTED BY IDOCK:   -0.18 KCAL/MOL
REMARK 927      BINDING AFFINITY PREDICTED BY RF-SCORE:    0.00 PKD
ROOT
HETATM    1  C   UNL     1     -11.482  15.666  68.119  1.00  0.00    -0.325 C  
ENDROOT
BRANCH   1   2
HETATM    2  C   UNL     1     -10.604  16.871  67.883  1.00  0.00    -0.361 C  
HETATM    3  N   UNL     1     -10.065  17.622  68.903  1.00  0.00    -0.362 NA 
HETATM    4  C   UNL     1      -9.602  18.858  68.317  1.00  0.00    -0.352 C  
HETATM    5  N   UNL     1     -10.297  17.245  66.663  1.00  0.00    -0.319 NA 
HETATM    6  C   UNL     1      -9.397  18.419  66.866  1.00  0.00    -0.290 C  
ENDBRANCH   1   2
BRANCH   1   7
HETATM    7  C   UNL     1     -11.309  14.546  67.111  1.00  0.00    -0.361 A  
HETATM    8  C   UNL     1     -12.277  14.426  66.097  1.00  0.00    -0.358 A  
HETATM    9  C   UNL     1     -11.186  12.457  65.245  1.00  0.00    -0.359 A  
HETATM   10  C   UNL     1     -10.183  12.568  66.216  1.00  0.00    -0.265 A  
HETATM   11  C   UNL     1     -12.219  13.387  65.175  1.00  0.00    -0.473 A  
HETATM   12  C   UNL     1      -9.135  11.631  66.253  1.00  0.00    -0.219 A  
HETATM   13  C   UNL     1      -8.119  11.730  67.200  1.00  0.00    -0.169 A  
HETATM   14  C   UNL     1      -8.135  12.766  68.123  1.00  0.00    -0.158 A  
HETATM   15  C   UNL     1      -9.174  13.700  68.106  1.00  0.00    -0.204 A  
HETATM   16  C   UNL     1     -10.223  13.628  67.161  1.00  0.00    -0.244 A  
ENDBRANCH   1   7
TORSDOF 2
ENDMDL
MODEL       97
REMARK 921   NORMALIZED FREE ENERGY PREDICTED BY IDOCK:   -4.20 KCAL/MOL
REMARK 922        TOTAL FREE ENERGY PREDICTED BY IDOCK:   -4.98 KCAL/MOL
REMARK 923 INTER-LIGAND FREE ENERGY PREDICTED BY IDOCK:   -4.68 KCAL/MOL
REMARK 924 INTRA-LIGAND FREE ENERGY PREDICTED BY IDOCK:   -0.30 KCAL/MOL
REMARK 927      BINDING AFFINITY PREDICTED BY RF-SCORE:    0.00 PKD
ROOT
HETATM    1  C   UNL     1      -9.818  10.065  67.046  1.00  0.00    -0.238 C  
ENDROOT
BRANCH   1   2
HETATM    2  C   UNL     1      -8.358  10.057  67.431  1.00  0.00    -0.118 C  
HETATM    3  N   UNL     1      -7.564  11.181  67.394  1.00  0.00    -0.108 NA 
HETATM    4  C   UNL     1      -6.194  10.731  67.478  1.00  0.00    -0.053 C  
HETATM    5  N   UNL     1      -7.783   8.954  67.848  1.00  0.00    -0.100 NA 
HETATM    6  C   UNL     1      -6.387   9.376  68.164  1.00  0.00    -0.054 C  
ENDBRANCH   1   2
BRANCH   1   7
HETATM    7  C   UNL     1     -10.109  10.641  65.673  1.00  0.00    -0.335 A  
HETATM    8  C   UNL     1      -9.548   9.989  64.559  1.00  0.00    -0.346 A  
HETATM    9  C   UNL     1     -10.465  11.654  63.083  1.00  0.00    -0.368 A  
HETATM   10  C   UNL     1     -11.071  12.308  64.164  1.00  0.00    -0.423 A  
HETATM   11  C   UNL     1      -9.720  10.494  63.276  1.00  0.00    -0.361 A  
HETATM   12  C   UNL     1     -11.840  13.464  63.943  1.00  0.00    -0.492 A  
HETATM   13  C   UNL     1     -12.465  14.121  64.999  1.00  0.00    -0.434 A  
HETATM   14  C   UNL     1     -12.330  13.632  66.291  1.00  0.00    -0.464 A  
HETATM   15  C   UNL     1     -11.562  12.490  66.530  1.00  0.00    -0.447 A  
HETATM   16  C   UNL     1     -10.912  11.800  65.481  1.00  0.00    -0.344 A  
ENDBRANCH   1   7
TORSDOF 2
ENDMDL
MODEL       98
REMARK 921   NORMALIZED FREE ENERGY PREDICTED BY IDOCK:   -4.20 KCAL/MOL
REMARK 922        TOTAL FREE ENERGY PREDICTED BY IDOCK:   -4.98 KCAL/MOL
REMARK 923 INTER-LIGAND FREE ENERGY PREDICTED BY IDOCK:   -4.81 KCAL/MOL
REMARK 924 INTRA-LIGAND FREE ENERGY PREDICTED BY IDOCK:   -0.16 KCAL/MOL
REMARK 927      BINDING AFFINITY PREDICTED BY RF-SCORE:    0.00 PKD
ROOT
HETATM    1  C   UNL     1     -10.787   7.397  71.459  1.00  0.00    -0.247 C  
ENDROOT
BRANCH   1   2
HETATM    2  C   UNL     1     -12.183   7.945  71.637  1.00  0.00    -0.308 C  
HETATM    3  N   UNL     1     -12.440   9.257  71.967  1.00  0.00    -0.378 NA 
HETATM    4  C   UNL     1     -13.819   9.322  72.392  1.00  0.00    -0.416 C  
HETATM    5  N   UNL     1     -13.231   7.176  71.458  1.00  0.00    -0.384 NA 
HETATM    6  C   UNL     1     -14.388   8.093  71.679  1.00  0.00    -0.469 C  
ENDBRANCH   1   2
BRANCH   1   7
HETATM    7  C   UNL     1     -10.604   5.963  71.918  1.00  0.00    -0.280 A  
HETATM    8  C   UNL     1     -10.874   5.671  73.267  1.00  0.00    -0.321 A  
HETATM    9  C   UNL     1     -10.200   3.383  72.938  1.00  0.00    -0.240 A  
HETATM   10  C   UNL     1      -9.959   3.628  71.580  1.00  0.00    -0.196 A  
HETATM   11  C   UNL     1     -10.668   4.393  73.775  1.00  0.00    -0.344 A  
HETATM   12  C   UNL     1      -9.510   2.588  70.748  1.00  0.00    -0.210 A  
HETATM   13  C   UNL     1      -9.278   2.804  69.392  1.00  0.00    -0.208 A  
HETATM   14  C   UNL     1      -9.492   4.063  68.849  1.00  0.00    -0.237 A  
HETATM   15  C   UNL     1      -9.929   5.111  69.664  1.00  0.00    -0.313 A  
HETATM   16  C   UNL     1     -10.171   4.927  71.044  1.00  0.00    -0.262 A  
ENDBRANCH   1   7
TORSDOF 2
ENDMDL
MODEL       99
REMARK 921   NORMALIZED FREE ENERGY PREDICTED BY IDOCK:   -4.15 KCAL/MOL
REMARK 922        TOTAL FREE ENERGY PREDICTED BY IDOCK:   -4.92 KCAL/MOL
REMARK 923 INTER-LIGAND FREE ENERGY PREDICTED BY IDOCK:   -4.61 KCAL/MOL
REMARK 924 INTRA-LIGAND FREE ENERGY PREDICTED BY IDOCK:   -0.31 KCAL/MOL
REMARK 927      BINDING AFFINITY PREDICTED BY RF-SCORE:    0.00 PKD
ROOT
HETATM    1  C   UNL     1      -9.991   9.089  70.623  1.00  0.00    -0.287 C  
ENDROOT
BRANCH   1   2
HETATM    2  C   UNL     1     -11.353   9.442  71.169  1.00  0.00    -0.351 C  
HETATM    3  N   UNL     1     -12.020  10.600  70.837  1.00  0.00    -0.356 NA 
HETATM    4  C   UNL     1     -13.088  10.761  71.795  1.00  0.00    -0.468 C  
HETATM    5  N   UNL     1     -11.978   8.627  71.985  1.00  0.00    -0.346 NA 
HETATM    6  C   UNL     1     -13.279   9.310  72.245  1.00  0.00    -0.460 C  
ENDBRANCH   1   2
BRANCH   1   7
HETATM    7  C   UNL     1     -10.010   8.251  69.359  1.00  0.00    -0.188 A  
HETATM    8  C   UNL     1     -10.218   8.919  68.137  1.00  0.00    -0.245 A  
HETATM    9  C   UNL     1     -10.187   6.824  66.952  1.00  0.00    -0.300 A  
HETATM   10  C   UNL     1      -9.940   6.130  68.143  1.00  0.00    -0.158 A  
HETATM   11  C   UNL     1     -10.311   8.210  66.945  1.00  0.00    -0.401 A  
HETATM   12  C   UNL     1      -9.794   4.732  68.124  1.00  0.00    -0.182 A  
HETATM   13  C   UNL     1      -9.533   4.022  69.293  1.00  0.00    -0.260 A  
HETATM   14  C   UNL     1      -9.415   4.700  70.499  1.00  0.00    -0.247 A  
HETATM   15  C   UNL     1      -9.567   6.088  70.538  1.00  0.00    -0.198 A  
HETATM   16  C   UNL     1      -9.835   6.839  69.370  1.00  0.00    -0.162 A  
ENDBRANCH   1   7
TORSDOF 2
ENDMDL
MODEL      100
REMARK 921   NORMALIZED FREE ENERGY PREDICTED BY IDOCK:   -4.14 KCAL/MOL
REMARK 922        TOTAL FREE ENERGY PREDICTED BY IDOCK:   -4.92 KCAL/MOL
REMARK 923 INTER-LIGAND FREE ENERGY PREDICTED BY IDOCK:   -4.62 KCAL/MOL
REMARK 924 INTRA-LIGAND FREE ENERGY PREDICTED BY IDOCK:   -0.30 KCAL/MOL
REMARK 927      BINDING AFFINITY PREDICTED BY RF-SCORE:    0.00 PKD
ROOT
HETATM    1  C   UNL     1     -10.162   8.779  71.179  1.00  0.00    -0.316 C  
ENDROOT
BRANCH   1   2
HETATM    2  C   UNL     1     -11.521   9.298  71.582  1.00  0.00    -0.398 C  
HETATM    3  N   UNL     1     -12.391   8.590  72.380  1.00  0.00    -0.383 NA 
HETATM    4  C   UNL     1     -13.684   9.221  72.257  1.00  0.00    -0.462 C  
HETATM    5  N   UNL     1     -11.925  10.485  71.196  1.00  0.00    -0.353 NA 
HETATM    6  C   UNL     1     -13.266  10.631  71.833  1.00  0.00    -0.423 C  
ENDBRANCH   1   2
BRANCH   1   7
HETATM    7  C   UNL     1     -10.176   7.790  70.028  1.00  0.00    -0.210 A  
HETATM    8  C   UNL     1     -10.403   8.298  68.735  1.00  0.00    -0.223 A  
HETATM    9  C   UNL     1     -10.343   6.073  67.819  1.00  0.00    -0.254 A  
HETATM   10  C   UNL     1     -10.077   5.536  69.085  1.00  0.00    -0.286 A  
HETATM   11  C   UNL     1     -10.491   7.445  67.641  1.00  0.00    -0.310 A  
HETATM   12  C   UNL     1      -9.907   4.149  69.239  1.00  0.00    -0.138 A  
HETATM   13  C   UNL     1      -9.627   3.594  70.484  1.00  0.00    -0.256 A  
HETATM   14  C   UNL     1      -9.512   4.419  71.595  1.00  0.00    -0.214 A  
HETATM   15  C   UNL     1      -9.688   5.799  71.463  1.00  0.00    -0.193 A  
HETATM   16  C   UNL     1      -9.977   6.394  70.213  1.00  0.00    -0.199 A  
ENDBRANCH   1   7
TORSDOF 2
ENDMDL
MODEL      101
REMARK 921   NORMALIZED FREE ENERGY PREDICTED BY IDOCK:   -4.14 KCAL/MOL
REMARK 922        TOTAL FREE ENERGY PREDICTED BY IDOCK:   -4.91 KCAL/MOL
REMARK 923 INTER-LIGAND FREE ENERGY PREDICTED BY IDOCK:   -4.59 KCAL/MOL
REMARK 924 INTRA-LIGAND FREE ENERGY PREDICTED BY IDOCK:   -0.32 KCAL/MOL
REMARK 927      BINDING AFFINITY PREDICTED BY RF-SCORE:    0.00 PKD
ROOT
HETATM    1  C   UNL     1      -9.120   8.429  69.305  1.00  0.00    -0.150 C  
ENDROOT
BRANCH   1   2
HETATM    2  C   UNL     1      -9.468   7.461  68.200  1.00  0.00    -0.138 C  
HETATM    3  N   UNL     1     -10.679   7.471  67.545  1.00  0.00    -0.249 NA 
HETATM    4  C   UNL     1     -10.781   6.219  66.831  1.00  0.00    -0.339 C  
HETATM    5  N   UNL     1      -8.597   6.566  67.797  1.00  0.00    -0.117 NA 
HETATM    6  C   UNL     1      -9.300   5.860  66.686  1.00  0.00    -0.145 C  
ENDBRANCH   1   2
BRANCH   1   7
HETATM    7  C   UNL     1      -9.996   8.327  70.539  1.00  0.00    -0.198 A  
HETATM    8  C   UNL     1      -9.789   7.231  71.398  1.00  0.00    -0.191 A  
HETATM    9  C   UNL     1     -11.615   7.941  72.795  1.00  0.00    -0.387 A  
HETATM   10  C   UNL     1     -11.826   9.065  71.985  1.00  0.00    -0.426 A  
HETATM   11  C   UNL     1     -10.595   7.037  72.513  1.00  0.00    -0.255 A  
HETATM   12  C   UNL     1     -12.846   9.978  72.302  1.00  0.00    -0.306 A  
HETATM   13  C   UNL     1     -13.064  11.110  71.521  1.00  0.00    -0.489 A  
HETATM   14  C   UNL     1     -12.264  11.344  70.411  1.00  0.00    -0.450 A  
HETATM   15  C   UNL     1     -11.252  10.441  70.075  1.00  0.00    -0.385 A  
HETATM   16  C   UNL     1     -11.006   9.281  70.845  1.00  0.00    -0.368 A  
ENDBRANCH   1   7
TORSDOF 2
ENDMDL
MODEL      102
REMARK 921   NORMALIZED FREE ENERGY PREDICTED BY IDOCK:   -4.13 KCAL/MOL
REMARK 922        TOTAL FREE ENERGY PREDICTED BY IDOCK:   -4.90 KCAL/MOL
REMARK 923 INTER-LIGAND FREE ENERGY PREDICTED BY IDOCK:   -4.78 KCAL/MOL
REMARK 924 INTRA-LIGAND FREE ENERGY PREDICTED BY IDOCK:   -0.12 KCAL/MOL
REMARK 927      BINDING AFFINITY PREDICTED BY RF-SCORE:    0.00 PKD
ROOT
HETATM    1  C   UNL     1      -9.741   8.818  67.343  1.00  0.00    -0.225 C  
ENDROOT
BRANCH   1   2
HETATM    2  C   UNL     1      -9.745   8.882  68.851  1.00  0.00    -0.171 C  
HETATM    3  N   UNL     1      -8.833   9.615  69.576  1.00  0.00    -0.174 NA 
HETATM    4  C   UNL     1      -8.919   9.162  70.944  1.00  0.00    -0.237 C  
HETATM    5  N   UNL     1     -10.656   8.241  69.545  1.00  0.00    -0.227 NA 
HETATM    6  C   UNL     1     -10.341   8.595  70.960  1.00  0.00    -0.217 C  
ENDBRANCH   1   2
BRANCH   1   7
HETATM    7  C   UNL     1     -10.267  10.062  66.653  1.00  0.00    -0.288 A  
HETATM    8  C   UNL     1     -11.086  10.927  67.402  1.00  0.00    -0.373 A  
HETATM    9  C   UNL     1     -11.407  12.339  65.480  1.00  0.00    -0.394 A  
HETATM   10  C   UNL     1     -10.564  11.523  64.714  1.00  0.00    -0.362 A  
HETATM   11  C   UNL     1     -11.656  12.053  66.819  1.00  0.00    -0.391 A  
HETATM   12  C   UNL     1     -10.307  11.844  63.370  1.00  0.00    -0.481 A  
HETATM   13  C   UNL     1      -9.461  11.057  62.593  1.00  0.00    -0.322 A  
HETATM   14  C   UNL     1      -8.861   9.936  63.150  1.00  0.00    -0.254 A  
HETATM   15  C   UNL     1      -9.113   9.596  64.481  1.00  0.00    -0.287 A  
HETATM   16  C   UNL     1      -9.969  10.373  65.297  1.00  0.00    -0.376 A  
ENDBRANCH   1   7
TORSDOF 2
ENDMDL
MODEL      103
REMARK 921   NORMALIZED FREE ENERGY PREDICTED BY IDOCK:   -4.12 KCAL/MOL
REMARK 922        TOTAL FREE ENERGY PREDICTED BY IDOCK:   -4.89 KCAL/MOL
REMARK 923 INTER-LIGAND FREE ENERGY PREDICTED BY IDOCK:   -4.63 KCAL/MOL
REMARK 924 INTRA-LIGAND FREE ENERGY PREDICTED BY IDOCK:   -0.26 KCAL/MOL
REMARK 927      BINDING AFFINITY PREDICTED BY RF-SCORE:    0.00 PKD
ROOT
HETATM    1  C   UNL     1      -9.876   7.495  69.308  1.00  0.00    -0.170 C  
ENDROOT
BRANCH   1   2
HETATM    2  C   UNL     1      -9.867   6.610  68.085  1.00  0.00    -0.132 C  
HETATM    3  N   UNL     1      -8.716   6.262  67.416  1.00  0.00    -0.106 NA 
HETATM    4  C   UNL     1      -9.118   5.727  66.136  1.00  0.00    -0.153 C  
HETATM    5  N   UNL     1     -10.985   6.109  67.615  1.00  0.00    -0.331 NA 
HETATM    6  C   UNL     1     -10.544   5.275  66.459  1.00  0.00    -0.285 C  
ENDBRANCH   1   2
BRANCH   1   7
HETATM    7  C   UNL     1     -10.509   8.858  69.102  1.00  0.00    -0.236 A  
HETATM    8  C   UNL     1     -10.182   9.558  67.926  1.00  0.00    -0.251 A  
HETATM    9  C   UNL     1     -11.510  11.435  68.638  1.00  0.00    -0.359 A  
HETATM   10  C   UNL     1     -11.889  10.753  69.801  1.00  0.00    -0.409 A  
HETATM   11  C   UNL     1     -10.674  10.838  67.699  1.00  0.00    -0.305 A  
HETATM   12  C   UNL     1     -12.754  11.365  70.724  1.00  0.00    -0.343 A  
HETATM   13  C   UNL     1     -13.157  10.701  71.880  1.00  0.00    -0.563 A  
HETATM   14  C   UNL     1     -12.700   9.414  72.128  1.00  0.00    -0.460 A  
HETATM   15  C   UNL     1     -11.831   8.794  71.226  1.00  0.00    -0.358 A  
HETATM   16  C   UNL     1     -11.401   9.441  70.045  1.00  0.00    -0.172 A  
ENDBRANCH   1   7
TORSDOF 2
ENDMDL
MODEL      104
REMARK 921   NORMALIZED FREE ENERGY PREDICTED BY IDOCK:   -4.10 KCAL/MOL
REMARK 922        TOTAL FREE ENERGY PREDICTED BY IDOCK:   -4.87 KCAL/MOL
REMARK 923 INTER-LIGAND FREE ENERGY PREDICTED BY IDOCK:   -4.60 KCAL/MOL
REMARK 924 INTRA-LIGAND FREE ENERGY PREDICTED BY IDOCK:   -0.27 KCAL/MOL
REMARK 927      BINDING AFFINITY PREDICTED BY RF-SCORE:    0.00 PKD
ROOT
HETATM    1  C   UNL     1     -10.839  15.325  65.714  1.00  0.00    -0.363 C  
ENDROOT
BRANCH   1   2
HETATM    2  C   UNL     1     -11.326  14.017  65.138  1.00  0.00    -0.328 C  
HETATM    3  N   UNL     1     -10.477  13.037  64.674  1.00  0.00    -0.365 NA 
HETATM    4  C   UNL     1     -11.278  12.122  63.894  1.00  0.00    -0.415 C  
HETATM    5  N   UNL     1     -12.609  13.750  65.077  1.00  0.00    -0.631 NA 
HETATM    6  C   UNL     1     -12.660  12.374  64.501  1.00  0.00    -0.391 C  
ENDBRANCH   1   2
BRANCH   1   7
HETATM    7  C   UNL     1     -10.576  15.303  67.207  1.00  0.00    -0.290 A  
HETATM    8  C   UNL     1     -11.688  15.379  68.066  1.00  0.00    -0.235 A  
HETATM    9  C   UNL     1     -10.241  15.389  69.990  1.00  0.00    -0.265 A  
HETATM   10  C   UNL     1      -9.113  15.274  69.167  1.00  0.00    -0.236 A  
HETATM   11  C   UNL     1     -11.522  15.427  69.446  1.00  0.00    -0.335 A  
HETATM   12  C   UNL     1      -7.830  15.214  69.739  1.00  0.00    -0.042 A  
HETATM   13  C   UNL     1      -6.696  15.084  68.943  1.00  0.00    -0.099 A  
HETATM   14  C   UNL     1      -6.827  15.013  67.563  1.00  0.00    -0.197 A  
HETATM   15  C   UNL     1      -8.094  15.082  66.977  1.00  0.00    -0.225 A  
HETATM   16  C   UNL     1      -9.266  15.216  67.756  1.00  0.00    -0.180 A  
ENDBRANCH   1   7
TORSDOF 2
ENDMDL
MODEL      105
REMARK 921   NORMALIZED FREE ENERGY PREDICTED BY IDOCK:   -4.06 KCAL/MOL
REMARK 922        TOTAL FREE ENERGY PREDICTED BY IDOCK:   -4.83 KCAL/MOL
REMARK 923 INTER-LIGAND FREE ENERGY PREDICTED BY IDOCK:   -4.68 KCAL/MOL
REMARK 924 INTRA-LIGAND FREE ENERGY PREDICTED BY IDOCK:   -0.15 KCAL/MOL
REMARK 927      BINDING AFFINITY PREDICTED BY RF-SCORE:    0.00 PKD
ROOT
HETATM    1  C   UNL     1      -9.997   9.161  70.819  1.00  0.00    -0.334 C  
ENDROOT
BRANCH   1   2
HETATM    2  C   UNL     1     -11.354   9.734  71.149  1.00  0.00    -0.389 C  
HETATM    3  N   UNL     1     -11.832  10.902  70.598  1.00  0.00    -0.347 NA 
HETATM    4  C   UNL     1     -12.966  11.309  71.394  1.00  0.00    -0.379 C  
HETATM    5  N   UNL     1     -12.158   9.113  71.978  1.00  0.00    -0.372 NA 
HETATM    6  C   UNL     1     -13.383   9.964  71.993  1.00  0.00    -0.432 C  
ENDBRANCH   1   2
BRANCH   1   7
HETATM    7  C   UNL     1      -9.976   7.661  70.600  1.00  0.00    -0.183 A  
HETATM    8  C   UNL     1      -9.732   6.841  71.717  1.00  0.00    -0.164 A  
HETATM    9  C   UNL     1      -9.795   4.876  70.328  1.00  0.00    -0.306 A  
HETATM   10  C   UNL     1     -10.078   5.657  69.200  1.00  0.00    -0.274 A  
HETATM   11  C   UNL     1      -9.638   5.461  71.582  1.00  0.00    -0.190 A  
HETATM   12  C   UNL     1     -10.258   5.044  67.949  1.00  0.00    -0.147 A  
HETATM   13  C   UNL     1     -10.555   5.797  66.816  1.00  0.00    -0.373 A  
HETATM   14  C   UNL     1     -10.677   7.176  66.920  1.00  0.00    -0.363 A  
HETATM   15  C   UNL     1     -10.491   7.804  68.155  1.00  0.00    -0.230 A  
HETATM   16  C   UNL     1     -10.186   7.068  69.323  1.00  0.00    -0.193 A  
ENDBRANCH   1   7
TORSDOF 2
ENDMDL
MODEL      106
REMARK 921   NORMALIZED FREE ENERGY PREDICTED BY IDOCK:   -4.06 KCAL/MOL
REMARK 922        TOTAL FREE ENERGY PREDICTED BY IDOCK:   -4.82 KCAL/MOL
REMARK 923 INTER-LIGAND FREE ENERGY PREDICTED BY IDOCK:   -4.51 KCAL/MOL
REMARK 924 INTRA-LIGAND FREE ENERGY PREDICTED BY IDOCK:   -0.31 KCAL/MOL
REMARK 927      BINDING AFFINITY PREDICTED BY RF-SCORE:    0.00 PKD
ROOT
HETATM    1  C   UNL     1      -9.676   9.969  69.931  1.00  0.00    -0.245 C  
ENDROOT
BRANCH   1   2
HETATM    2  C   UNL     1     -10.945   9.797  70.731  1.00  0.00    -0.336 C  
HETATM    3  N   UNL     1     -11.268   8.630  71.386  1.00  0.00    -0.259 NA 
HETATM    4  C   UNL     1     -12.669   8.713  71.726  1.00  0.00    -0.359 C  
HETATM    5  N   UNL     1     -11.798  10.786  70.852  1.00  0.00    -0.322 NA 
HETATM    6  C   UNL     1     -12.864  10.231  71.737  1.00  0.00    -0.460 C  
ENDBRANCH   1   2
BRANCH   1   7
HETATM    7  C   UNL     1      -9.871   9.991  68.426  1.00  0.00    -0.169 A  
HETATM    8  C   UNL     1      -9.965   8.754  67.763  1.00  0.00    -0.243 A  
HETATM    9  C   UNL     1     -10.117   9.871  65.636  1.00  0.00    -0.307 A  
HETATM   10  C   UNL     1     -10.066  11.121  66.266  1.00  0.00    -0.277 A  
HETATM   11  C   UNL     1     -10.081   8.694  66.379  1.00  0.00    -0.294 A  
HETATM   12  C   UNL     1     -10.127  12.297  65.498  1.00  0.00    -0.279 A  
HETATM   13  C   UNL     1     -10.094  13.550  66.103  1.00  0.00    -0.307 A  
HETATM   14  C   UNL     1      -9.998  13.646  67.484  1.00  0.00    -0.230 A  
HETATM   15  C   UNL     1      -9.925  12.488  68.262  1.00  0.00    -0.229 A  
HETATM   16  C   UNL     1      -9.954  11.200  67.680  1.00  0.00    -0.195 A  
ENDBRANCH   1   7
TORSDOF 2
ENDMDL
MODEL      107
REMARK 921   NORMALIZED FREE ENERGY PREDICTED BY IDOCK:   -4.06 KCAL/MOL
REMARK 922        TOTAL FREE ENERGY PREDICTED BY IDOCK:   -4.82 KCAL/MOL
REMARK 923 INTER-LIGAND FREE ENERGY PREDICTED BY IDOCK:   -4.53 KCAL/MOL
REMARK 924 INTRA-LIGAND FREE ENERGY PREDICTED BY IDOCK:   -0.29 KCAL/MOL
REMARK 927      BINDING AFFINITY PREDICTED BY RF-SCORE:    0.00 PKD
ROOT
HETATM    1  C   UNL     1     -11.004  10.653  68.003  1.00  0.00    -0.336 C  
ENDROOT
BRANCH   1   2
HETATM    2  C   UNL     1     -10.396   9.355  67.528  1.00  0.00    -0.255 C  
HETATM    3  N   UNL     1     -10.326   8.226  68.313  1.00  0.00    -0.207 NA 
HETATM    4  C   UNL     1      -9.390   7.329  67.676  1.00  0.00    -0.128 C  
HETATM    5  N   UNL     1      -9.918   9.246  66.311  1.00  0.00    -0.287 NA 
HETATM    6  C   UNL     1      -9.465   7.827  66.231  1.00  0.00    -0.133 C  
ENDBRANCH   1   2
BRANCH   1   7
HETATM    7  C   UNL     1     -10.322  11.903  67.480  1.00  0.00    -0.219 A  
HETATM    8  C   UNL     1      -9.115  12.290  68.089  1.00  0.00    -0.196 A  
HETATM    9  C   UNL     1      -9.007  14.253  66.700  1.00  0.00    -0.212 A  
HETATM   10  C   UNL     1     -10.187  13.878  66.044  1.00  0.00    -0.317 A  
HETATM   11  C   UNL     1      -8.465  13.458  67.706  1.00  0.00    -0.181 A  
HETATM   12  C   UNL     1     -10.704  14.683  65.014  1.00  0.00    -0.448 A  
HETATM   13  C   UNL     1     -11.866  14.323  64.337  1.00  0.00    -0.444 A  
HETATM   14  C   UNL     1     -12.529  13.153  64.681  1.00  0.00    -0.433 A  
HETATM   15  C   UNL     1     -12.035  12.347  65.709  1.00  0.00    -0.437 A  
HETATM   16  C   UNL     1     -10.859  12.684  66.418  1.00  0.00    -0.295 A  
ENDBRANCH   1   7
TORSDOF 2
ENDMDL
MODEL      108
REMARK 921   NORMALIZED FREE ENERGY PREDICTED BY IDOCK:   -4.05 KCAL/MOL
REMARK 922        TOTAL FREE ENERGY PREDICTED BY IDOCK:   -4.82 KCAL/MOL
REMARK 923 INTER-LIGAND FREE ENERGY PREDICTED BY IDOCK:   -4.54 KCAL/MOL
REMARK 924 INTRA-LIGAND FREE ENERGY PREDICTED BY IDOCK:   -0.28 KCAL/MOL
REMARK 927      BINDING AFFINITY PREDICTED BY RF-SCORE:    0.00 PKD
ROOT
HETATM    1  C   UNL     1      -8.328  11.987  67.662  1.00  0.00    -0.160 C  
ENDROOT
BRANCH   1   2
HETATM    2  C   UNL     1      -7.238  12.947  68.073  1.00  0.00    -0.115 C  
HETATM    3  N   UNL     1      -6.650  12.929  69.318  1.00  0.00    -0.103 NA 
HETATM    4  C   UNL     1      -5.935  14.175  69.464  1.00  0.00    -0.107 C  
HETATM    5  N   UNL     1      -6.782  13.843  67.230  1.00  0.00    -0.188 NA 
HETATM    6  C   UNL     1      -5.707  14.539  67.995  1.00  0.00    -0.134 C  
ENDBRANCH   1   2
BRANCH   1   7
HETATM    7  C   UNL     1      -9.662  12.638  67.349  1.00  0.00    -0.199 A  
HETATM    8  C   UNL     1     -10.187  13.537  68.296  1.00  0.00    -0.250 A  
HETATM    9  C   UNL     1     -12.171  13.829  66.964  1.00  0.00    -0.381 A  
HETATM   10  C   UNL     1     -11.663  12.970  65.981  1.00  0.00    -0.442 A  
HETATM   11  C   UNL     1     -11.434  14.123  68.107  1.00  0.00    -0.340 A  
HETATM   12  C   UNL     1     -12.413  12.705  64.823  1.00  0.00    -0.555 A  
HETATM   13  C   UNL     1     -11.923  11.867  63.826  1.00  0.00    -0.547 A  
HETATM   14  C   UNL     1     -10.673  11.280  63.973  1.00  0.00    -0.444 A  
HETATM   15  C   UNL     1      -9.918  11.524  65.123  1.00  0.00    -0.304 A  
HETATM   16  C   UNL     1     -10.388  12.368  66.155  1.00  0.00    -0.271 A  
ENDBRANCH   1   7
TORSDOF 2
ENDMDL
MODEL      109
REMARK 921   NORMALIZED FREE ENERGY PREDICTED BY IDOCK:   -4.05 KCAL/MOL
REMARK 922        TOTAL FREE ENERGY PREDICTED BY IDOCK:   -4.82 KCAL/MOL
REMARK 923 INTER-LIGAND FREE ENERGY PREDICTED BY IDOCK:   -4.62 KCAL/MOL
REMARK 924 INTRA-LIGAND FREE ENERGY PREDICTED BY IDOCK:   -0.20 KCAL/MOL
REMARK 927      BINDING AFFINITY PREDICTED BY RF-SCORE:    0.00 PKD
ROOT
HETATM    1  C   UNL     1     -11.695  15.487  68.473  1.00  0.00    -0.351 C  
ENDROOT
BRANCH   1   2
HETATM    2  C   UNL     1     -12.007  15.565  69.948  1.00  0.00    -0.362 C  
HETATM    3  N   UNL     1     -13.060  14.897  70.532  1.00  0.00    -0.304 NA 
HETATM    4  C   UNL     1     -13.254  15.478  71.840  1.00  0.00    -0.464 C  
HETATM    5  N   UNL     1     -11.252  16.274  70.754  1.00  0.00    -0.338 NA 
HETATM    6  C   UNL     1     -11.859  16.052  72.099  1.00  0.00    -0.528 C  
ENDBRANCH   1   2
BRANCH   1   7
HETATM    7  C   UNL     1     -10.571  16.394  68.012  1.00  0.00    -0.314 A  
HETATM    8  C   UNL     1     -10.899  17.721  67.677  1.00  0.00    -0.234 A  
HETATM    9  C   UNL     1      -8.621  18.155  67.034  1.00  0.00    -0.260 A  
HETATM   10  C   UNL     1      -8.249  16.854  67.394  1.00  0.00    -0.199 A  
HETATM   11  C   UNL     1      -9.933  18.593  67.187  1.00  0.00    -0.360 A  
HETATM   12  C   UNL     1      -6.913  16.440  67.254  1.00  0.00    -0.218 A  
HETATM   13  C   UNL     1      -6.517  15.157  67.620  1.00  0.00    -0.180 A  
HETATM   14  C   UNL     1      -7.452  14.267  68.131  1.00  0.00    -0.131 A  
HETATM   15  C   UNL     1      -8.787  14.658  68.268  1.00  0.00    -0.176 A  
HETATM   16  C   UNL     1      -9.223  15.953  67.903  1.00  0.00    -0.198 A  
ENDBRANCH   1   7
TORSDOF 2
ENDMDL
MODEL      110
REMARK 921   NORMALIZED FREE ENERGY PREDICTED BY IDOCK:   -4.01 KCAL/MOL
REMARK 922        TOTAL FREE ENERGY PREDICTED BY IDOCK:   -4.77 KCAL/MOL
REMARK 923 INTER-LIGAND FREE ENERGY PREDICTED BY IDOCK:   -4.47 KCAL/MOL
REMARK 924 INTRA-LIGAND FREE ENERGY PREDICTED BY IDOCK:   -0.30 KCAL/MOL
REMARK 927      BINDING AFFINITY PREDICTED BY RF-SCORE:    0.00 PKD
ROOT
HETATM    1  C   UNL     1     -11.034  13.086  66.966  1.00  0.00    -0.289 C  
ENDROOT
BRANCH   1   2
HETATM    2  C   UNL     1     -10.682  11.751  67.575  1.00  0.00    -0.221 C  
HETATM    3  N   UNL     1      -9.418  11.436  68.021  1.00  0.00    -0.174 NA 
HETATM    4  C   UNL     1      -9.378  10.004  68.197  1.00  0.00    -0.131 C  
HETATM    5  N   UNL     1     -11.597  10.823  67.726  1.00  0.00    -0.528 NA 
HETATM    6  C   UNL     1     -10.866   9.705  68.391  1.00  0.00    -0.167 C  
ENDBRANCH   1   2
BRANCH   1   7
HETATM    7  C   UNL     1     -10.940  14.264  67.917  1.00  0.00    -0.278 A  
HETATM    8  C   UNL     1     -11.794  14.268  69.035  1.00  0.00    -0.370 A  
HETATM    9  C   UNL     1     -10.962  16.427  69.701  1.00  0.00    -0.329 A  
HETATM   10  C   UNL     1     -10.070  16.439  68.621  1.00  0.00    -0.244 A  
HETATM   11  C   UNL     1     -11.809  15.343  69.917  1.00  0.00    -0.373 A  
HETATM   12  C   UNL     1      -9.207  17.532  68.436  1.00  0.00    -0.279 A  
HETATM   13  C   UNL     1      -8.301  17.560  67.378  1.00  0.00    -0.220 A  
HETATM   14  C   UNL     1      -8.246  16.494  66.491  1.00  0.00    -0.335 A  
HETATM   15  C   UNL     1      -9.105  15.404  66.654  1.00  0.00    -0.310 A  
HETATM   16  C   UNL     1     -10.037  15.345  67.715  1.00  0.00    -0.227 A  
ENDBRANCH   1   7
TORSDOF 2
ENDMDL
MODEL      111
REMARK 921   NORMALIZED FREE ENERGY PREDICTED BY IDOCK:   -3.99 KCAL/MOL
REMARK 922        TOTAL FREE ENERGY PREDICTED BY IDOCK:   -4.74 KCAL/MOL
REMARK 923 INTER-LIGAND FREE ENERGY PREDICTED BY IDOCK:   -4.43 KCAL/MOL
REMARK 924 INTRA-LIGAND FREE ENERGY PREDICTED BY IDOCK:   -0.32 KCAL/MOL
REMARK 927      BINDING AFFINITY PREDICTED BY RF-SCORE:    0.00 PKD
ROOT
HETATM    1  C   UNL     1     -10.438  17.177  68.635  1.00  0.00    -0.366 C  
ENDROOT
BRANCH   1   2
HETATM    2  C   UNL     1     -10.097  18.234  67.612  1.00  0.00    -0.356 C  
HETATM    3  N   UNL     1      -9.010  18.147  66.773  1.00  0.00    -0.274 NA 
HETATM    4  C   UNL     1      -8.807  19.460  66.208  1.00  0.00    -0.351 C  
HETATM    5  N   UNL     1     -10.858  19.294  67.467  1.00  0.00    -0.461 NA 
HETATM    6  C   UNL     1     -10.214  20.045  66.350  1.00  0.00    -0.478 C  
ENDBRANCH   1   2
BRANCH   1   7
HETATM    7  C   UNL     1     -10.457  15.758  68.100  1.00  0.00    -0.263 A  
HETATM    8  C   UNL     1     -11.612  15.333  67.417  1.00  0.00    -0.196 A  
HETATM    9  C   UNL     1     -10.683  13.128  67.156  1.00  0.00    -0.263 A  
HETATM   10  C   UNL     1      -9.503  13.526  67.796  1.00  0.00    -0.216 A  
HETATM   11  C   UNL     1     -11.726  14.028  66.954  1.00  0.00    -0.435 A  
HETATM   12  C   UNL     1      -8.453  12.608  67.968  1.00  0.00    -0.177 A  
HETATM   13  C   UNL     1      -7.264  12.985  68.588  1.00  0.00    -0.101 A  
HETATM   14  C   UNL     1      -7.109  14.287  69.045  1.00  0.00    -0.116 A  
HETATM   15  C   UNL     1      -8.147  15.210  68.891  1.00  0.00    -0.178 A  
HETATM   16  C   UNL     1      -9.367  14.859  68.269  1.00  0.00    -0.195 A  
ENDBRANCH   1   7
TORSDOF 2
ENDMDL
MODEL      112
REMARK 921   NORMALIZED FREE ENERGY PREDICTED BY IDOCK:   -3.98 KCAL/MOL
REMARK 922        TOTAL FREE ENERGY PREDICTED BY IDOCK:   -4.73 KCAL/MOL
REMARK 923 INTER-LIGAND FREE ENERGY PREDICTED BY IDOCK:   -4.96 KCAL/MOL
REMARK 924 INTRA-LIGAND FREE ENERGY PREDICTED BY IDOCK:    0.23 KCAL/MOL
REMARK 927      BINDING AFFINITY PREDICTED BY RF-SCORE:    0.00 PKD
ROOT
HETATM    1  C   UNL     1     -10.337   9.735  67.918  1.00  0.00    -0.258 C  
ENDROOT
BRANCH   1   2
HETATM    2  C   UNL     1     -10.407   8.291  68.350  1.00  0.00    -0.199 C  
HETATM    3  N   UNL     1     -10.067   7.866  69.615  1.00  0.00    -0.193 NA 
HETATM    4  C   UNL     1      -9.917   6.431  69.551  1.00  0.00    -0.162 C  
HETATM    5  N   UNL     1     -10.828   7.365  67.521  1.00  0.00    -0.222 NA 
HETATM    6  C   UNL     1     -10.790   6.114  68.334  1.00  0.00    -0.305 C  
ENDBRANCH   1   2
BRANCH   1   7
HETATM    7  C   UNL     1     -10.055   9.945  66.442  1.00  0.00    -0.308 A  
HETATM    8  C   UNL     1      -9.149   9.065  65.821  1.00  0.00    -0.272 A  
HETATM    9  C   UNL     1      -9.346  10.277  63.750  1.00  0.00    -0.339 A  
HETATM   10  C   UNL     1     -10.281  11.148  64.325  1.00  0.00    -0.399 A  
HETATM   11  C   UNL     1      -8.794   9.233  64.487  1.00  0.00    -0.203 A  
HETATM   12  C   UNL     1     -10.845  12.180  63.556  1.00  0.00    -0.518 A  
HETATM   13  C   UNL     1     -11.787  13.049  64.101  1.00  0.00    -0.478 A  
HETATM   14  C   UNL     1     -12.179  12.897  65.424  1.00  0.00    -0.528 A  
HETATM   15  C   UNL     1     -11.622  11.882  66.206  1.00  0.00    -0.317 A  
HETATM   16  C   UNL     1     -10.661  10.985  65.684  1.00  0.00    -0.263 A  
ENDBRANCH   1   7
TORSDOF 2
ENDMDL
MODEL      113
REMARK 921   NORMALIZED FREE ENERGY PREDICTED BY IDOCK:   -3.98 KCAL/MOL
REMARK 922        TOTAL FREE ENERGY PREDICTED BY IDOCK:   -4.73 KCAL/MOL
REMARK 923 INTER-LIGAND FREE ENERGY PREDICTED BY IDOCK:   -4.45 KCAL/MOL
REMARK 924 INTRA-LIGAND FREE ENERGY PREDICTED BY IDOCK:   -0.28 KCAL/MOL
REMARK 927      BINDING AFFINITY PREDICTED BY RF-SCORE:    0.00 PKD
ROOT
HETATM    1  C   UNL     1     -12.075   6.734  72.089  1.00  0.00    -0.289 C  
ENDROOT
BRANCH   1   2
HETATM    2  C   UNL     1     -10.990   6.112  72.934  1.00  0.00    -0.262 C  
HETATM    3  N   UNL     1     -10.487   6.705  74.070  1.00  0.00    -0.340 NA 
HETATM    4  C   UNL     1      -9.260   6.019  74.396  1.00  0.00    -0.145 C  
HETATM    5  N   UNL     1     -10.487   4.941  72.621  1.00  0.00    -0.200 NA 
HETATM    6  C   UNL     1      -9.503   4.672  73.710  1.00  0.00    -0.123 C  
ENDBRANCH   1   2
BRANCH   1   7
HETATM    7  C   UNL     1     -11.598   7.813  71.136  1.00  0.00    -0.301 A  
HETATM    8  C   UNL     1     -11.627   9.144  71.591  1.00  0.00    -0.449 A  
HETATM    9  C   UNL     1     -10.857   9.926  69.448  1.00  0.00    -0.265 A  
HETATM   10  C   UNL     1     -10.779   8.610  68.973  1.00  0.00    -0.122 A  
HETATM   11  C   UNL     1     -11.264  10.192  70.752  1.00  0.00    -0.414 A  
HETATM   12  C   UNL     1     -10.341   8.362  67.661  1.00  0.00    -0.317 A  
HETATM   13  C   UNL     1     -10.240   7.062  67.172  1.00  0.00    -0.318 A  
HETATM   14  C   UNL     1     -10.576   5.992  67.989  1.00  0.00    -0.330 A  
HETATM   15  C   UNL     1     -11.022   6.220  69.293  1.00  0.00    -0.435 A  
HETATM   16  C   UNL     1     -11.138   7.527  69.820  1.00  0.00    -0.143 A  
ENDBRANCH   1   7
TORSDOF 2
ENDMDL
MODEL      114
REMARK 921   NORMALIZED FREE ENERGY PREDICTED BY IDOCK:   -3.97 KCAL/MOL
REMARK 922        TOTAL FREE ENERGY PREDICTED BY IDOCK:   -4.72 KCAL/MOL
REMARK 923 INTER-LIGAND FREE ENERGY PREDICTED BY IDOCK:   -4.46 KCAL/MOL
REMARK 924 INTRA-LIGAND FREE ENERGY PREDICTED BY IDOCK:   -0.26 KCAL/MOL
REMARK 927      BINDING AFFINITY PREDICTED BY RF-SCORE:    0.00 PKD
ROOT
HETATM    1  C   UNL     1      -8.794  10.887  67.569  1.00  0.00    -0.133 C  
ENDROOT
BRANCH   1   2
HETATM    2  C   UNL     1      -9.702  10.412  68.678  1.00  0.00    -0.175 C  
HETATM    3  N   UNL     1     -11.037  10.742  68.752  1.00  0.00    -0.238 NA 
HETATM    4  C   UNL     1     -11.477  10.420  70.089  1.00  0.00    -0.319 C  
HETATM    5  N   UNL     1      -9.245   9.628  69.626  1.00  0.00    -0.196 NA 
HETATM    6  C   UNL     1     -10.443   9.359  70.474  1.00  0.00    -0.274 C  
ENDBRANCH   1   2
BRANCH   1   7
HETATM    7  C   UNL     1      -9.513  11.421  66.345  1.00  0.00    -0.224 A  
HETATM    8  C   UNL     1      -9.996  10.486  65.411  1.00  0.00    -0.353 A  
HETATM    9  C   UNL     1     -10.758  12.263  63.978  1.00  0.00    -0.438 A  
HETATM   10  C   UNL     1     -10.325  13.222  64.902  1.00  0.00    -0.368 A  
HETATM   11  C   UNL     1     -10.609  10.903  64.236  1.00  0.00    -0.336 A  
HETATM   12  C   UNL     1     -10.508  14.589  64.633  1.00  0.00    -0.240 A  
HETATM   13  C   UNL     1     -10.099  15.561  65.543  1.00  0.00    -0.406 A  
HETATM   14  C   UNL     1      -9.502  15.178  66.736  1.00  0.00    -0.260 A  
HETATM   15  C   UNL     1      -9.303  13.823  67.015  1.00  0.00    -0.250 A  
HETATM   16  C   UNL     1      -9.703  12.812  66.112  1.00  0.00    -0.246 A  
ENDBRANCH   1   7
TORSDOF 2
ENDMDL
MODEL      115
REMARK 921   NORMALIZED FREE ENERGY PREDICTED BY IDOCK:   -3.96 KCAL/MOL
REMARK 922        TOTAL FREE ENERGY PREDICTED BY IDOCK:   -4.71 KCAL/MOL
REMARK 923 INTER-LIGAND FREE ENERGY PREDICTED BY IDOCK:   -4.39 KCAL/MOL
REMARK 924 INTRA-LIGAND FREE ENERGY PREDICTED BY IDOCK:   -0.32 KCAL/MOL
REMARK 927      BINDING AFFINITY PREDICTED BY RF-SCORE:    0.00 PKD
ROOT
HETATM    1  C   UNL     1     -12.216   6.736  71.486  1.00  0.00    -0.413 C  
ENDROOT
BRANCH   1   2
HETATM    2  C   UNL     1     -11.353   6.337  72.659  1.00  0.00    -0.247 C  
HETATM    3  N   UNL     1     -10.626   7.240  73.401  1.00  0.00    -0.379 NA 
HETATM    4  C   UNL     1      -9.677   6.479  74.179  1.00  0.00    -0.270 C  
HETATM    5  N   UNL     1     -11.281   5.083  73.039  1.00  0.00    -0.305 NA 
HETATM    6  C   UNL     1     -10.384   5.123  74.232  1.00  0.00    -0.280 C  
ENDBRANCH   1   2
BRANCH   1   7
HETATM    7  C   UNL     1     -11.448   7.144  70.243  1.00  0.00    -0.287 A  
HETATM    8  C   UNL     1     -10.895   6.120  69.453  1.00  0.00    -0.420 A  
HETATM    9  C   UNL     1      -9.907   7.749  67.981  1.00  0.00    -0.192 A  
HETATM   10  C   UNL     1     -10.476   8.793  68.721  1.00  0.00    -0.214 A  
HETATM   11  C   UNL     1     -10.126   6.420  68.334  1.00  0.00    -0.173 A  
HETATM   12  C   UNL     1     -10.262  10.127  68.333  1.00  0.00    -0.192 A  
HETATM   13  C   UNL     1     -10.829  11.181  69.044  1.00  0.00    -0.276 A  
HETATM   14  C   UNL     1     -11.618  10.916  70.155  1.00  0.00    -0.425 A  
HETATM   15  C   UNL     1     -11.833   9.597  70.561  1.00  0.00    -0.284 A  
HETATM   16  C   UNL     1     -11.270   8.504  69.863  1.00  0.00    -0.035 A  
ENDBRANCH   1   7
TORSDOF 2
ENDMDL
MODEL      116
REMARK 921   NORMALIZED FREE ENERGY PREDICTED BY IDOCK:   -3.95 KCAL/MOL
REMARK 922        TOTAL FREE ENERGY PREDICTED BY IDOCK:   -4.70 KCAL/MOL
REMARK 923 INTER-LIGAND FREE ENERGY PREDICTED BY IDOCK:   -4.67 KCAL/MOL
REMARK 924 INTRA-LIGAND FREE ENERGY PREDICTED BY IDOCK:   -0.04 KCAL/MOL
REMARK 927      BINDING AFFINITY PREDICTED BY RF-SCORE:    0.00 PKD
ROOT
HETATM    1  C   UNL     1     -10.603  15.352  65.318  1.00  0.00    -0.450 C  
ENDROOT
BRANCH   1   2
HETATM    2  C   UNL     1     -11.444  14.185  64.861  1.00  0.00    -0.366 C  
HETATM    3  N   UNL     1     -10.971  13.195  64.029  1.00  0.00    -0.385 NA 
HETATM    4  C   UNL     1     -12.121  12.473  63.537  1.00  0.00    -0.562 C  
HETATM    5  N   UNL     1     -12.684  14.055  65.270  1.00  0.00    -0.674 NA 
HETATM    6  C   UNL     1     -13.135  12.777  64.643  1.00  0.00     0.038 C  
ENDBRANCH   1   2
BRANCH   1   7
HETATM    7  C   UNL     1      -9.688  15.056  66.491  1.00  0.00    -0.285 A  
HETATM    8  C   UNL     1      -9.570  13.716  66.904  1.00  0.00    -0.262 A  
HETATM    9  C   UNL     1      -8.126  14.369  68.715  1.00  0.00    -0.127 A  
HETATM   10  C   UNL     1      -8.188  15.709  68.309  1.00  0.00    -0.142 A  
HETATM   11  C   UNL     1      -8.799  13.376  68.010  1.00  0.00    -0.183 A  
HETATM   12  C   UNL     1      -7.480  16.692  69.021  1.00  0.00    -0.232 A  
HETATM   13  C   UNL     1      -7.515  18.027  68.628  1.00  0.00    -0.291 A  
HETATM   14  C   UNL     1      -8.259  18.398  67.516  1.00  0.00    -0.255 A  
HETATM   15  C   UNL     1      -8.977  17.435  66.803  1.00  0.00    -0.272 A  
HETATM   16  C   UNL     1      -8.965  16.072  67.177  1.00  0.00    -0.220 A  
ENDBRANCH   1   7
TORSDOF 2
ENDMDL
MODEL      117
REMARK 921   NORMALIZED FREE ENERGY PREDICTED BY IDOCK:   -3.95 KCAL/MOL
REMARK 922        TOTAL FREE ENERGY PREDICTED BY IDOCK:   -4.70 KCAL/MOL
REMARK 923 INTER-LIGAND FREE ENERGY PREDICTED BY IDOCK:   -4.38 KCAL/MOL
REMARK 924 INTRA-LIGAND FREE ENERGY PREDICTED BY IDOCK:   -0.31 KCAL/MOL
REMARK 927      BINDING AFFINITY PREDICTED BY RF-SCORE:    0.00 PKD
ROOT
HETATM    1  C   UNL     1     -10.499   9.909  68.017  1.00  0.00    -0.266 C  
ENDROOT
BRANCH   1   2
HETATM    2  C   UNL     1      -9.221  10.709  67.953  1.00  0.00    -0.148 C  
HETATM    3  N   UNL     1      -8.973  11.657  66.985  1.00  0.00    -0.176 NA 
HETATM    4  C   UNL     1      -7.558  11.942  67.028  1.00  0.00    -0.134 C  
HETATM    5  N   UNL     1      -8.282  10.542  68.854  1.00  0.00    -0.132 NA 
HETATM    6  C   UNL     1      -7.234  11.531  68.467  1.00  0.00    -0.096 C  
ENDBRANCH   1   2
BRANCH   1   7
HETATM    7  C   UNL     1     -11.282  10.064  69.307  1.00  0.00    -0.213 A  
HETATM    8  C   UNL     1     -11.857  11.320  69.575  1.00  0.00    -0.427 A  
HETATM    9  C   UNL     1     -12.658  10.534  71.705  1.00  0.00    -0.498 A  
HETATM   10  C   UNL     1     -12.132   9.260  71.455  1.00  0.00    -0.435 A  
HETATM   11  C   UNL     1     -12.535  11.554  70.766  1.00  0.00    -0.444 A  
HETATM   12  C   UNL     1     -12.289   8.237  72.406  1.00  0.00    -0.385 A  
HETATM   13  C   UNL     1     -11.789   6.958  72.174  1.00  0.00    -0.318 A  
HETATM   14  C   UNL     1     -11.124   6.685  70.987  1.00  0.00    -0.330 A  
HETATM   15  C   UNL     1     -10.950   7.692  70.034  1.00  0.00    -0.237 A  
HETATM   16  C   UNL     1     -11.443   9.001  70.240  1.00  0.00    -0.147 A  
ENDBRANCH   1   7
TORSDOF 2
ENDMDL
MODEL      118
REMARK 921   NORMALIZED FREE ENERGY PREDICTED BY IDOCK:   -3.91 KCAL/MOL
REMARK 922        TOTAL FREE ENERGY PREDICTED BY IDOCK:   -4.66 KCAL/MOL
REMARK 923 INTER-LIGAND FREE ENERGY PREDICTED BY IDOCK:   -4.57 KCAL/MOL
REMARK 924 INTRA-LIGAND FREE ENERGY PREDICTED BY IDOCK:   -0.09 KCAL/MOL
REMARK 927      BINDING AFFINITY PREDICTED BY RF-SCORE:    0.00 PKD
ROOT
HETATM    1  C   UNL     1      -8.938  10.552  66.336  1.00  0.00    -0.174 C  
ENDROOT
BRANCH   1   2
HETATM    2  C   UNL     1      -9.317   9.668  67.499  1.00  0.00    -0.130 C  
HETATM    3  N   UNL     1     -10.592   9.187  67.695  1.00  0.00    -0.260 NA 
HETATM    4  C   UNL     1     -10.654   8.697  69.052  1.00  0.00    -0.160 C  
HETATM    5  N   UNL     1      -8.416   9.297  68.378  1.00  0.00    -0.120 NA 
HETATM    6  C   UNL     1      -9.173   8.413  69.313  1.00  0.00    -0.154 C  
ENDBRANCH   1   2
BRANCH   1   7
HETATM    7  C   UNL     1     -10.075  11.382  65.771  1.00  0.00    -0.289 A  
HETATM    8  C   UNL     1     -10.539  11.062  64.482  1.00  0.00    -0.383 A  
HETATM    9  C   UNL     1     -12.091  12.900  64.551  1.00  0.00    -0.473 A  
HETATM   10  C   UNL     1     -11.682  13.225  65.850  1.00  0.00    -0.403 A  
HETATM   11  C   UNL     1     -11.535  11.818  63.875  1.00  0.00    -0.481 A  
HETATM   12  C   UNL     1     -12.274  14.307  66.524  1.00  0.00    -0.419 A  
HETATM   13  C   UNL     1     -11.895  14.639  67.821  1.00  0.00    -0.359 A  
HETATM   14  C   UNL     1     -10.917  13.893  68.465  1.00  0.00    -0.277 A  
HETATM   15  C   UNL     1     -10.310  12.820  67.807  1.00  0.00    -0.222 A  
HETATM   16  C   UNL     1     -10.670  12.458  66.488  1.00  0.00    -0.265 A  
ENDBRANCH   1   7
TORSDOF 2
ENDMDL
MODEL      119
REMARK 921   NORMALIZED FREE ENERGY PREDICTED BY IDOCK:   -3.91 KCAL/MOL
REMARK 922        TOTAL FREE ENERGY PREDICTED BY IDOCK:   -4.65 KCAL/MOL
REMARK 923 INTER-LIGAND FREE ENERGY PREDICTED BY IDOCK:   -4.38 KCAL/MOL
REMARK 924 INTRA-LIGAND FREE ENERGY PREDICTED BY IDOCK:   -0.28 KCAL/MOL
REMARK 927      BINDING AFFINITY PREDICTED BY RF-SCORE:    0.00 PKD
ROOT
HETATM    1  C   UNL     1      -8.761  10.020  69.042  1.00  0.00    -0.158 C  
ENDROOT
BRANCH   1   2
HETATM    2  C   UNL     1      -8.772   9.088  67.855  1.00  0.00    -0.129 C  
HETATM    3  N   UNL     1      -9.920   8.501  67.370  1.00  0.00    -0.195 NA 
HETATM    4  C   UNL     1      -9.506   7.431  66.491  1.00  0.00    -0.172 C  
HETATM    5  N   UNL     1      -7.663   8.812  67.210  1.00  0.00    -0.096 NA 
HETATM    6  C   UNL     1      -8.107   7.915  66.103  1.00  0.00    -0.109 C  
ENDBRANCH   1   2
BRANCH   1   7
HETATM    7  C   UNL     1     -10.108  10.623  69.390  1.00  0.00    -0.199 A  
HETATM    8  C   UNL     1     -10.503  11.782  68.697  1.00  0.00    -0.242 A  
HETATM    9  C   UNL     1     -12.519  11.915  70.006  1.00  0.00    -0.091 A  
HETATM   10  C   UNL     1     -12.177  10.741  70.689  1.00  0.00    -0.474 A  
HETATM   11  C   UNL     1     -11.696  12.426  69.006  1.00  0.00    -0.372 A  
HETATM   12  C   UNL     1     -13.035  10.230  71.678  1.00  0.00    -0.570 A  
HETATM   13  C   UNL     1     -12.724   9.056  72.360  1.00  0.00    -0.433 A  
HETATM   14  C   UNL     1     -11.550   8.378  72.063  1.00  0.00    -0.418 A  
HETATM   15  C   UNL     1     -10.681   8.878  71.089  1.00  0.00    -0.333 A  
HETATM   16  C   UNL     1     -10.965  10.067  70.380  1.00  0.00    -0.384 A  
ENDBRANCH   1   7
TORSDOF 2
ENDMDL
MODEL      120
REMARK 921   NORMALIZED FREE ENERGY PREDICTED BY IDOCK:   -3.89 KCAL/MOL
REMARK 922        TOTAL FREE ENERGY PREDICTED BY IDOCK:   -4.64 KCAL/MOL
REMARK 923 INTER-LIGAND FREE ENERGY PREDICTED BY IDOCK:   -4.37 KCAL/MOL
REMARK 924 INTRA-LIGAND FREE ENERGY PREDICTED BY IDOCK:   -0.26 KCAL/MOL
REMARK 927      BINDING AFFINITY PREDICTED BY RF-SCORE:    0.00 PKD
ROOT
HETATM    1  C   UNL     1     -11.515   9.688  69.338  1.00  0.00     0.048 C  
ENDROOT
BRANCH   1   2
HETATM    2  C   UNL     1     -10.121   9.183  69.621  1.00  0.00    -0.198 C  
HETATM    3  N   UNL     1      -9.345   8.547  68.678  1.00  0.00    -0.142 NA 
HETATM    4  C   UNL     1      -8.260   7.910  69.387  1.00  0.00    -0.130 C  
HETATM    5  N   UNL     1      -9.574   9.356  70.801  1.00  0.00    -0.269 NA 
HETATM    6  C   UNL     1      -8.210   8.770  70.652  1.00  0.00    -0.144 C  
ENDBRANCH   1   2
BRANCH   1   7
HETATM    7  C   UNL     1     -11.583  11.112  68.818  1.00  0.00    -0.389 A  
HETATM    8  C   UNL     1     -11.127  11.350  67.508  1.00  0.00    -0.339 A  
HETATM    9  C   UNL     1     -11.538  13.708  67.761  1.00  0.00    -0.373 A  
HETATM   10  C   UNL     1     -12.035  13.504  69.055  1.00  0.00    -0.376 A  
HETATM   11  C   UNL     1     -11.100  12.638  66.986  1.00  0.00    -0.322 A  
HETATM   12  C   UNL     1     -12.495  14.595  69.811  1.00  0.00    -0.247 A  
HETATM   13  C   UNL     1     -13.008  14.415  71.093  1.00  0.00    -0.419 A  
HETATM   14  C   UNL     1     -13.068  13.140  71.637  1.00  0.00    -0.444 A  
HETATM   15  C   UNL     1     -12.606  12.044  70.903  1.00  0.00    -0.347 A  
HETATM   16  C   UNL     1     -12.077  12.193  69.600  1.00  0.00    -0.283 A  
ENDBRANCH   1   7
TORSDOF 2
ENDMDL
MODEL      121
REMARK 921   NORMALIZED FREE ENERGY PREDICTED BY IDOCK:   -3.87 KCAL/MOL
REMARK 922        TOTAL FREE ENERGY PREDICTED BY IDOCK:   -4.61 KCAL/MOL
REMARK 923 INTER-LIGAND FREE ENERGY PREDICTED BY IDOCK:   -4.31 KCAL/MOL
REMARK 924 INTRA-LIGAND FREE ENERGY PREDICTED BY IDOCK:   -0.30 KCAL/MOL
REMARK 927      BINDING AFFINITY PREDICTED BY RF-SCORE:    0.00 PKD
ROOT
HETATM    1  C   UNL     1     -10.426  10.283  67.948  1.00  0.00    -0.253 C  
ENDROOT
BRANCH   1   2
HETATM    2  C   UNL     1      -8.942  10.025  67.843  1.00  0.00    -0.131 C  
HETATM    3  N   UNL     1      -8.406   9.012  67.081  1.00  0.00    -0.110 NA 
HETATM    4  C   UNL     1      -7.032   8.853  67.498  1.00  0.00    -0.075 C  
HETATM    5  N   UNL     1      -8.085  10.792  68.475  1.00  0.00    -0.125 NA 
HETATM    6  C   UNL     1      -6.755  10.242  68.079  1.00  0.00    -0.066 C  
ENDBRANCH   1   2
BRANCH   1   7
HETATM    7  C   UNL     1     -11.022  10.018  69.318  1.00  0.00    -0.264 A  
HETATM    8  C   UNL     1     -10.860   8.730  69.861  1.00  0.00    -0.211 A  
HETATM    9  C   UNL     1     -12.166   9.345  71.787  1.00  0.00    -0.465 A  
HETATM   10  C   UNL     1     -12.315  10.648  71.296  1.00  0.00    -0.488 A  
HETATM   11  C   UNL     1     -11.432   8.395  71.084  1.00  0.00    -0.314 A  
HETATM   12  C   UNL     1     -13.040  11.599  72.034  1.00  0.00    -0.433 A  
HETATM   13  C   UNL     1     -13.189  12.904  71.574  1.00  0.00    -0.346 A  
HETATM   14  C   UNL     1     -12.614  13.278  70.367  1.00  0.00    -0.211 A  
HETATM   15  C   UNL     1     -11.898  12.343  69.615  1.00  0.00    -0.380 A  
HETATM   16  C   UNL     1     -11.731  11.009  70.052  1.00  0.00    -0.437 A  
ENDBRANCH   1   7
TORSDOF 2
ENDMDL
MODEL      122
REMARK 921   NORMALIZED FREE ENERGY PREDICTED BY IDOCK:   -3.86 KCAL/MOL
REMARK 922        TOTAL FREE ENERGY PREDICTED BY IDOCK:   -4.60 KCAL/MOL
REMARK 923 INTER-LIGAND FREE ENERGY PREDICTED BY IDOCK:   -4.31 KCAL/MOL
REMARK 924 INTRA-LIGAND FREE ENERGY PREDICTED BY IDOCK:   -0.29 KCAL/MOL
REMARK 927      BINDING AFFINITY PREDICTED BY RF-SCORE:    0.00 PKD
ROOT
HETATM    1  C   UNL     1      -9.431  11.779  65.852  1.00  0.00    -0.239 C  
ENDROOT
BRANCH   1   2
HETATM    2  C   UNL     1     -10.527  12.326  64.970  1.00  0.00    -0.290 C  
HETATM    3  N   UNL     1     -10.832  13.666  64.891  1.00  0.00    -0.353 NA 
HETATM    4  C   UNL     1     -12.122  13.768  64.250  1.00  0.00    -0.440 C  
HETATM    5  N   UNL     1     -11.234  11.525  64.208  1.00  0.00    -0.319 NA 
HETATM    6  C   UNL     1     -12.154  12.446  63.479  1.00  0.00    -0.558 C  
ENDBRANCH   1   2
BRANCH   1   7
HETATM    7  C   UNL     1      -9.758  10.461  66.528  1.00  0.00    -0.241 A  
HETATM    8  C   UNL     1     -10.579  10.500  67.670  1.00  0.00    -0.295 A  
HETATM    9  C   UNL     1     -10.353   8.120  67.951  1.00  0.00    -0.280 A  
HETATM   10  C   UNL     1      -9.564   8.038  66.797  1.00  0.00    -0.281 A  
HETATM   11  C   UNL     1     -10.871   9.339  68.378  1.00  0.00    -0.125 A  
HETATM   12  C   UNL     1      -9.072   6.792  66.369  1.00  0.00    -0.175 A  
HETATM   13  C   UNL     1      -8.299   6.684  65.217  1.00  0.00    -0.112 A  
HETATM   14  C   UNL     1      -8.006   7.820  64.475  1.00  0.00    -0.135 A  
HETATM   15  C   UNL     1      -8.478   9.067  64.890  1.00  0.00    -0.195 A  
HETATM   16  C   UNL     1      -9.263   9.213  66.057  1.00  0.00    -0.271 A  
ENDBRANCH   1   7
TORSDOF 2
ENDMDL
MODEL      123
REMARK 921   NORMALIZED FREE ENERGY PREDICTED BY IDOCK:   -3.85 KCAL/MOL
REMARK 922        TOTAL FREE ENERGY PREDICTED BY IDOCK:   -4.59 KCAL/MOL
REMARK 923 INTER-LIGAND FREE ENERGY PREDICTED BY IDOCK:   -4.32 KCAL/MOL
REMARK 924 INTRA-LIGAND FREE ENERGY PREDICTED BY IDOCK:   -0.27 KCAL/MOL
REMARK 927      BINDING AFFINITY PREDICTED BY RF-SCORE:    0.00 PKD
ROOT
HETATM    1  C   UNL     1     -10.923   6.665  67.318  1.00  0.00    -0.456 C  
ENDROOT
BRANCH   1   2
HETATM    2  C   UNL     1     -10.118   7.925  67.114  1.00  0.00    -0.258 C  
HETATM    3  N   UNL     1      -8.884   7.940  66.504  1.00  0.00    -0.144 NA 
HETATM    4  C   UNL     1      -8.281   9.218  66.803  1.00  0.00    -0.115 C  
HETATM    5  N   UNL     1     -10.587   9.088  67.501  1.00  0.00    -0.266 NA 
HETATM    6  C   UNL     1      -9.531  10.056  67.083  1.00  0.00    -0.155 C  
ENDBRANCH   1   2
BRANCH   1   7
HETATM    7  C   UNL     1     -10.359   5.710  68.353  1.00  0.00    -0.258 A  
HETATM    8  C   UNL     1      -9.481   4.706  67.904  1.00  0.00    -0.194 A  
HETATM    9  C   UNL     1      -9.327   3.803  70.130  1.00  0.00    -0.244 A  
HETATM   10  C   UNL     1     -10.167   4.812  70.619  1.00  0.00    -0.250 A  
HETATM   11  C   UNL     1      -8.974   3.757  68.784  1.00  0.00    -0.177 A  
HETATM   12  C   UNL     1     -10.491   4.853  71.986  1.00  0.00    -0.245 A  
HETATM   13  C   UNL     1     -11.311   5.855  72.499  1.00  0.00    -0.352 A  
HETATM   14  C   UNL     1     -11.818   6.830  71.651  1.00  0.00    -0.370 A  
HETATM   15  C   UNL     1     -11.515   6.798  70.288  1.00  0.00    -0.414 A  
HETATM   16  C   UNL     1     -10.688   5.793  69.734  1.00  0.00    -0.418 A  
ENDBRANCH   1   7
TORSDOF 2
ENDMDL
MODEL      124
REMARK 921   NORMALIZED FREE ENERGY PREDICTED BY IDOCK:   -3.84 KCAL/MOL
REMARK 922        TOTAL FREE ENERGY PREDICTED BY IDOCK:   -4.58 KCAL/MOL
REMARK 923 INTER-LIGAND FREE ENERGY PREDICTED BY IDOCK:   -4.28 KCAL/MOL
REMARK 924 INTRA-LIGAND FREE ENERGY PREDICTED BY IDOCK:   -0.30 KCAL/MOL
REMARK 927      BINDING AFFINITY PREDICTED BY RF-SCORE:    0.00 PKD
ROOT
HETATM    1  C   UNL     1      -9.887  11.778  67.713  1.00  0.00    -0.186 C  
ENDROOT
BRANCH   1   2
HETATM    2  C   UNL     1      -8.443  12.091  68.023  1.00  0.00    -0.168 C  
HETATM    3  N   UNL     1      -7.807  13.228  67.577  1.00  0.00    -0.163 NA 
HETATM    4  C   UNL     1      -6.390  13.015  67.758  1.00  0.00    -0.149 C  
HETATM    5  N   UNL     1      -7.729  11.281  68.768  1.00  0.00    -0.134 NA 
HETATM    6  C   UNL     1      -6.405  11.963  68.870  1.00  0.00    -0.073 C  
ENDBRANCH   1   2
BRANCH   1   7
HETATM    7  C   UNL     1     -10.873  12.199  68.785  1.00  0.00    -0.265 A  
HETATM    8  C   UNL     1     -11.168  13.570  68.899  1.00  0.00    -0.316 A  
HETATM    9  C   UNL     1     -12.589  13.140  70.794  1.00  0.00    -0.338 A  
HETATM   10  C   UNL     1     -12.349  11.764  70.687  1.00  0.00    -0.421 A  
HETATM   11  C   UNL     1     -12.014  14.037  69.898  1.00  0.00    -0.399 A  
HETATM   12  C   UNL     1     -12.959  10.873  71.587  1.00  0.00    -0.569 A  
HETATM   13  C   UNL     1     -12.749   9.500  71.490  1.00  0.00    -0.461 A  
HETATM   14  C   UNL     1     -11.925   8.998  70.492  1.00  0.00    -0.044 A  
HETATM   15  C   UNL     1     -11.303   9.870  69.595  1.00  0.00    -0.212 A  
HETATM   16  C   UNL     1     -11.493  11.269  69.667  1.00  0.00    -0.380 A  
ENDBRANCH   1   7
TORSDOF 2
ENDMDL
MODEL      125
REMARK 921   NORMALIZED FREE ENERGY PREDICTED BY IDOCK:   -3.80 KCAL/MOL
REMARK 922        TOTAL FREE ENERGY PREDICTED BY IDOCK:   -4.53 KCAL/MOL
REMARK 923 INTER-LIGAND FREE ENERGY PREDICTED BY IDOCK:   -4.32 KCAL/MOL
REMARK 924 INTRA-LIGAND FREE ENERGY PREDICTED BY IDOCK:   -0.21 KCAL/MOL
REMARK 927      BINDING AFFINITY PREDICTED BY RF-SCORE:    0.00 PKD
ROOT
HETATM    1  C   UNL     1     -11.692  12.514  67.373  1.00  0.00    -0.432 C  
ENDROOT
BRANCH   1   2
HETATM    2  C   UNL     1     -11.912  13.069  65.986  1.00  0.00    -0.440 C  
HETATM    3  N   UNL     1     -11.678  14.385  65.656  1.00  0.00    -0.352 NA 
HETATM    4  C   UNL     1     -12.322  14.622  64.386  1.00  0.00    -0.398 C  
HETATM    5  N   UNL     1     -12.326  12.292  65.013  1.00  0.00    -0.504 NA 
HETATM    6  C   UNL     1     -12.368  13.197  63.828  1.00  0.00    -0.383 C  
ENDBRANCH   1   2
BRANCH   1   7
HETATM    7  C   UNL     1     -10.571  11.498  67.480  1.00  0.00    -0.243 A  
HETATM    8  C   UNL     1     -10.926  10.137  67.527  1.00  0.00    -0.319 A  
HETATM    9  C   UNL     1      -8.617   9.511  67.793  1.00  0.00    -0.115 A  
HETATM   10  C   UNL     1      -8.223  10.853  67.710  1.00  0.00    -0.116 A  
HETATM   11  C   UNL     1      -9.958   9.152  67.687  1.00  0.00    -0.245 A  
HETATM   12  C   UNL     1      -6.861  11.190  67.795  1.00  0.00    -0.073 A  
HETATM   13  C   UNL     1      -6.443  12.515  67.700  1.00  0.00    -0.138 A  
HETATM   14  C   UNL     1      -7.382  13.522  67.520  1.00  0.00    -0.174 A  
HETATM   15  C   UNL     1      -8.741  13.205  67.444  1.00  0.00    -0.206 A  
HETATM   16  C   UNL     1      -9.199  11.870  67.539  1.00  0.00    -0.177 A  
ENDBRANCH   1   7
TORSDOF 2
ENDMDL
MODEL      126
REMARK 921   NORMALIZED FREE ENERGY PREDICTED BY IDOCK:   -3.77 KCAL/MOL
REMARK 922        TOTAL FREE ENERGY PREDICTED BY IDOCK:   -4.50 KCAL/MOL
REMARK 923 INTER-LIGAND FREE ENERGY PREDICTED BY IDOCK:   -4.31 KCAL/MOL
REMARK 924 INTRA-LIGAND FREE ENERGY PREDICTED BY IDOCK:   -0.19 KCAL/MOL
REMARK 927      BINDING AFFINITY PREDICTED BY RF-SCORE:    0.00 PKD
ROOT
HETATM    1  C   UNL     1      -9.167  10.480  68.689  1.00  0.00    -0.172 C  
ENDROOT
BRANCH   1   2
HETATM    2  C   UNL     1     -10.069  11.395  67.896  1.00  0.00    -0.183 C  
HETATM    3  N   UNL     1     -10.023  12.767  67.994  1.00  0.00    -0.219 NA 
HETATM    4  C   UNL     1     -11.231  13.273  67.385  1.00  0.00    -0.289 C  
HETATM    5  N   UNL     1     -10.939  10.903  67.046  1.00  0.00    -0.269 NA 
HETATM    6  C   UNL     1     -11.580  12.112  66.451  1.00  0.00    -0.364 C  
ENDBRANCH   1   2
BRANCH   1   7
HETATM    7  C   UNL     1      -9.712   9.082  68.907  1.00  0.00    -0.166 A  
HETATM    8  C   UNL     1      -9.248   8.060  68.058  1.00  0.00    -0.139 A  
HETATM    9  C   UNL     1     -10.715   6.472  69.116  1.00  0.00    -0.323 A  
HETATM   10  C   UNL     1     -11.172   7.454  70.004  1.00  0.00    -0.200 A  
HETATM   11  C   UNL     1      -9.749   6.768  68.158  1.00  0.00    -0.129 A  
HETATM   12  C   UNL     1     -12.131   7.128  70.979  1.00  0.00    -0.391 A  
HETATM   13  C   UNL     1     -12.589   8.084  71.882  1.00  0.00    -0.359 A  
HETATM   14  C   UNL     1     -12.095   9.380  71.823  1.00  0.00    -0.454 A  
HETATM   15  C   UNL     1     -11.149   9.724  70.854  1.00  0.00    -0.428 A  
HETATM   16  C   UNL     1     -10.665   8.779  69.920  1.00  0.00    -0.228 A  
ENDBRANCH   1   7
TORSDOF 2
ENDMDL
MODEL      127
REMARK 921   NORMALIZED FREE ENERGY PREDICTED BY IDOCK:   -3.77 KCAL/MOL
REMARK 922        TOTAL FREE ENERGY PREDICTED BY IDOCK:   -4.50 KCAL/MOL
REMARK 923 INTER-LIGAND FREE ENERGY PREDICTED BY IDOCK:   -4.30 KCAL/MOL
REMARK 924 INTRA-LIGAND FREE ENERGY PREDICTED BY IDOCK:   -0.20 KCAL/MOL
REMARK 927      BINDING AFFINITY PREDICTED BY RF-SCORE:    0.00 PKD
ROOT
HETATM    1  C   UNL     1     -10.505   9.608  67.300  1.00  0.00    -0.323 C  
ENDROOT
BRANCH   1   2
HETATM    2  C   UNL     1      -9.581   8.428  67.482  1.00  0.00    -0.154 C  
HETATM    3  N   UNL     1      -9.989   7.122  67.325  1.00  0.00    -0.169 NA 
HETATM    4  C   UNL     1      -8.966   6.288  67.912  1.00  0.00    -0.113 C  
HETATM    5  N   UNL     1      -8.317   8.608  67.784  1.00  0.00    -0.118 NA 
HETATM    6  C   UNL     1      -7.759   7.225  67.824  1.00  0.00    -0.112 C  
ENDBRANCH   1   2
BRANCH   1   7
HETATM    7  C   UNL     1     -11.026  10.212  68.591  1.00  0.00    -0.273 A  
HETATM    8  C   UNL     1     -11.216   9.348  69.685  1.00  0.00    -0.100 A  
HETATM    9  C   UNL     1     -12.092  11.161  71.004  1.00  0.00    -0.380 A  
HETATM   10  C   UNL     1     -11.880  12.058  69.949  1.00  0.00    -0.405 A  
HETATM   11  C   UNL     1     -11.749   9.818  70.880  1.00  0.00    -0.429 A  
HETATM   12  C   UNL     1     -12.211  13.415  70.104  1.00  0.00    -0.385 A  
HETATM   13  C   UNL     1     -11.996  14.328  69.075  1.00  0.00    -0.360 A  
HETATM   14  C   UNL     1     -11.446  13.897  67.876  1.00  0.00    -0.350 A  
HETATM   15  C   UNL     1     -11.121  12.549  67.701  1.00  0.00    -0.301 A  
HETATM   16  C   UNL     1     -11.329  11.596  68.724  1.00  0.00    -0.324 A  
ENDBRANCH   1   7
TORSDOF 2
ENDMDL
MODEL      128
REMARK 921   NORMALIZED FREE ENERGY PREDICTED BY IDOCK:   -3.77 KCAL/MOL
REMARK 922        TOTAL FREE ENERGY PREDICTED BY IDOCK:   -4.49 KCAL/MOL
REMARK 923 INTER-LIGAND FREE ENERGY PREDICTED BY IDOCK:   -4.63 KCAL/MOL
REMARK 924 INTRA-LIGAND FREE ENERGY PREDICTED BY IDOCK:    0.13 KCAL/MOL
REMARK 927      BINDING AFFINITY PREDICTED BY RF-SCORE:    0.00 PKD
ROOT
HETATM    1  C   UNL     1     -10.677  12.449  67.565  1.00  0.00    -0.256 C  
ENDROOT
BRANCH   1   2
HETATM    2  C   UNL     1     -10.371  11.172  68.309  1.00  0.00    -0.180 C  
HETATM    3  N   UNL     1      -9.223  10.986  69.046  1.00  0.00    -0.117 NA 
HETATM    4  C   UNL     1      -9.112   9.570  69.303  1.00  0.00    -0.161 C  
HETATM    5  N   UNL     1     -11.221  10.172  68.298  1.00  0.00    -0.229 NA 
HETATM    6  C   UNL     1     -10.577   9.147  69.170  1.00  0.00    -0.208 C  
ENDBRANCH   1   2
BRANCH   1   7
HETATM    7  C   UNL     1     -11.014  12.265  66.097  1.00  0.00    -0.328 A  
HETATM    8  C   UNL     1     -12.202  12.850  65.623  1.00  0.00    -0.519 A  
HETATM    9  C   UNL     1     -11.827  11.914  63.437  1.00  0.00    -0.512 A  
HETATM   10  C   UNL     1     -10.618  11.350  63.864  1.00  0.00    -0.452 A  
HETATM   11  C   UNL     1     -12.608  12.672  64.305  1.00  0.00    -0.453 A  
HETATM   12  C   UNL     1      -9.832  10.609  62.964  1.00  0.00    -0.318 A  
HETATM   13  C   UNL     1      -8.620  10.052  63.361  1.00  0.00    -0.204 A  
HETATM   14  C   UNL     1      -8.175  10.228  64.664  1.00  0.00    -0.161 A  
HETATM   15  C   UNL     1      -8.948  10.953  65.575  1.00  0.00    -0.213 A  
HETATM   16  C   UNL     1     -10.185  11.529  65.205  1.00  0.00    -0.315 A  
ENDBRANCH   1   7
TORSDOF 2
ENDMDL
MODEL      129
REMARK 921   NORMALIZED FREE ENERGY PREDICTED BY IDOCK:   -3.76 KCAL/MOL
REMARK 922        TOTAL FREE ENERGY PREDICTED BY IDOCK:   -4.49 KCAL/MOL
REMARK 923 INTER-LIGAND FREE ENERGY PREDICTED BY IDOCK:   -4.22 KCAL/MOL
REMARK 924 INTRA-LIGAND FREE ENERGY PREDICTED BY IDOCK:   -0.27 KCAL/MOL
REMARK 927      BINDING AFFINITY PREDICTED BY RF-SCORE:    0.00 PKD
ROOT
HETATM    1  C   UNL     1      -8.239  11.040  67.973  1.00  0.00    -0.123 C  
ENDROOT
BRANCH   1   2
HETATM    2  C   UNL     1      -8.874  10.362  69.163  1.00  0.00    -0.172 C  
HETATM    3  N   UNL     1      -8.168   9.998  70.287  1.00  0.00    -0.133 NA 
HETATM    4  C   UNL     1      -9.004   9.085  71.031  1.00  0.00    -0.241 C  
HETATM    5  N   UNL     1     -10.161  10.107  69.178  1.00  0.00    -0.201 NA 
HETATM    6  C   UNL     1     -10.387   9.491  70.519  1.00  0.00    -0.288 C  
ENDBRANCH   1   2
BRANCH   1   7
HETATM    7  C   UNL     1      -9.038  12.194  67.397  1.00  0.00    -0.181 A  
HETATM    8  C   UNL     1      -9.202  13.338  68.200  1.00  0.00    -0.212 A  
HETATM    9  C   UNL     1     -10.585  14.359  66.515  1.00  0.00    -0.296 A  
HETATM   10  C   UNL     1     -10.411  13.254  65.673  1.00  0.00    -0.292 A  
HETATM   11  C   UNL     1      -9.974  14.409  67.765  1.00  0.00    -0.226 A  
HETATM   12  C   UNL     1     -11.017  13.234  64.405  1.00  0.00    -0.413 A  
HETATM   13  C   UNL     1     -10.846  12.154  63.544  1.00  0.00    -0.518 A  
HETATM   14  C   UNL     1     -10.066  11.076  63.939  1.00  0.00    -0.414 A  
HETATM   15  C   UNL     1      -9.464  11.074  65.200  1.00  0.00    -0.265 A  
HETATM   16  C   UNL     1      -9.620  12.154  66.099  1.00  0.00    -0.250 A  
ENDBRANCH   1   7
TORSDOF 2
ENDMDL
MODEL      130
REMARK 921   NORMALIZED FREE ENERGY PREDICTED BY IDOCK:   -3.76 KCAL/MOL
REMARK 922        TOTAL FREE ENERGY PREDICTED BY IDOCK:   -4.49 KCAL/MOL
REMARK 923 INTER-LIGAND FREE ENERGY PREDICTED BY IDOCK:   -4.18 KCAL/MOL
REMARK 924 INTRA-LIGAND FREE ENERGY PREDICTED BY IDOCK:   -0.31 KCAL/MOL
REMARK 927      BINDING AFFINITY PREDICTED BY RF-SCORE:    0.00 PKD
ROOT
HETATM    1  C   UNL     1     -10.160  16.598  67.326  1.00  0.00    -0.279 C  
ENDROOT
BRANCH   1   2
HETATM    2  C   UNL     1     -10.841  15.807  66.236  1.00  0.00    -0.232 C  
HETATM    3  N   UNL     1     -10.969  16.262  64.943  1.00  0.00    -0.608 NA 
HETATM    4  C   UNL     1     -11.956  15.428  64.298  1.00  0.00    -0.188 C  
HETATM    5  N   UNL     1     -11.331  14.614  66.482  1.00  0.00    -0.348 NA 
HETATM    6  C   UNL     1     -11.861  14.167  65.161  1.00  0.00    -0.372 C  
ENDBRANCH   1   2
BRANCH   1   7
HETATM    7  C   UNL     1      -8.662  16.764  67.149  1.00  0.00    -0.218 A  
HETATM    8  C   UNL     1      -7.854  15.625  67.324  1.00  0.00    -0.230 A  
HETATM    9  C   UNL     1      -5.870  16.941  66.969  1.00  0.00    -0.208 A  
HETATM   10  C   UNL     1      -6.644  18.087  66.750  1.00  0.00    -0.220 A  
HETATM   11  C   UNL     1      -6.470  15.714  67.240  1.00  0.00    -0.093 A  
HETATM   12  C   UNL     1      -6.019  19.311  66.454  1.00  0.00    -0.178 A  
HETATM   13  C   UNL     1      -6.768  20.460  66.217  1.00  0.00    -0.280 A  
HETATM   14  C   UNL     1      -8.154  20.403  66.274  1.00  0.00    -0.112 A  
HETATM   15  C   UNL     1      -8.791  19.197  66.577  1.00  0.00    -0.348 A  
HETATM   16  C   UNL     1      -8.061  18.012  66.825  1.00  0.00    -0.264 A  
ENDBRANCH   1   7
TORSDOF 2
ENDMDL
MODEL      131
REMARK 921   NORMALIZED FREE ENERGY PREDICTED BY IDOCK:   -3.75 KCAL/MOL
REMARK 922        TOTAL FREE ENERGY PREDICTED BY IDOCK:   -4.48 KCAL/MOL
REMARK 923 INTER-LIGAND FREE ENERGY PREDICTED BY IDOCK:   -4.35 KCAL/MOL
REMARK 924 INTRA-LIGAND FREE ENERGY PREDICTED BY IDOCK:   -0.13 KCAL/MOL
REMARK 927      BINDING AFFINITY PREDICTED BY RF-SCORE:    0.00 PKD
ROOT
HETATM    1  C   UNL     1      -9.635  15.051  65.776  1.00  0.00    -0.327 C  
ENDROOT
BRANCH   1   2
HETATM    2  C   UNL     1     -10.059  16.397  66.314  1.00  0.00    -0.331 C  
HETATM    3  N   UNL     1     -10.350  17.472  65.506  1.00  0.00    -0.636 NA 
HETATM    4  C   UNL     1     -10.363  18.643  66.351  1.00  0.00    -0.432 C  
HETATM    5  N   UNL     1     -10.190  16.589  67.605  1.00  0.00    -0.271 NA 
HETATM    6  C   UNL     1     -10.658  18.002  67.710  1.00  0.00    -0.394 C  
ENDBRANCH   1   2
BRANCH   1   7
HETATM    7  C   UNL     1     -10.023  13.869  66.643  1.00  0.00    -0.279 A  
HETATM    8  C   UNL     1     -11.395  13.634  66.849  1.00  0.00    -0.345 A  
HETATM    9  C   UNL     1     -10.891  11.792  68.314  1.00  0.00    -0.259 A  
HETATM   10  C   UNL     1      -9.518  11.972  68.102  1.00  0.00    -0.200 A  
HETATM   11  C   UNL     1     -11.825  12.607  67.682  1.00  0.00    -0.390 A  
HETATM   12  C   UNL     1      -8.593  11.122  68.732  1.00  0.00    -0.133 A  
HETATM   13  C   UNL     1      -7.224  11.271  68.524  1.00  0.00    -0.094 A  
HETATM   14  C   UNL     1      -6.762  12.274  67.682  1.00  0.00    -0.126 A  
HETATM   15  C   UNL     1      -7.667  13.134  67.056  1.00  0.00     0.080 A  
HETATM   16  C   UNL     1      -9.062  13.012  67.248  1.00  0.00    -0.209 A  
ENDBRANCH   1   7
TORSDOF 2
ENDMDL
MODEL      132
REMARK 921   NORMALIZED FREE ENERGY PREDICTED BY IDOCK:   -3.74 KCAL/MOL
REMARK 922        TOTAL FREE ENERGY PREDICTED BY IDOCK:   -4.47 KCAL/MOL
REMARK 923 INTER-LIGAND FREE ENERGY PREDICTED BY IDOCK:   -4.65 KCAL/MOL
REMARK 924 INTRA-LIGAND FREE ENERGY PREDICTED BY IDOCK:    0.18 KCAL/MOL
REMARK 927      BINDING AFFINITY PREDICTED BY RF-SCORE:    0.00 PKD
ROOT
HETATM    1  C   UNL     1      -8.709  11.887  67.237  1.00  0.00    -0.171 C  
ENDROOT
BRANCH   1   2
HETATM    2  C   UNL     1      -9.656  11.420  68.316  1.00  0.00    -0.192 C  
HETATM    3  N   UNL     1      -9.437  10.290  69.072  1.00  0.00    -0.189 NA 
HETATM    4  C   UNL     1     -10.685   9.972  69.726  1.00  0.00    -0.271 C  
HETATM    5  N   UNL     1     -10.740  12.103  68.596  1.00  0.00    -0.229 NA 
HETATM    6  C   UNL     1     -11.358  11.347  69.724  1.00  0.00    -0.255 C  
ENDBRANCH   1   2
BRANCH   1   7
HETATM    7  C   UNL     1      -8.953  13.301  66.746  1.00  0.00    -0.183 A  
HETATM    8  C   UNL     1      -8.061  14.303  67.173  1.00  0.00    -0.154 A  
HETATM    9  C   UNL     1      -9.342  15.980  66.015  1.00  0.00    -0.380 A  
HETATM   10  C   UNL     1     -10.228  15.004  65.540  1.00  0.00    -0.406 A  
HETATM   11  C   UNL     1      -8.257  15.631  66.814  1.00  0.00    -0.300 A  
HETATM   12  C   UNL     1     -11.304  15.375  64.714  1.00  0.00    -0.381 A  
HETATM   13  C   UNL     1     -12.188  14.422  64.217  1.00  0.00    -0.450 A  
HETATM   14  C   UNL     1     -12.010  13.083  64.539  1.00  0.00    -0.450 A  
HETATM   15  C   UNL     1     -10.952  12.698  65.367  1.00  0.00    -0.320 A  
HETATM   16  C   UNL     1     -10.038  13.641  65.890  1.00  0.00    -0.320 A  
ENDBRANCH   1   7
TORSDOF 2
ENDMDL
MODEL      133
REMARK 921   NORMALIZED FREE ENERGY PREDICTED BY IDOCK:   -3.70 KCAL/MOL
REMARK 922        TOTAL FREE ENERGY PREDICTED BY IDOCK:   -4.42 KCAL/MOL
REMARK 923 INTER-LIGAND FREE ENERGY PREDICTED BY IDOCK:   -4.28 KCAL/MOL
REMARK 924 INTRA-LIGAND FREE ENERGY PREDICTED BY IDOCK:   -0.14 KCAL/MOL
REMARK 927      BINDING AFFINITY PREDICTED BY RF-SCORE:    0.00 PKD
ROOT
HETATM    1  C   UNL     1     -10.608   5.483  71.584  1.00  0.00    -0.294 C  
ENDROOT
BRANCH   1   2
HETATM    2  C   UNL     1      -9.794   4.474  70.810  1.00  0.00    -0.210 C  
HETATM    3  N   UNL     1      -9.964   4.243  69.464  1.00  0.00    -0.152 NA 
HETATM    4  C   UNL     1      -9.290   3.002  69.161  1.00  0.00    -0.149 C  
HETATM    5  N   UNL     1      -8.855   3.776  71.404  1.00  0.00    -0.093 NA 
HETATM    6  C   UNL     1      -8.275   2.950  70.305  1.00  0.00    -0.041 C  
ENDBRANCH   1   2
BRANCH   1   7
HETATM    7  C   UNL     1     -10.353   6.929  71.204  1.00  0.00    -0.222 A  
HETATM    8  C   UNL     1      -9.080   7.258  70.702  1.00  0.00    -0.157 A  
HETATM    9  C   UNL     1      -9.698   9.580  70.568  1.00  0.00    -0.325 A  
HETATM   10  C   UNL     1     -10.988   9.285  71.028  1.00  0.00    -0.390 A  
HETATM   11  C   UNL     1      -8.754   8.573  70.392  1.00  0.00    -0.153 A  
HETATM   12  C   UNL     1     -11.934  10.314  71.175  1.00  0.00    -0.472 A  
HETATM   13  C   UNL     1     -13.227  10.043  71.616  1.00  0.00    -0.518 A  
HETATM   14  C   UNL     1     -13.592   8.738  71.916  1.00  0.00    -0.467 A  
HETATM   15  C   UNL     1     -12.661   7.704  71.785  1.00  0.00    -0.356 A  
HETATM   16  C   UNL     1     -11.340   7.945  71.343  1.00  0.00    -0.285 A  
ENDBRANCH   1   7
TORSDOF 2
ENDMDL
MODEL      134
REMARK 921   NORMALIZED FREE ENERGY PREDICTED BY IDOCK:   -3.70 KCAL/MOL
REMARK 922        TOTAL FREE ENERGY PREDICTED BY IDOCK:   -4.42 KCAL/MOL
REMARK 923 INTER-LIGAND FREE ENERGY PREDICTED BY IDOCK:   -4.17 KCAL/MOL
REMARK 924 INTRA-LIGAND FREE ENERGY PREDICTED BY IDOCK:   -0.25 KCAL/MOL
REMARK 927      BINDING AFFINITY PREDICTED BY RF-SCORE:    0.00 PKD
ROOT
HETATM    1  C   UNL     1     -11.003   6.109  67.490  1.00  0.00    -0.404 C  
ENDROOT
BRANCH   1   2
HETATM    2  C   UNL     1     -10.198   7.276  66.972  1.00  0.00    -0.278 C  
HETATM    3  N   UNL     1     -10.620   8.583  67.067  1.00  0.00    -0.290 NA 
HETATM    4  C   UNL     1      -9.792   9.359  66.175  1.00  0.00    -0.285 C  
HETATM    5  N   UNL     1      -9.024   7.085  66.418  1.00  0.00    -0.150 NA 
HETATM    6  C   UNL     1      -8.553   8.464  66.096  1.00  0.00    -0.141 C  
ENDBRANCH   1   2
BRANCH   1   7
HETATM    7  C   UNL     1     -10.894   5.874  68.984  1.00  0.00    -0.383 A  
HETATM    8  C   UNL     1     -11.643   6.711  69.832  1.00  0.00    -0.393 A  
HETATM    9  C   UNL     1     -10.706   5.636  71.772  1.00  0.00    -0.305 A  
HETATM   10  C   UNL     1      -9.975   4.760  70.959  1.00  0.00    -0.279 A  
HETATM   11  C   UNL     1     -11.546   6.596  71.214  1.00  0.00    -0.374 A  
HETATM   12  C   UNL     1      -9.152   3.782  71.543  1.00  0.00    -0.173 A  
HETATM   13  C   UNL     1      -8.428   2.890  70.755  1.00  0.00    -0.095 A  
HETATM   14  C   UNL     1      -8.518   2.964  69.372  1.00  0.00    -0.100 A  
HETATM   15  C   UNL     1      -9.324   3.937  68.775  1.00  0.00    -0.231 A  
HETATM   16  C   UNL     1     -10.069   4.859  69.545  1.00  0.00    -0.286 A  
ENDBRANCH   1   7
TORSDOF 2
ENDMDL
MODEL      135
REMARK 921   NORMALIZED FREE ENERGY PREDICTED BY IDOCK:   -3.69 KCAL/MOL
REMARK 922        TOTAL FREE ENERGY PREDICTED BY IDOCK:   -4.41 KCAL/MOL
REMARK 923 INTER-LIGAND FREE ENERGY PREDICTED BY IDOCK:   -4.12 KCAL/MOL
REMARK 924 INTRA-LIGAND FREE ENERGY PREDICTED BY IDOCK:   -0.28 KCAL/MOL
REMARK 927      BINDING AFFINITY PREDICTED BY RF-SCORE:    0.00 PKD
ROOT
HETATM    1  C   UNL     1     -10.390   8.025  69.219  1.00  0.00    -0.224 C  
ENDROOT
BRANCH   1   2
HETATM    2  C   UNL     1      -8.968   7.642  69.550  1.00  0.00    -0.139 C  
HETATM    3  N   UNL     1      -8.238   8.247  70.548  1.00  0.00    -0.110 NA 
HETATM    4  C   UNL     1      -6.856   7.885  70.337  1.00  0.00    -0.041 C  
HETATM    5  N   UNL     1      -8.366   6.678  68.894  1.00  0.00    -0.119 NA 
HETATM    6  C   UNL     1      -7.026   6.587  69.544  1.00  0.00    -0.067 C  
ENDBRANCH   1   2
BRANCH   1   7
HETATM    7  C   UNL     1     -10.653   9.519  69.175  1.00  0.00    -0.237 A  
HETATM    8  C   UNL     1      -9.980  10.270  68.194  1.00  0.00    -0.168 A  
HETATM    9  C   UNL     1     -10.948  12.304  69.044  1.00  0.00    -0.250 A  
HETATM   10  C   UNL     1     -11.664  11.584  70.009  1.00  0.00    -0.414 A  
HETATM   11  C   UNL     1     -10.122  11.652  68.133  1.00  0.00    -0.202 A  
HETATM   12  C   UNL     1     -12.511  12.260  70.904  1.00  0.00    -0.371 A  
HETATM   13  C   UNL     1     -13.245  11.564  71.861  1.00  0.00    -0.479 A  
HETATM   14  C   UNL     1     -13.141  10.182  71.938  1.00  0.00    -0.571 A  
HETATM   15  C   UNL     1     -12.296   9.495  71.062  1.00  0.00    -0.363 A  
HETATM   16  C   UNL     1     -11.536  10.171  70.081  1.00  0.00    -0.368 A  
ENDBRANCH   1   7
TORSDOF 2
ENDMDL
MODEL      136
REMARK 921   NORMALIZED FREE ENERGY PREDICTED BY IDOCK:   -3.67 KCAL/MOL
REMARK 922        TOTAL FREE ENERGY PREDICTED BY IDOCK:   -4.39 KCAL/MOL
REMARK 923 INTER-LIGAND FREE ENERGY PREDICTED BY IDOCK:   -4.20 KCAL/MOL
REMARK 924 INTRA-LIGAND FREE ENERGY PREDICTED BY IDOCK:   -0.19 KCAL/MOL
REMARK 927      BINDING AFFINITY PREDICTED BY RF-SCORE:    0.00 PKD
ROOT
HETATM    1  C   UNL     1      -8.703   8.552  72.140  1.00  0.00    -0.267 C  
ENDROOT
BRANCH   1   2
HETATM    2  C   UNL     1      -8.166   8.813  70.754  1.00  0.00    -0.156 C  
HETATM    3  N   UNL     1      -7.595  10.009  70.380  1.00  0.00    -0.265 NA 
HETATM    4  C   UNL     1      -7.533  10.014  68.937  1.00  0.00    -0.083 C  
HETATM    5  N   UNL     1      -8.204   7.877  69.835  1.00  0.00    -0.119 NA 
HETATM    6  C   UNL     1      -7.547   8.509  68.654  1.00  0.00    -0.098 C  
ENDBRANCH   1   2
BRANCH   1   7
HETATM    7  C   UNL     1      -9.934   7.668  72.189  1.00  0.00    -0.232 A  
HETATM    8  C   UNL     1      -9.747   6.304  72.479  1.00  0.00    -0.163 A  
HETATM    9  C   UNL     1     -12.101   5.889  72.200  1.00  0.00    -0.110 A  
HETATM   10  C   UNL     1     -12.332   7.248  71.946  1.00  0.00    -0.346 A  
HETATM   11  C   UNL     1     -10.821   5.421  72.479  1.00  0.00    -0.304 A  
HETATM   12  C   UNL     1     -13.636   7.703  71.690  1.00  0.00    -0.431 A  
HETATM   13  C   UNL     1     -13.892   9.050  71.450  1.00  0.00    -0.302 A  
HETATM   14  C   UNL     1     -12.845   9.962  71.462  1.00  0.00    -0.522 A  
HETATM   15  C   UNL     1     -11.540   9.525  71.704  1.00  0.00    -0.451 A  
HETATM   16  C   UNL     1     -11.246   8.164  71.949  1.00  0.00    -0.351 A  
ENDBRANCH   1   7
TORSDOF 2
ENDMDL
MODEL      137
REMARK 921   NORMALIZED FREE ENERGY PREDICTED BY IDOCK:   -3.67 KCAL/MOL
REMARK 922        TOTAL FREE ENERGY PREDICTED BY IDOCK:   -4.39 KCAL/MOL
REMARK 923 INTER-LIGAND FREE ENERGY PREDICTED BY IDOCK:   -4.08 KCAL/MOL
REMARK 924 INTRA-LIGAND FREE ENERGY PREDICTED BY IDOCK:   -0.32 KCAL/MOL
REMARK 927      BINDING AFFINITY PREDICTED BY RF-SCORE:    0.00 PKD
ROOT
HETATM    1  C   UNL     1      -8.282  12.616  68.021  1.00  0.00    -0.167 C  
ENDROOT
BRANCH   1   2
HETATM    2  C   UNL     1      -7.260  11.720  67.365  1.00  0.00    -0.133 C  
HETATM    3  N   UNL     1      -5.902  11.903  67.498  1.00  0.00    -0.084 NA 
HETATM    4  C   UNL     1      -5.267  11.105  66.475  1.00  0.00    -0.112 C  
HETATM    5  N   UNL     1      -7.638  10.692  66.641  1.00  0.00    -0.122 NA 
HETATM    6  C   UNL     1      -6.354  10.057  66.225  1.00  0.00    -0.079 C  
ENDBRANCH   1   2
BRANCH   1   7
HETATM    7  C   UNL     1      -8.753  13.776  67.164  1.00  0.00    -0.231 A  
HETATM    8  C   UNL     1      -7.951  14.932  67.133  1.00  0.00    -0.227 A  
HETATM    9  C   UNL     1      -9.552  16.042  65.719  1.00  0.00    -0.311 A  
HETATM   10  C   UNL     1     -10.357  14.895  65.695  1.00  0.00    -0.370 A  
HETATM   11  C   UNL     1      -8.350  16.057  66.421  1.00  0.00    -0.344 A  
HETATM   12  C   UNL     1     -11.555  14.894  64.960  1.00  0.00    -0.357 A  
HETATM   13  C   UNL     1     -12.363  13.761  64.908  1.00  0.00    -0.435 A  
HETATM   14  C   UNL     1     -11.985  12.614  65.592  1.00  0.00    -0.507 A  
HETATM   15  C   UNL     1     -10.802  12.601  66.336  1.00  0.00    -0.295 A  
HETATM   16  C   UNL     1      -9.960  13.735  66.412  1.00  0.00    -0.301 A  
ENDBRANCH   1   7
TORSDOF 2
ENDMDL
MODEL      138
REMARK 921   NORMALIZED FREE ENERGY PREDICTED BY IDOCK:   -3.65 KCAL/MOL
REMARK 922        TOTAL FREE ENERGY PREDICTED BY IDOCK:   -4.36 KCAL/MOL
REMARK 923 INTER-LIGAND FREE ENERGY PREDICTED BY IDOCK:   -4.31 KCAL/MOL
REMARK 924 INTRA-LIGAND FREE ENERGY PREDICTED BY IDOCK:   -0.05 KCAL/MOL
REMARK 927      BINDING AFFINITY PREDICTED BY RF-SCORE:    0.00 PKD
ROOT
HETATM    1  C   UNL     1     -11.691   9.169  70.941  1.00  0.00    -0.341 C  
ENDROOT
BRANCH   1   2
HETATM    2  C   UNL     1     -10.441   8.667  71.623  1.00  0.00    -0.296 C  
HETATM    3  N   UNL     1     -10.436   7.605  72.499  1.00  0.00    -0.243 NA 
HETATM    4  C   UNL     1      -9.175   7.646  73.201  1.00  0.00    -0.216 C  
HETATM    5  N   UNL     1      -9.279   9.225  71.381  1.00  0.00    -0.296 NA 
HETATM    6  C   UNL     1      -8.321   8.423  72.196  1.00  0.00    -0.164 C  
ENDBRANCH   1   2
BRANCH   1   7
HETATM    7  C   UNL     1     -11.449  10.144  69.805  1.00  0.00    -0.288 A  
HETATM    8  C   UNL     1     -11.713  11.505  70.047  1.00  0.00    -0.414 A  
HETATM    9  C   UNL     1     -11.158  12.048  67.768  1.00  0.00    -0.303 A  
HETATM   10  C   UNL     1     -10.848  10.708  67.503  1.00  0.00    -0.351 A  
HETATM   11  C   UNL     1     -11.574  12.448  69.035  1.00  0.00    -0.362 A  
HETATM   12  C   UNL     1     -10.406  10.330  66.223  1.00  0.00    -0.256 A  
HETATM   13  C   UNL     1     -10.077   9.007  65.939  1.00  0.00    -0.041 A  
HETATM   14  C   UNL     1     -10.186   8.043  66.932  1.00  0.00    -0.385 A  
HETATM   15  C   UNL     1     -10.633   8.400  68.207  1.00  0.00    -0.163 A  
HETATM   16  C   UNL     1     -10.978   9.733  68.527  1.00  0.00    -0.195 A  
ENDBRANCH   1   7
TORSDOF 2
ENDMDL
MODEL      139
REMARK 921   NORMALIZED FREE ENERGY PREDICTED BY IDOCK:   -3.64 KCAL/MOL
REMARK 922        TOTAL FREE ENERGY PREDICTED BY IDOCK:   -4.36 KCAL/MOL
REMARK 923 INTER-LIGAND FREE ENERGY PREDICTED BY IDOCK:   -4.20 KCAL/MOL
REMARK 924 INTRA-LIGAND FREE ENERGY PREDICTED BY IDOCK:   -0.16 KCAL/MOL
REMARK 927      BINDING AFFINITY PREDICTED BY RF-SCORE:    0.00 PKD
ROOT
HETATM    1  C   UNL     1      -9.677   9.502  69.195  1.00  0.00    -0.178 C  
ENDROOT
BRANCH   1   2
HETATM    2  C   UNL     1     -10.375   8.169  69.320  1.00  0.00    -0.217 C  
HETATM    3  N   UNL     1     -11.235   7.864  70.351  1.00  0.00    -0.261 NA 
HETATM    4  C   UNL     1     -11.419   6.431  70.336  1.00  0.00    -0.393 C  
HETATM    5  N   UNL     1     -10.201   7.236  68.415  1.00  0.00    -0.175 NA 
HETATM    6  C   UNL     1     -11.084   6.123  68.874  1.00  0.00    -0.345 C  
ENDBRANCH   1   2
BRANCH   1   7
HETATM    7  C   UNL     1     -10.301  10.454  68.192  1.00  0.00    -0.202 A  
HETATM    8  C   UNL     1     -10.122  10.171  66.825  1.00  0.00    -0.277 A  
HETATM    9  C   UNL     1     -11.295  12.185  66.224  1.00  0.00    -0.411 A  
HETATM   10  C   UNL     1     -11.526  12.479  67.574  1.00  0.00    -0.397 A  
HETATM   11  C   UNL     1     -10.611  11.032  65.849  1.00  0.00    -0.270 A  
HETATM   12  C   UNL     1     -12.240  13.636  67.929  1.00  0.00    -0.185 A  
HETATM   13  C   UNL     1     -12.495  13.941  69.263  1.00  0.00    -0.028 A  
HETATM   14  C   UNL     1     -12.038  13.092  70.262  1.00  0.00    -0.399 A  
HETATM   15  C   UNL     1     -11.318  11.943  69.928  1.00  0.00    -0.175 A  
HETATM   16  C   UNL     1     -11.039  11.606  68.583  1.00  0.00    -0.287 A  
ENDBRANCH   1   7
TORSDOF 2
ENDMDL
MODEL      140
REMARK 921   NORMALIZED FREE ENERGY PREDICTED BY IDOCK:   -3.57 KCAL/MOL
REMARK 922        TOTAL FREE ENERGY PREDICTED BY IDOCK:   -4.27 KCAL/MOL
REMARK 923 INTER-LIGAND FREE ENERGY PREDICTED BY IDOCK:   -4.16 KCAL/MOL
REMARK 924 INTRA-LIGAND FREE ENERGY PREDICTED BY IDOCK:   -0.11 KCAL/MOL
REMARK 927      BINDING AFFINITY PREDICTED BY RF-SCORE:    0.00 PKD
ROOT
HETATM    1  C   UNL     1     -11.893   9.464  70.485  1.00  0.00    -0.207 C  
ENDROOT
BRANCH   1   2
HETATM    2  C   UNL     1     -11.327  10.363  69.412  1.00  0.00    -0.250 C  
HETATM    3  N   UNL     1     -12.055  11.361  68.805  1.00  0.00    -0.514 NA 
HETATM    4  C   UNL     1     -11.327  11.754  67.622  1.00  0.00    -0.302 C  
HETATM    5  N   UNL     1     -10.081  10.236  69.023  1.00  0.00    -0.201 NA 
HETATM    6  C   UNL     1      -9.912  11.317  68.009  1.00  0.00    -0.179 C  
ENDBRANCH   1   2
BRANCH   1   7
HETATM    7  C   UNL     1     -10.904   8.475  71.073  1.00  0.00    -0.290 A  
HETATM    8  C   UNL     1     -10.303   8.806  72.301  1.00  0.00    -0.320 A  
HETATM    9  C   UNL     1      -8.971   6.803  72.225  1.00  0.00    -0.136 A  
HETATM   10  C   UNL     1      -9.577   6.422  71.021  1.00  0.00    -0.188 A  
HETATM   11  C   UNL     1      -9.341   7.979  72.870  1.00  0.00    -0.338 A  
HETATM   12  C   UNL     1      -9.206   5.217  70.398  1.00  0.00    -0.190 A  
HETATM   13  C   UNL     1      -9.804   4.810  69.209  1.00  0.00    -0.269 A  
HETATM   14  C   UNL     1     -10.783   5.602  68.625  1.00  0.00    -0.249 A  
HETATM   15  C   UNL     1     -11.156   6.808  69.224  1.00  0.00    -0.289 A  
HETATM   16  C   UNL     1     -10.567   7.252  70.430  1.00  0.00    -0.240 A  
ENDBRANCH   1   7
TORSDOF 2
ENDMDL
MODEL      141
REMARK 921   NORMALIZED FREE ENERGY PREDICTED BY IDOCK:   -3.57 KCAL/MOL
REMARK 922        TOTAL FREE ENERGY PREDICTED BY IDOCK:   -4.27 KCAL/MOL
REMARK 923 INTER-LIGAND FREE ENERGY PREDICTED BY IDOCK:   -3.98 KCAL/MOL
REMARK 924 INTRA-LIGAND FREE ENERGY PREDICTED BY IDOCK:   -0.29 KCAL/MOL
REMARK 927      BINDING AFFINITY PREDICTED BY RF-SCORE:    0.00 PKD
ROOT
HETATM    1  C   UNL     1     -10.710   8.040  68.292  1.00  0.00    -0.081 C  
ENDROOT
BRANCH   1   2
HETATM    2  C   UNL     1     -10.292   8.324  69.714  1.00  0.00    -0.216 C  
HETATM    3  N   UNL     1     -11.136   8.171  70.791  1.00  0.00    -0.256 NA 
HETATM    4  C   UNL     1     -10.525   8.857  71.905  1.00  0.00    -0.345 C  
HETATM    5  N   UNL     1      -9.070   8.718  69.986  1.00  0.00    -0.153 NA 
HETATM    6  C   UNL     1      -9.057   8.839  71.473  1.00  0.00    -0.252 C  
ENDBRANCH   1   2
BRANCH   1   7
HETATM    7  C   UNL     1     -10.496   9.189  67.325  1.00  0.00    -0.335 A  
HETATM    8  C   UNL     1     -11.164  10.399  67.592  1.00  0.00    -0.287 A  
HETATM    9  C   UNL     1     -10.291  11.363  65.566  1.00  0.00    -0.317 A  
HETATM   10  C   UNL     1      -9.580  10.188  65.289  1.00  0.00    -0.338 A  
HETATM   11  C   UNL     1     -11.066  11.475  66.717  1.00  0.00    -0.361 A  
HETATM   12  C   UNL     1      -8.784  10.105  64.133  1.00  0.00    -0.216 A  
HETATM   13  C   UNL     1      -8.057   8.954  63.844  1.00  0.00    -0.163 A  
HETATM   14  C   UNL     1      -8.116   7.868  64.706  1.00  0.00    -0.141 A  
HETATM   15  C   UNL     1      -8.911   7.929  65.854  1.00  0.00    -0.166 A  
HETATM   16  C   UNL     1      -9.664   9.082  66.176  1.00  0.00    -0.354 A  
ENDBRANCH   1   7
TORSDOF 2
ENDMDL
MODEL      142
REMARK 921   NORMALIZED FREE ENERGY PREDICTED BY IDOCK:   -3.57 KCAL/MOL
REMARK 922        TOTAL FREE ENERGY PREDICTED BY IDOCK:   -4.27 KCAL/MOL
REMARK 923 INTER-LIGAND FREE ENERGY PREDICTED BY IDOCK:   -4.09 KCAL/MOL
REMARK 924 INTRA-LIGAND FREE ENERGY PREDICTED BY IDOCK:   -0.18 KCAL/MOL
REMARK 927      BINDING AFFINITY PREDICTED BY RF-SCORE:    0.00 PKD
ROOT
HETATM    1  C   UNL     1     -11.005   9.392  71.237  1.00  0.00    -0.440 C  
ENDROOT
BRANCH   1   2
HETATM    2  C   UNL     1     -10.250   8.549  72.236  1.00  0.00    -0.325 C  
HETATM    3  N   UNL     1     -10.816   7.487  72.904  1.00  0.00    -0.341 NA 
HETATM    4  C   UNL     1      -9.934   7.162  74.001  1.00  0.00    -0.272 C  
HETATM    5  N   UNL     1      -8.987   8.790  72.494  1.00  0.00    -0.371 NA 
HETATM    6  C   UNL     1      -8.614   7.728  73.474  1.00  0.00    -0.225 C  
ENDBRANCH   1   2
BRANCH   1   7
HETATM    7  C   UNL     1     -10.385   9.448  69.854  1.00  0.00    -0.252 A  
HETATM    8  C   UNL     1      -9.729  10.636  69.481  1.00  0.00    -0.085 A  
HETATM    9  C   UNL     1      -9.290   9.742  67.290  1.00  0.00    -0.161 A  
HETATM   10  C   UNL     1      -9.901   8.531  67.639  1.00  0.00    -0.222 A  
HETATM   11  C   UNL     1      -9.190  10.783  68.208  1.00  0.00    -0.157 A  
HETATM   12  C   UNL     1      -9.969   7.484  66.704  1.00  0.00    -0.270 A  
HETATM   13  C   UNL     1     -10.558   6.266  67.032  1.00  0.00    -0.386 A  
HETATM   14  C   UNL     1     -11.088   6.078  68.302  1.00  0.00    -0.259 A  
HETATM   15  C   UNL     1     -11.038   7.111  69.240  1.00  0.00    -0.112 A  
HETATM   16  C   UNL     1     -10.450   8.361  68.938  1.00  0.00    -0.208 A  
ENDBRANCH   1   7
TORSDOF 2
ENDMDL
MODEL      143
REMARK 921   NORMALIZED FREE ENERGY PREDICTED BY IDOCK:   -3.55 KCAL/MOL
REMARK 922        TOTAL FREE ENERGY PREDICTED BY IDOCK:   -4.25 KCAL/MOL
REMARK 923 INTER-LIGAND FREE ENERGY PREDICTED BY IDOCK:   -4.10 KCAL/MOL
REMARK 924 INTRA-LIGAND FREE ENERGY PREDICTED BY IDOCK:   -0.15 KCAL/MOL
REMARK 927      BINDING AFFINITY PREDICTED BY RF-SCORE:    0.00 PKD
ROOT
HETATM    1  C   UNL     1     -10.184   7.256  70.943  1.00  0.00    -0.203 C  
ENDROOT
BRANCH   1   2
HETATM    2  C   UNL     1     -11.638   7.557  71.215  1.00  0.00    -0.281 C  
HETATM    3  N   UNL     1     -12.111   8.827  71.459  1.00  0.00    -0.312 NA 
HETATM    4  C   UNL     1     -13.436   8.683  72.014  1.00  0.00    -0.403 C  
HETATM    5  N   UNL     1     -12.532   6.597  71.208  1.00  0.00    -0.301 NA 
HETATM    6  C   UNL     1     -13.819   7.306  71.468  1.00  0.00    -0.350 C  
ENDBRANCH   1   2
BRANCH   1   7
HETATM    7  C   UNL     1      -9.909   5.850  70.445  1.00  0.00    -0.231 A  
HETATM    8  C   UNL     1      -9.492   4.893  71.389  1.00  0.00    -0.212 A  
HETATM    9  C   UNL     1      -9.252   3.241  69.656  1.00  0.00    -0.221 A  
HETATM   10  C   UNL     1      -9.700   4.155  68.694  1.00  0.00    -0.157 A  
HETATM   11  C   UNL     1      -9.162   3.601  70.997  1.00  0.00    -0.196 A  
HETATM   12  C   UNL     1      -9.807   3.763  67.348  1.00  0.00    -0.026 A  
HETATM   13  C   UNL     1     -10.264   4.649  66.377  1.00  0.00    -0.293 A  
HETATM   14  C   UNL     1     -10.622   5.941  66.737  1.00  0.00    -0.368 A  
HETATM   15  C   UNL     1     -10.513   6.351  68.068  1.00  0.00    -0.271 A  
HETATM   16  C   UNL     1     -10.049   5.477  69.079  1.00  0.00    -0.275 A  
ENDBRANCH   1   7
TORSDOF 2
ENDMDL
MODEL      144
REMARK 921   NORMALIZED FREE ENERGY PREDICTED BY IDOCK:   -3.54 KCAL/MOL
REMARK 922        TOTAL FREE ENERGY PREDICTED BY IDOCK:   -4.24 KCAL/MOL
REMARK 923 INTER-LIGAND FREE ENERGY PREDICTED BY IDOCK:   -3.92 KCAL/MOL
REMARK 924 INTRA-LIGAND FREE ENERGY PREDICTED BY IDOCK:   -0.32 KCAL/MOL
REMARK 927      BINDING AFFINITY PREDICTED BY RF-SCORE:    0.00 PKD
ROOT
HETATM    1  C   UNL     1     -10.550   6.056  67.773  1.00  0.00    -0.337 C  
ENDROOT
BRANCH   1   2
HETATM    2  C   UNL     1      -9.274   6.468  67.078  1.00  0.00    -0.134 C  
HETATM    3  N   UNL     1      -8.870   5.940  65.872  1.00  0.00    -0.150 NA 
HETATM    4  C   UNL     1      -7.479   6.292  65.704  1.00  0.00    -0.082 C  
HETATM    5  N   UNL     1      -8.494   7.385  67.600  1.00  0.00    -0.120 NA 
HETATM    6  C   UNL     1      -7.394   7.529  66.603  1.00  0.00    -0.091 C  
ENDBRANCH   1   2
BRANCH   1   7
HETATM    7  C   UNL     1     -10.376   5.625  69.217  1.00  0.00    -0.340 A  
HETATM    8  C   UNL     1      -9.846   4.344  69.456  1.00  0.00    -0.258 A  
HETATM    9  C   UNL     1     -10.105   4.646  71.830  1.00  0.00    -0.261 A  
HETATM   10  C   UNL     1     -10.600   5.941  71.632  1.00  0.00    -0.295 A  
HETATM   11  C   UNL     1      -9.716   3.856  70.751  1.00  0.00    -0.255 A  
HETATM   12  C   UNL     1     -10.964   6.730  72.736  1.00  0.00    -0.303 A  
HETATM   13  C   UNL     1     -11.445   8.026  72.566  1.00  0.00    -0.471 A  
HETATM   14  C   UNL     1     -11.568   8.551  71.287  1.00  0.00    -0.332 A  
HETATM   15  C   UNL     1     -11.220   7.777  70.177  1.00  0.00    -0.168 A  
HETATM   16  C   UNL     1     -10.732   6.457  70.315  1.00  0.00    -0.322 A  
ENDBRANCH   1   7
TORSDOF 2
ENDMDL
MODEL      145
REMARK 921   NORMALIZED FREE ENERGY PREDICTED BY IDOCK:   -3.53 KCAL/MOL
REMARK 922        TOTAL FREE ENERGY PREDICTED BY IDOCK:   -4.23 KCAL/MOL
REMARK 923 INTER-LIGAND FREE ENERGY PREDICTED BY IDOCK:   -3.93 KCAL/MOL
REMARK 924 INTRA-LIGAND FREE ENERGY PREDICTED BY IDOCK:   -0.30 KCAL/MOL
REMARK 927      BINDING AFFINITY PREDICTED BY RF-SCORE:    0.00 PKD
ROOT
HETATM    1  C   UNL     1      -8.551  12.646  67.207  1.00  0.00    -0.196 C  
ENDROOT
BRANCH   1   2
HETATM    2  C   UNL     1      -9.626  13.663  66.908  1.00  0.00    -0.262 C  
HETATM    3  N   UNL     1      -9.378  14.850  66.257  1.00  0.00    -0.300 NA 
HETATM    4  C   UNL     1     -10.532  15.693  66.465  1.00  0.00    -0.302 C  
HETATM    5  N   UNL     1     -10.873  13.436  67.246  1.00  0.00    -0.266 NA 
HETATM    6  C   UNL     1     -11.603  14.635  66.741  1.00  0.00    -0.360 C  
ENDBRANCH   1   2
BRANCH   1   7
HETATM    7  C   UNL     1      -8.911  11.216  66.849  1.00  0.00    -0.157 A  
HETATM    8  C   UNL     1      -8.808  10.837  65.498  1.00  0.00    -0.203 A  
HETATM    9  C   UNL     1      -9.652   8.643  66.018  1.00  0.00    -0.265 A  
HETATM   10  C   UNL     1      -9.730   8.973  67.378  1.00  0.00    -0.217 A  
HETATM   11  C   UNL     1      -9.181   9.562  65.085  1.00  0.00    -0.305 A  
HETATM   12  C   UNL     1     -10.186   8.021  68.306  1.00  0.00    -0.243 A  
HETATM   13  C   UNL     1     -10.258   8.321  69.664  1.00  0.00    -0.209 A  
HETATM   14  C   UNL     1      -9.875   9.578  70.113  1.00  0.00    -0.288 A  
HETATM   15  C   UNL     1      -9.429  10.539  69.202  1.00  0.00    -0.205 A  
HETATM   16  C   UNL     1      -9.347  10.268  67.817  1.00  0.00    -0.156 A  
ENDBRANCH   1   7
TORSDOF 2
ENDMDL
MODEL      146
REMARK 921   NORMALIZED FREE ENERGY PREDICTED BY IDOCK:   -3.53 KCAL/MOL
REMARK 922        TOTAL FREE ENERGY PREDICTED BY IDOCK:   -4.23 KCAL/MOL
REMARK 923 INTER-LIGAND FREE ENERGY PREDICTED BY IDOCK:   -4.06 KCAL/MOL
REMARK 924 INTRA-LIGAND FREE ENERGY PREDICTED BY IDOCK:   -0.17 KCAL/MOL
REMARK 927      BINDING AFFINITY PREDICTED BY RF-SCORE:    0.00 PKD
ROOT
HETATM    1  C   UNL     1     -11.924  14.192  66.814  1.00  0.00    -0.475 C  
ENDROOT
BRANCH   1   2
HETATM    2  C   UNL     1     -12.283  13.677  65.441  1.00  0.00    -0.444 C  
HETATM    3  N   UNL     1     -13.031  12.540  65.235  1.00  0.00    -0.487 NA 
HETATM    4  C   UNL     1     -12.868  12.174  63.847  1.00  0.00    -0.306 C  
HETATM    5  N   UNL     1     -11.902  14.324  64.364  1.00  0.00    -0.433 NA 
HETATM    6  C   UNL     1     -12.488  13.529  63.245  1.00  0.00     0.045 C  
ENDBRANCH   1   2
BRANCH   1   7
HETATM    7  C   UNL     1     -10.473  13.993  67.208  1.00  0.00    -0.268 A  
HETATM    8  C   UNL     1      -9.634  15.122  67.200  1.00  0.00    -0.224 A  
HETATM    9  C   UNL     1      -7.743  13.760  67.802  1.00  0.00    -0.172 A  
HETATM   10  C   UNL     1      -8.556  12.621  67.858  1.00  0.00    -0.181 A  
HETATM   11  C   UNL     1      -8.279  15.006  67.490  1.00  0.00    -0.199 A  
HETATM   12  C   UNL     1      -7.998  11.376  68.200  1.00  0.00    -0.133 A  
HETATM   13  C   UNL     1      -8.788  10.233  68.277  1.00  0.00    -0.126 A  
HETATM   14  C   UNL     1     -10.148  10.317  68.013  1.00  0.00    -0.189 A  
HETATM   15  C   UNL     1     -10.718  11.544  67.662  1.00  0.00    -0.255 A  
HETATM   16  C   UNL     1      -9.943  12.723  67.573  1.00  0.00    -0.210 A  
ENDBRANCH   1   7
TORSDOF 2
ENDMDL
MODEL      147
REMARK 921   NORMALIZED FREE ENERGY PREDICTED BY IDOCK:   -3.52 KCAL/MOL
REMARK 922        TOTAL FREE ENERGY PREDICTED BY IDOCK:   -4.22 KCAL/MOL
REMARK 923 INTER-LIGAND FREE ENERGY PREDICTED BY IDOCK:   -3.97 KCAL/MOL
REMARK 924 INTRA-LIGAND FREE ENERGY PREDICTED BY IDOCK:   -0.24 KCAL/MOL
REMARK 927      BINDING AFFINITY PREDICTED BY RF-SCORE:    0.00 PKD
ROOT
HETATM    1  C   UNL     1      -9.162  13.309  68.195  1.00  0.00    -0.212 C  
ENDROOT
BRANCH   1   2
HETATM    2  C   UNL     1      -7.673  13.096  68.065  1.00  0.00    -0.146 C  
HETATM    3  N   UNL     1      -6.748  13.749  68.849  1.00  0.00    -0.102 NA 
HETATM    4  C   UNL     1      -5.461  13.573  68.217  1.00  0.00    -0.101 C  
HETATM    5  N   UNL     1      -7.193  12.241  67.193  1.00  0.00    -0.131 NA 
HETATM    6  C   UNL     1      -5.718  12.295  67.415  1.00  0.00    -0.139 C  
ENDBRANCH   1   2
BRANCH   1   7
HETATM    7  C   UNL     1      -9.781  14.153  67.097  1.00  0.00    -0.248 A  
HETATM    8  C   UNL     1     -10.149  13.504  65.904  1.00  0.00    -0.311 A  
HETATM    9  C   UNL     1     -10.830  15.601  64.937  1.00  0.00    -0.438 A  
HETATM   10  C   UNL     1     -10.511  16.275  66.123  1.00  0.00    -0.330 A  
HETATM   11  C   UNL     1     -10.664  14.223  64.831  1.00  0.00    -0.448 A  
HETATM   12  C   UNL     1     -10.710  17.663  66.217  1.00  0.00    -0.096 A  
HETATM   13  C   UNL     1     -10.415  18.352  67.390  1.00  0.00    -0.443 A  
HETATM   14  C   UNL     1      -9.918  17.662  68.488  1.00  0.00    -0.368 A  
HETATM   15  C   UNL     1      -9.705  16.284  68.409  1.00  0.00    -0.222 A  
HETATM   16  C   UNL     1      -9.991  15.554  67.232  1.00  0.00    -0.238 A  
ENDBRANCH   1   7
TORSDOF 2
ENDMDL
MODEL      148
REMARK 921   NORMALIZED FREE ENERGY PREDICTED BY IDOCK:   -3.52 KCAL/MOL
REMARK 922        TOTAL FREE ENERGY PREDICTED BY IDOCK:   -4.22 KCAL/MOL
REMARK 923 INTER-LIGAND FREE ENERGY PREDICTED BY IDOCK:   -3.93 KCAL/MOL
REMARK 924 INTRA-LIGAND FREE ENERGY PREDICTED BY IDOCK:   -0.29 KCAL/MOL
REMARK 927      BINDING AFFINITY PREDICTED BY RF-SCORE:    0.00 PKD
ROOT
HETATM    1  C   UNL     1     -10.772   9.032  71.745  1.00  0.00    -0.437 C  
ENDROOT
BRANCH   1   2
HETATM    2  C   UNL     1     -12.219   8.601  71.744  1.00  0.00    -0.343 C  
HETATM    3  N   UNL     1     -13.252   9.433  72.112  1.00  0.00    -0.435 NA 
HETATM    4  C   UNL     1     -14.410   8.597  72.326  1.00  0.00    -0.396 C  
HETATM    5  N   UNL     1     -12.556   7.393  71.360  1.00  0.00    -0.361 NA 
HETATM    6  C   UNL     1     -14.045   7.390  71.459  1.00  0.00    -0.409 C  
ENDBRANCH   1   2
BRANCH   1   7
HETATM    7  C   UNL     1      -9.787   7.950  72.148  1.00  0.00    -0.264 A  
HETATM    8  C   UNL     1      -9.703   7.621  73.514  1.00  0.00    -0.358 A  
HETATM    9  C   UNL     1      -7.933   6.054  73.058  1.00  0.00    -0.109 A  
HETATM   10  C   UNL     1      -8.016   6.328  71.687  1.00  0.00    -0.102 A  
HETATM   11  C   UNL     1      -8.780   6.684  73.965  1.00  0.00    -0.167 A  
HETATM   12  C   UNL     1      -7.168   5.663  70.785  1.00  0.00    -0.079 A  
HETATM   13  C   UNL     1      -7.242   5.907  69.416  1.00  0.00    -0.067 A  
HETATM   14  C   UNL     1      -8.165   6.821  68.929  1.00  0.00    -0.121 A  
HETATM   15  C   UNL     1      -9.010   7.500  69.812  1.00  0.00    -0.141 A  
HETATM   16  C   UNL     1      -8.959   7.277  71.208  1.00  0.00    -0.139 A  
ENDBRANCH   1   7
TORSDOF 2
ENDMDL
MODEL      149
REMARK 921   NORMALIZED FREE ENERGY PREDICTED BY IDOCK:   -3.50 KCAL/MOL
REMARK 922        TOTAL FREE ENERGY PREDICTED BY IDOCK:   -4.20 KCAL/MOL
REMARK 923 INTER-LIGAND FREE ENERGY PREDICTED BY IDOCK:   -3.87 KCAL/MOL
REMARK 924 INTRA-LIGAND FREE ENERGY PREDICTED BY IDOCK:   -0.33 KCAL/MOL
REMARK 927      BINDING AFFINITY PREDICTED BY RF-SCORE:    0.00 PKD
ROOT
HETATM    1  C   UNL     1     -10.760   5.945  66.844  1.00  0.00    -0.395 C  
ENDROOT
BRANCH   1   2
HETATM    2  C   UNL     1      -9.453   5.305  66.444  1.00  0.00    -0.153 C  
HETATM    3  N   UNL     1      -9.302   3.948  66.269  1.00  0.00    -0.167 NA 
HETATM    4  C   UNL     1      -7.882   3.682  66.246  1.00  0.00    -0.089 C  
HETATM    5  N   UNL     1      -8.389   6.040  66.221  1.00  0.00    -0.118 NA 
HETATM    6  C   UNL     1      -7.349   5.050  65.814  1.00  0.00    -0.077 C  
ENDBRANCH   1   2
BRANCH   1   7
HETATM    7  C   UNL     1     -10.757   6.592  68.216  1.00  0.00    -0.341 A  
HETATM    8  C   UNL     1     -10.885   5.748  69.335  1.00  0.00    -0.393 A  
HETATM    9  C   UNL     1     -10.885   7.651  70.808  1.00  0.00    -0.246 A  
HETATM   10  C   UNL     1     -10.719   8.519  69.721  1.00  0.00    -0.213 A  
HETATM   11  C   UNL     1     -10.953   6.274  70.620  1.00  0.00    -0.370 A  
HETATM   12  C   UNL     1     -10.628   9.905  69.936  1.00  0.00    -0.312 A  
HETATM   13  C   UNL     1     -10.448  10.786  68.873  1.00  0.00    -0.228 A  
HETATM   14  C   UNL     1     -10.355  10.293  67.579  1.00  0.00    -0.276 A  
HETATM   15  C   UNL     1     -10.454   8.919  67.346  1.00  0.00    -0.347 A  
HETATM   16  C   UNL     1     -10.640   7.998  68.402  1.00  0.00    -0.150 A  
ENDBRANCH   1   7
TORSDOF 2
ENDMDL
MODEL      150
REMARK 921   NORMALIZED FREE ENERGY PREDICTED BY IDOCK:   -3.50 KCAL/MOL
REMARK 922        TOTAL FREE ENERGY PREDICTED BY IDOCK:   -4.20 KCAL/MOL
REMARK 923 INTER-LIGAND FREE ENERGY PREDICTED BY IDOCK:   -4.03 KCAL/MOL
REMARK 924 INTRA-LIGAND FREE ENERGY PREDICTED BY IDOCK:   -0.17 KCAL/MOL
REMARK 927      BINDING AFFINITY PREDICTED BY RF-SCORE:    0.00 PKD
ROOT
HETATM    1  C   UNL     1     -10.239  16.799  67.082  1.00  0.00    -0.295 C  
ENDROOT
BRANCH   1   2
HETATM    2  C   UNL     1     -10.057  18.251  67.454  1.00  0.00    -0.352 C  
HETATM    3  N   UNL     1      -9.950  18.686  68.755  1.00  0.00    -0.387 NA 
HETATM    4  C   UNL     1     -10.144  20.117  68.737  1.00  0.00    -0.215 C  
HETATM    5  N   UNL     1      -9.969  19.173  66.524  1.00  0.00    -0.356 NA 
HETATM    6  C   UNL     1      -9.751  20.434  67.292  1.00  0.00    -0.461 C  
ENDBRANCH   1   2
BRANCH   1   7
HETATM    7  C   UNL     1      -9.020  15.926  67.311  1.00  0.00    -0.209 A  
HETATM    8  C   UNL     1      -7.754  16.528  67.186  1.00  0.00    -0.214 A  
HETATM    9  C   UNL     1      -6.675  14.415  67.593  1.00  0.00    -0.188 A  
HETATM   10  C   UNL     1      -7.918  13.790  67.763  1.00  0.00    -0.170 A  
HETATM   11  C   UNL     1      -6.592  15.777  67.321  1.00  0.00    -0.169 A  
HETATM   12  C   UNL     1      -7.978  12.418  68.062  1.00  0.00    -0.155 A  
HETATM   13  C   UNL     1      -9.201  11.778  68.251  1.00  0.00    -0.188 A  
HETATM   14  C   UNL     1     -10.380  12.502  68.143  1.00  0.00    -0.236 A  
HETATM   15  C   UNL     1     -10.339  13.865  67.837  1.00  0.00    -0.240 A  
HETATM   16  C   UNL     1      -9.115  14.544  67.636  1.00  0.00    -0.195 A  
ENDBRANCH   1   7
TORSDOF 2
ENDMDL
MODEL      151
REMARK 921   NORMALIZED FREE ENERGY PREDICTED BY IDOCK:   -3.50 KCAL/MOL
REMARK 922        TOTAL FREE ENERGY PREDICTED BY IDOCK:   -4.19 KCAL/MOL
REMARK 923 INTER-LIGAND FREE ENERGY PREDICTED BY IDOCK:   -3.94 KCAL/MOL
REMARK 924 INTRA-LIGAND FREE ENERGY PREDICTED BY IDOCK:   -0.25 KCAL/MOL
REMARK 927      BINDING AFFINITY PREDICTED BY RF-SCORE:    0.00 PKD
ROOT
HETATM    1  C   UNL     1     -11.228  12.739  67.085  1.00  0.00    -0.336 C  
ENDROOT
BRANCH   1   2
HETATM    2  C   UNL     1     -11.645  13.256  65.730  1.00  0.00    -0.337 C  
HETATM    3  N   UNL     1     -11.467  14.563  65.335  1.00  0.00    -0.340 NA 
HETATM    4  C   UNL     1     -12.285  14.763  64.162  1.00  0.00    -0.295 C  
HETATM    5  N   UNL     1     -12.185  12.451  64.845  1.00  0.00    -0.439 NA 
HETATM    6  C   UNL     1     -12.400  13.324  63.654  1.00  0.00    -0.382 C  
ENDBRANCH   1   2
BRANCH   1   7
HETATM    7  C   UNL     1      -9.775  12.317  67.186  1.00  0.00    -0.203 A  
HETATM    8  C   UNL     1      -8.853  13.263  67.672  1.00  0.00    -0.200 A  
HETATM    9  C   UNL     1      -7.038  11.721  67.319  1.00  0.00    -0.140 A  
HETATM   10  C   UNL     1      -7.931  10.741  66.866  1.00  0.00    -0.133 A  
HETATM   11  C   UNL     1      -7.496  12.969  67.734  1.00  0.00    -0.146 A  
HETATM   12  C   UNL     1      -7.451   9.480  66.476  1.00  0.00    -0.093 A  
HETATM   13  C   UNL     1      -8.320   8.485  66.037  1.00  0.00    -0.133 A  
HETATM   14  C   UNL     1      -9.684   8.738  65.982  1.00  0.00    -0.276 A  
HETATM   15  C   UNL     1     -10.178   9.990  66.357  1.00  0.00    -0.290 A  
HETATM   16  C   UNL     1      -9.322  11.023  66.805  1.00  0.00    -0.199 A  
ENDBRANCH   1   7
TORSDOF 2
ENDMDL
MODEL      152
REMARK 921   NORMALIZED FREE ENERGY PREDICTED BY IDOCK:   -3.49 KCAL/MOL
REMARK 922        TOTAL FREE ENERGY PREDICTED BY IDOCK:   -4.18 KCAL/MOL
REMARK 923 INTER-LIGAND FREE ENERGY PREDICTED BY IDOCK:   -3.95 KCAL/MOL
REMARK 924 INTRA-LIGAND FREE ENERGY PREDICTED BY IDOCK:   -0.24 KCAL/MOL
REMARK 927      BINDING AFFINITY PREDICTED BY RF-SCORE:    0.00 PKD
ROOT
HETATM    1  C   UNL     1      -9.419  14.739  66.132  1.00  0.00    -0.324 C  
ENDROOT
BRANCH   1   2
HETATM    2  C   UNL     1      -9.827  16.010  66.837  1.00  0.00    -0.245 C  
HETATM    3  N   UNL     1      -9.742  16.174  68.202  1.00  0.00    -0.220 NA 
HETATM    4  C   UNL     1     -10.530  17.337  68.536  1.00  0.00    -0.375 C  
HETATM    5  N   UNL     1     -10.269  17.040  66.156  1.00  0.00    -0.337 NA 
HETATM    6  C   UNL     1     -10.510  18.080  67.198  1.00  0.00    -0.367 C  
ENDBRANCH   1   2
BRANCH   1   7
HETATM    7  C   UNL     1      -8.897  13.645  67.044  1.00  0.00    -0.233 A  
HETATM    8  C   UNL     1      -7.525  13.656  67.358  1.00  0.00    -0.139 A  
HETATM    9  C   UNL     1      -7.766  11.623  68.624  1.00  0.00    -0.134 A  
HETATM   10  C   UNL     1      -9.143  11.601  68.365  1.00  0.00    -0.180 A  
HETATM   11  C   UNL     1      -6.964  12.651  68.137  1.00  0.00    -0.096 A  
HETATM   12  C   UNL     1      -9.939  10.567  68.886  1.00  0.00    -0.213 A  
HETATM   13  C   UNL     1     -11.312  10.531  68.655  1.00  0.00    -0.315 A  
HETATM   14  C   UNL     1     -11.908  11.531  67.898  1.00  0.00    -0.255 A  
HETATM   15  C   UNL     1     -11.130  12.561  67.363  1.00  0.00    -0.317 A  
HETATM   16  C   UNL     1      -9.734  12.625  67.577  1.00  0.00    -0.196 A  
ENDBRANCH   1   7
TORSDOF 2
ENDMDL
MODEL      153
REMARK 921   NORMALIZED FREE ENERGY PREDICTED BY IDOCK:   -3.48 KCAL/MOL
REMARK 922        TOTAL FREE ENERGY PREDICTED BY IDOCK:   -4.18 KCAL/MOL
REMARK 923 INTER-LIGAND FREE ENERGY PREDICTED BY IDOCK:   -3.88 KCAL/MOL
REMARK 924 INTRA-LIGAND FREE ENERGY PREDICTED BY IDOCK:   -0.29 KCAL/MOL
REMARK 927      BINDING AFFINITY PREDICTED BY RF-SCORE:    0.00 PKD
ROOT
HETATM    1  C   UNL     1      -9.167   8.522  69.693  1.00  0.00    -0.157 C  
ENDROOT
BRANCH   1   2
HETATM    2  C   UNL     1      -7.854   8.808  70.381  1.00  0.00    -0.098 C  
HETATM    3  N   UNL     1      -7.321   7.992  71.354  1.00  0.00    -0.065 NA 
HETATM    4  C   UNL     1      -6.280   8.747  72.012  1.00  0.00    -0.075 C  
HETATM    5  N   UNL     1      -7.143   9.860  70.054  1.00  0.00    -0.110 NA 
HETATM    6  C   UNL     1      -5.927   9.752  70.913  1.00  0.00    -0.089 C  
ENDBRANCH   1   2
BRANCH   1   7
HETATM    7  C   UNL     1     -10.249   9.557  69.933  1.00  0.00    -0.261 A  
HETATM    8  C   UNL     1     -11.014   9.440  71.108  1.00  0.00    -0.430 A  
HETATM    9  C   UNL     1     -12.360  11.327  70.456  1.00  0.00    -0.446 A  
HETATM   10  C   UNL     1     -11.594  11.498  69.295  1.00  0.00    -0.388 A  
HETATM   11  C   UNL     1     -12.064  10.314  71.364  1.00  0.00    -0.457 A  
HETATM   12  C   UNL     1     -11.894  12.542  68.403  1.00  0.00    -0.353 A  
HETATM   13  C   UNL     1     -11.139  12.741  67.251  1.00  0.00    -0.314 A  
HETATM   14  C   UNL     1     -10.071  11.898  66.974  1.00  0.00    -0.226 A  
HETATM   15  C   UNL     1      -9.764  10.849  67.845  1.00  0.00    -0.178 A  
HETATM   16  C   UNL     1     -10.513  10.618  69.021  1.00  0.00    -0.237 A  
ENDBRANCH   1   7
TORSDOF 2
ENDMDL
MODEL      154
REMARK 921   NORMALIZED FREE ENERGY PREDICTED BY IDOCK:   -3.47 KCAL/MOL
REMARK 922        TOTAL FREE ENERGY PREDICTED BY IDOCK:   -4.16 KCAL/MOL
REMARK 923 INTER-LIGAND FREE ENERGY PREDICTED BY IDOCK:   -3.99 KCAL/MOL
REMARK 924 INTRA-LIGAND FREE ENERGY PREDICTED BY IDOCK:   -0.17 KCAL/MOL
REMARK 927      BINDING AFFINITY PREDICTED BY RF-SCORE:    0.00 PKD
ROOT
HETATM    1  C   UNL     1     -11.746   6.480  70.500  1.00  0.00    -0.438 C  
ENDROOT
BRANCH   1   2
HETATM    2  C   UNL     1     -11.153   7.863  70.616  1.00  0.00    -0.259 C  
HETATM    3  N   UNL     1     -11.830   8.928  71.166  1.00  0.00    -0.291 NA 
HETATM    4  C   UNL     1     -11.112  10.123  70.789  1.00  0.00    -0.298 C  
HETATM    5  N   UNL     1      -9.930   8.103  70.206  1.00  0.00    -0.188 NA 
HETATM    6  C   UNL     1      -9.719   9.543  70.535  1.00  0.00    -0.263 C  
ENDBRANCH   1   2
BRANCH   1   7
HETATM    7  C   UNL     1     -10.759   5.346  70.705  1.00  0.00    -0.252 A  
HETATM    8  C   UNL     1     -10.155   4.792  69.561  1.00  0.00    -0.260 A  
HETATM    9  C   UNL     1      -9.003   3.171  70.916  1.00  0.00    -0.164 A  
HETATM   10  C   UNL     1      -9.555   3.721  72.080  1.00  0.00    -0.212 A  
HETATM   11  C   UNL     1      -9.289   3.710  69.665  1.00  0.00    -0.243 A  
HETATM   12  C   UNL     1      -9.233   3.176  73.335  1.00  0.00    -0.100 A  
HETATM   13  C   UNL     1      -9.757   3.716  74.507  1.00  0.00    -0.160 A  
HETATM   14  C   UNL     1     -10.610   4.809  74.441  1.00  0.00    -0.283 A  
HETATM   15  C   UNL     1     -10.948   5.357  73.201  1.00  0.00    -0.353 A  
HETATM   16  C   UNL     1     -10.436   4.832  71.992  1.00  0.00    -0.225 A  
ENDBRANCH   1   7
TORSDOF 2
ENDMDL
MODEL      155
REMARK 921   NORMALIZED FREE ENERGY PREDICTED BY IDOCK:   -3.45 KCAL/MOL
REMARK 922        TOTAL FREE ENERGY PREDICTED BY IDOCK:   -4.15 KCAL/MOL
REMARK 923 INTER-LIGAND FREE ENERGY PREDICTED BY IDOCK:   -3.86 KCAL/MOL
REMARK 924 INTRA-LIGAND FREE ENERGY PREDICTED BY IDOCK:   -0.28 KCAL/MOL
REMARK 927      BINDING AFFINITY PREDICTED BY RF-SCORE:    0.00 PKD
ROOT
HETATM    1  C   UNL     1     -10.114   9.190  69.339  1.00  0.00    -0.198 C  
ENDROOT
BRANCH   1   2
HETATM    2  C   UNL     1     -10.379   8.648  70.723  1.00  0.00    -0.204 C  
HETATM    3  N   UNL     1     -11.475   7.873  71.031  1.00  0.00    -0.278 NA 
HETATM    4  C   UNL     1     -11.581   7.847  72.471  1.00  0.00    -0.386 C  
HETATM    5  N   UNL     1      -9.542   8.883  71.705  1.00  0.00    -0.295 NA 
HETATM    6  C   UNL     1     -10.132   8.149  72.862  1.00  0.00    -0.278 C  
ENDBRANCH   1   2
BRANCH   1   7
HETATM    7  C   UNL     1     -10.345  10.681  69.185  1.00  0.00    -0.242 A  
HETATM    8  C   UNL     1     -11.579  11.198  69.622  1.00  0.00    -0.398 A  
HETATM    9  C   UNL     1     -10.962  13.397  68.861  1.00  0.00    -0.284 A  
HETATM   10  C   UNL     1      -9.708  12.925  68.450  1.00  0.00    -0.186 A  
HETATM   11  C   UNL     1     -11.887  12.544  69.456  1.00  0.00    -0.375 A  
HETATM   12  C   UNL     1      -8.780  13.809  67.873  1.00  0.00    -0.183 A  
HETATM   13  C   UNL     1      -7.523  13.366  67.471  1.00  0.00    -0.170 A  
HETATM   14  C   UNL     1      -7.176  12.033  67.640  1.00  0.00    -0.117 A  
HETATM   15  C   UNL     1      -8.090  11.139  68.202  1.00  0.00    -0.128 A  
HETATM   16  C   UNL     1      -9.375  11.554  68.619  1.00  0.00    -0.142 A  
ENDBRANCH   1   7
TORSDOF 2
ENDMDL
MODEL      156
REMARK 921   NORMALIZED FREE ENERGY PREDICTED BY IDOCK:   -3.42 KCAL/MOL
REMARK 922        TOTAL FREE ENERGY PREDICTED BY IDOCK:   -4.11 KCAL/MOL
REMARK 923 INTER-LIGAND FREE ENERGY PREDICTED BY IDOCK:   -3.80 KCAL/MOL
REMARK 924 INTRA-LIGAND FREE ENERGY PREDICTED BY IDOCK:   -0.31 KCAL/MOL
REMARK 927      BINDING AFFINITY PREDICTED BY RF-SCORE:    0.00 PKD
ROOT
HETATM    1  C   UNL     1      -9.069  12.412  67.017  1.00  0.00    -0.207 C  
ENDROOT
BRANCH   1   2
HETATM    2  C   UNL     1      -7.649  12.234  67.495  1.00  0.00    -0.155 C  
HETATM    3  N   UNL     1      -7.147  12.859  68.614  1.00  0.00    -0.100 NA 
HETATM    4  C   UNL     1      -5.709  12.741  68.553  1.00  0.00    -0.061 C  
HETATM    5  N   UNL     1      -6.824  11.438  66.857  1.00  0.00    -0.135 NA 
HETATM    6  C   UNL     1      -5.569  11.506  67.661  1.00  0.00    -0.054 C  
ENDBRANCH   1   2
BRANCH   1   7
HETATM    7  C   UNL     1     -10.121  12.344  68.108  1.00  0.00    -0.224 A  
HETATM    8  C   UNL     1     -10.533  11.068  68.537  1.00  0.00    -0.210 A  
HETATM    9  C   UNL     1     -12.138  12.057  70.034  1.00  0.00    -0.355 A  
HETATM   10  C   UNL     1     -11.726  13.343  69.659  1.00  0.00    -0.375 A  
HETATM   11  C   UNL     1     -11.536  10.926  69.489  1.00  0.00    -0.384 A  
HETATM   12  C   UNL     1     -12.331  14.471  70.240  1.00  0.00    -0.408 A  
HETATM   13  C   UNL     1     -11.928  15.758  69.895  1.00  0.00    -0.346 A  
HETATM   14  C   UNL     1     -10.915  15.936  68.963  1.00  0.00    -0.277 A  
HETATM   15  C   UNL     1     -10.310  14.825  68.368  1.00  0.00    -0.233 A  
HETATM   16  C   UNL     1     -10.697  13.505  68.694  1.00  0.00    -0.271 A  
ENDBRANCH   1   7
TORSDOF 2
ENDMDL
MODEL      157
REMARK 921   NORMALIZED FREE ENERGY PREDICTED BY IDOCK:   -3.41 KCAL/MOL
REMARK 922        TOTAL FREE ENERGY PREDICTED BY IDOCK:   -4.10 KCAL/MOL
REMARK 923 INTER-LIGAND FREE ENERGY PREDICTED BY IDOCK:   -3.82 KCAL/MOL
REMARK 924 INTRA-LIGAND FREE ENERGY PREDICTED BY IDOCK:   -0.27 KCAL/MOL
REMARK 927      BINDING AFFINITY PREDICTED BY RF-SCORE:    0.00 PKD
ROOT
HETATM    1  C   UNL     1     -10.671   5.938  69.273  1.00  0.00    -0.401 C  
ENDROOT
BRANCH   1   2
HETATM    2  C   UNL     1      -9.319   5.358  69.611  1.00  0.00    -0.135 C  
HETATM    3  N   UNL     1      -8.196   6.130  69.804  1.00  0.00    -0.121 NA 
HETATM    4  C   UNL     1      -7.060   5.240  69.752  1.00  0.00    -0.059 C  
HETATM    5  N   UNL     1      -9.165   4.063  69.758  1.00  0.00    -0.124 NA 
HETATM    6  C   UNL     1      -7.727   3.914  70.125  1.00  0.00    -0.048 C  
ENDBRANCH   1   2
BRANCH   1   7
HETATM    7  C   UNL     1     -10.826   7.414  69.587  1.00  0.00    -0.222 A  
HETATM    8  C   UNL     1     -11.204   7.766  70.896  1.00  0.00    -0.284 A  
HETATM    9  C   UNL     1     -11.264  10.093  70.286  1.00  0.00    -0.387 A  
HETATM   10  C   UNL     1     -10.851   9.784  68.983  1.00  0.00    -0.223 A  
HETATM   11  C   UNL     1     -11.426   9.094  71.241  1.00  0.00    -0.405 A  
HETATM   12  C   UNL     1     -10.670  10.811  68.041  1.00  0.00    -0.270 A  
HETATM   13  C   UNL     1     -10.245  10.529  66.746  1.00  0.00    -0.288 A  
HETATM   14  C   UNL     1      -9.996   9.216  66.373  1.00  0.00    -0.358 A  
HETATM   15  C   UNL     1     -10.180   8.181  67.294  1.00  0.00    -0.348 A  
HETATM   16  C   UNL     1     -10.613   8.432  68.616  1.00  0.00    -0.149 A  
ENDBRANCH   1   7
TORSDOF 2
ENDMDL
MODEL      158
REMARK 921   NORMALIZED FREE ENERGY PREDICTED BY IDOCK:   -3.40 KCAL/MOL
REMARK 922        TOTAL FREE ENERGY PREDICTED BY IDOCK:   -4.09 KCAL/MOL
REMARK 923 INTER-LIGAND FREE ENERGY PREDICTED BY IDOCK:   -4.01 KCAL/MOL
REMARK 924 INTRA-LIGAND FREE ENERGY PREDICTED BY IDOCK:   -0.08 KCAL/MOL
REMARK 927      BINDING AFFINITY PREDICTED BY RF-SCORE:    0.00 PKD
ROOT
HETATM    1  C   UNL     1      -9.984  11.676  67.039  1.00  0.00    -0.226 C  
ENDROOT
BRANCH   1   2
HETATM    2  C   UNL     1     -10.825  11.921  65.810  1.00  0.00    -0.295 C  
HETATM    3  N   UNL     1     -10.338  11.801  64.528  1.00  0.00    -0.277 NA 
HETATM    4  C   UNL     1     -11.292  12.441  63.653  1.00  0.00    -0.482 C  
HETATM    5  N   UNL     1     -12.092  12.244  65.920  1.00  0.00    -0.620 NA 
HETATM    6  C   UNL     1     -12.559  12.347  64.507  1.00  0.00    -0.391 C  
ENDBRANCH   1   2
BRANCH   1   7
HETATM    7  C   UNL     1      -9.827  10.216  67.421  1.00  0.00    -0.225 A  
HETATM    8  C   UNL     1     -10.611   9.273  66.731  1.00  0.00    -0.207 A  
HETATM    9  C   UNL     1      -9.731   7.496  68.096  1.00  0.00    -0.167 A  
HETATM   10  C   UNL     1      -8.908   8.401  68.779  1.00  0.00    -0.140 A  
HETATM   11  C   UNL     1     -10.567   7.925  67.069  1.00  0.00    -0.381 A  
HETATM   12  C   UNL     1      -8.054   7.943  69.797  1.00  0.00    -0.116 A  
HETATM   13  C   UNL     1      -7.216   8.820  70.479  1.00  0.00    -0.059 A  
HETATM   14  C   UNL     1      -7.220  10.170  70.153  1.00  0.00    -0.162 A  
HETATM   15  C   UNL     1      -8.070  10.644  69.151  1.00  0.00    -0.143 A  
HETATM   16  C   UNL     1      -8.935   9.781  68.441  1.00  0.00    -0.123 A  
ENDBRANCH   1   7
TORSDOF 2
ENDMDL
MODEL      159
REMARK 921   NORMALIZED FREE ENERGY PREDICTED BY IDOCK:   -3.32 KCAL/MOL
REMARK 922        TOTAL FREE ENERGY PREDICTED BY IDOCK:   -3.99 KCAL/MOL
REMARK 923 INTER-LIGAND FREE ENERGY PREDICTED BY IDOCK:   -3.77 KCAL/MOL
REMARK 924 INTRA-LIGAND FREE ENERGY PREDICTED BY IDOCK:   -0.23 KCAL/MOL
REMARK 927      BINDING AFFINITY PREDICTED BY RF-SCORE:    0.00 PKD
ROOT
HETATM    1  C   UNL     1      -8.914   9.802  69.719  1.00  0.00    -0.239 C  
ENDROOT
BRANCH   1   2
HETATM    2  C   UNL     1      -9.406   9.971  68.302  1.00  0.00    -0.132 C  
HETATM    3  N   UNL     1     -10.144   9.015  67.642  1.00  0.00    -0.201 NA 
HETATM    4  C   UNL     1     -10.122   9.360  66.240  1.00  0.00    -0.258 C  
HETATM    5  N   UNL     1      -9.160  11.075  67.637  1.00  0.00    -0.144 NA 
HETATM    6  C   UNL     1      -9.843  10.862  66.327  1.00  0.00    -0.216 C  
ENDBRANCH   1   2
BRANCH   1   7
HETATM    7  C   UNL     1      -9.876   9.078  70.643  1.00  0.00    -0.284 A  
HETATM    8  C   UNL     1     -11.130   9.673  70.874  1.00  0.00    -0.422 A  
HETATM    9  C   UNL     1     -11.712   7.918  72.416  1.00  0.00    -0.423 A  
HETATM   10  C   UNL     1     -10.488   7.278  72.181  1.00  0.00    -0.233 A  
HETATM   11  C   UNL     1     -12.038   9.100  71.757  1.00  0.00    -0.446 A  
HETATM   12  C   UNL     1     -10.188   6.073  72.839  1.00  0.00    -0.207 A  
HETATM   13  C   UNL     1      -8.986   5.410  72.610  1.00  0.00    -0.133 A  
HETATM   14  C   UNL     1      -8.064   5.944  71.719  1.00  0.00    -0.118 A  
HETATM   15  C   UNL     1      -8.341   7.147  71.064  1.00  0.00    -0.124 A  
HETATM   16  C   UNL     1      -9.552   7.846  71.276  1.00  0.00    -0.186 A  
ENDBRANCH   1   7
TORSDOF 2
ENDMDL
MODEL      160
REMARK 921   NORMALIZED FREE ENERGY PREDICTED BY IDOCK:   -3.27 KCAL/MOL
REMARK 922        TOTAL FREE ENERGY PREDICTED BY IDOCK:   -3.94 KCAL/MOL
REMARK 923 INTER-LIGAND FREE ENERGY PREDICTED BY IDOCK:   -3.62 KCAL/MOL
REMARK 924 INTRA-LIGAND FREE ENERGY PREDICTED BY IDOCK:   -0.32 KCAL/MOL
REMARK 927      BINDING AFFINITY PREDICTED BY RF-SCORE:    0.00 PKD
ROOT
HETATM    1  C   UNL     1      -7.829  11.220  66.971  1.00  0.00    -0.150 C  
ENDROOT
BRANCH   1   2
HETATM    2  C   UNL     1      -7.732   9.812  66.437  1.00  0.00    -0.102 C  
HETATM    3  N   UNL     1      -8.640   9.279  65.551  1.00  0.00    -0.142 NA 
HETATM    4  C   UNL     1      -8.436   7.849  65.547  1.00  0.00    -0.139 C  
HETATM    5  N   UNL     1      -6.739   9.030  66.790  1.00  0.00    -0.075 NA 
HETATM    6  C   UNL     1      -6.983   7.774  66.022  1.00  0.00    -0.061 C  
ENDBRANCH   1   2
BRANCH   1   7
HETATM    7  C   UNL     1      -9.180  11.587  67.555  1.00  0.00    -0.166 A  
HETATM    8  C   UNL     1      -9.554  10.976  68.767  1.00  0.00    -0.194 A  
HETATM    9  C   UNL     1     -11.694  12.076  68.696  1.00  0.00    -0.380 A  
HETATM   10  C   UNL     1     -11.341  12.732  67.510  1.00  0.00    -0.361 A  
HETATM   11  C   UNL     1     -10.803  11.215  69.330  1.00  0.00    -0.277 A  
HETATM   12  C   UNL     1     -12.247  13.617  66.900  1.00  0.00    -0.398 A  
HETATM   13  C   UNL     1     -11.912  14.292  65.729  1.00  0.00    -0.399 A  
HETATM   14  C   UNL     1     -10.666  14.092  65.151  1.00  0.00    -0.393 A  
HETATM   15  C   UNL     1      -9.757  13.208  65.738  1.00  0.00    -0.151 A  
HETATM   16  C   UNL     1     -10.066  12.505  66.926  1.00  0.00    -0.232 A  
ENDBRANCH   1   7
TORSDOF 2
ENDMDL
MODEL      161
REMARK 921   NORMALIZED FREE ENERGY PREDICTED BY IDOCK:   -3.25 KCAL/MOL
REMARK 922        TOTAL FREE ENERGY PREDICTED BY IDOCK:   -3.92 KCAL/MOL
REMARK 923 INTER-LIGAND FREE ENERGY PREDICTED BY IDOCK:   -3.64 KCAL/MOL
REMARK 924 INTRA-LIGAND FREE ENERGY PREDICTED BY IDOCK:   -0.28 KCAL/MOL
REMARK 927      BINDING AFFINITY PREDICTED BY RF-SCORE:    0.00 PKD
ROOT
HETATM    1  C   UNL     1      -8.746  12.206  68.068  1.00  0.00    -0.180 C  
ENDROOT
BRANCH   1   2
HETATM    2  C   UNL     1      -9.193  11.156  67.079  1.00  0.00    -0.163 C  
HETATM    3  N   UNL     1      -9.178  11.351  65.716  1.00  0.00    -0.216 NA 
HETATM    4  C   UNL     1      -9.985  10.305  65.133  1.00  0.00    -0.325 C  
HETATM    5  N   UNL     1      -9.601   9.980  67.492  1.00  0.00    -0.151 NA 
HETATM    6  C   UNL     1      -9.898   9.241  66.230  1.00  0.00    -0.291 C  
ENDBRANCH   1   2
BRANCH   1   7
HETATM    7  C   UNL     1      -9.591  13.465  68.082  1.00  0.00    -0.222 A  
HETATM    8  C   UNL     1     -10.988  13.313  68.158  1.00  0.00    -0.278 A  
HETATM    9  C   UNL     1     -11.287  15.696  68.002  1.00  0.00    -0.324 A  
HETATM   10  C   UNL     1      -9.900  15.889  67.965  1.00  0.00    -0.218 A  
HETATM   11  C   UNL     1     -11.829  14.419  68.113  1.00  0.00    -0.362 A  
HETATM   12  C   UNL     1      -9.374  17.189  67.878  1.00  0.00    -0.249 A  
HETATM   13  C   UNL     1      -7.999  17.406  67.854  1.00  0.00    -0.218 A  
HETATM   14  C   UNL     1      -7.130  16.326  67.918  1.00  0.00    -0.147 A  
HETATM   15  C   UNL     1      -7.636  15.025  67.994  1.00  0.00    -0.126 A  
HETATM   16  C   UNL     1      -9.026  14.770  68.017  1.00  0.00    -0.174 A  
ENDBRANCH   1   7
TORSDOF 2
ENDMDL
MODEL      162
REMARK 921   NORMALIZED FREE ENERGY PREDICTED BY IDOCK:   -3.23 KCAL/MOL
REMARK 922        TOTAL FREE ENERGY PREDICTED BY IDOCK:   -3.90 KCAL/MOL
REMARK 923 INTER-LIGAND FREE ENERGY PREDICTED BY IDOCK:   -3.64 KCAL/MOL
REMARK 924 INTRA-LIGAND FREE ENERGY PREDICTED BY IDOCK:   -0.25 KCAL/MOL
REMARK 927      BINDING AFFINITY PREDICTED BY RF-SCORE:    0.00 PKD
ROOT
HETATM    1  C   UNL     1     -10.087  12.130  68.096  1.00  0.00    -0.206 C  
ENDROOT
BRANCH   1   2
HETATM    2  C   UNL     1     -10.030  11.353  66.803  1.00  0.00    -0.208 C  
HETATM    3  N   UNL     1      -9.975  11.954  65.565  1.00  0.00    -0.235 NA 
HETATM    4  C   UNL     1     -10.287  10.937  64.589  1.00  0.00    -0.338 C  
HETATM    5  N   UNL     1     -10.009  10.041  66.812  1.00  0.00    -0.200 NA 
HETATM    6  C   UNL     1      -9.905   9.676  65.369  1.00  0.00    -0.252 C  
ENDBRANCH   1   2
BRANCH   1   7
HETATM    7  C   UNL     1      -9.151  13.322  68.163  1.00  0.00    -0.207 A  
HETATM    8  C   UNL     1      -7.770  13.074  68.050  1.00  0.00    -0.145 A  
HETATM    9  C   UNL     1      -7.293  15.409  68.384  1.00  0.00    -0.114 A  
HETATM   10  C   UNL     1      -8.661  15.699  68.463  1.00  0.00    -0.180 A  
HETATM   11  C   UNL     1      -6.849  14.108  68.164  1.00  0.00    -0.129 A  
HETATM   12  C   UNL     1      -9.088  17.023  68.662  1.00  0.00    -0.271 A  
HETATM   13  C   UNL     1     -10.442  17.338  68.728  1.00  0.00    -0.340 A  
HETATM   14  C   UNL     1     -11.390  16.332  68.598  1.00  0.00    -0.333 A  
HETATM   15  C   UNL     1     -10.983  15.009  68.410  1.00  0.00    -0.266 A  
HETATM   16  C   UNL     1      -9.616  14.655  68.341  1.00  0.00    -0.217 A  
ENDBRANCH   1   7
TORSDOF 2
ENDMDL
MODEL      163
REMARK 921   NORMALIZED FREE ENERGY PREDICTED BY IDOCK:   -3.21 KCAL/MOL
REMARK 922        TOTAL FREE ENERGY PREDICTED BY IDOCK:   -3.88 KCAL/MOL
REMARK 923 INTER-LIGAND FREE ENERGY PREDICTED BY IDOCK:   -3.56 KCAL/MOL
REMARK 924 INTRA-LIGAND FREE ENERGY PREDICTED BY IDOCK:   -0.32 KCAL/MOL
REMARK 927      BINDING AFFINITY PREDICTED BY RF-SCORE:    0.00 PKD
ROOT
HETATM    1  C   UNL     1     -10.498   7.843  67.803  1.00  0.00    -0.278 C  
ENDROOT
BRANCH   1   2
HETATM    2  C   UNL     1     -10.763   7.366  69.210  1.00  0.00    -0.185 C  
HETATM    3  N   UNL     1     -11.001   8.220  70.263  1.00  0.00    -0.241 NA 
HETATM    4  C   UNL     1     -10.855   7.448  71.474  1.00  0.00    -0.224 C  
HETATM    5  N   UNL     1     -10.797   6.083  69.485  1.00  0.00    -0.335 NA 
HETATM    6  C   UNL     1     -11.126   6.039  70.940  1.00  0.00    -0.284 C  
ENDBRANCH   1   2
BRANCH   1   7
HETATM    7  C   UNL     1      -9.467   8.950  67.690  1.00  0.00    -0.164 A  
HETATM    8  C   UNL     1      -8.110   8.589  67.787  1.00  0.00    -0.115 A  
HETATM    9  C   UNL     1      -7.453  10.898  67.616  1.00  0.00    -0.095 A  
HETATM   10  C   UNL     1      -8.790  11.290  67.477  1.00  0.00    -0.140 A  
HETATM   11  C   UNL     1      -7.112   9.556  67.755  1.00  0.00    -0.081 A  
HETATM   12  C   UNL     1      -9.110  12.649  67.312  1.00  0.00    -0.191 A  
HETATM   13  C   UNL     1     -10.431  13.061  67.157  1.00  0.00    -0.243 A  
HETATM   14  C   UNL     1     -11.451  12.120  67.164  1.00  0.00    -0.413 A  
HETATM   15  C   UNL     1     -11.152  10.766  67.336  1.00  0.00    -0.363 A  
HETATM   16  C   UNL     1      -9.822  10.314  67.499  1.00  0.00    -0.204 A  
ENDBRANCH   1   7
TORSDOF 2
ENDMDL
MODEL      164
REMARK 921   NORMALIZED FREE ENERGY PREDICTED BY IDOCK:   -3.21 KCAL/MOL
REMARK 922        TOTAL FREE ENERGY PREDICTED BY IDOCK:   -3.87 KCAL/MOL
REMARK 923 INTER-LIGAND FREE ENERGY PREDICTED BY IDOCK:   -3.79 KCAL/MOL
REMARK 924 INTRA-LIGAND FREE ENERGY PREDICTED BY IDOCK:   -0.09 KCAL/MOL
REMARK 927      BINDING AFFINITY PREDICTED BY RF-SCORE:    0.00 PKD
ROOT
HETATM    1  C   UNL     1      -8.098  13.394  67.342  1.00  0.00    -0.178 C  
ENDROOT
BRANCH   1   2
HETATM    2  C   UNL     1      -7.207  12.261  67.788  1.00  0.00    -0.114 C  
HETATM    3  N   UNL     1      -7.326  11.647  69.014  1.00  0.00    -0.101 NA 
HETATM    4  C   UNL     1      -6.118  10.884  69.223  1.00  0.00    -0.047 C  
HETATM    5  N   UNL     1      -6.274  11.792  66.993  1.00  0.00    -0.145 NA 
HETATM    6  C   UNL     1      -5.667  10.675  67.775  1.00  0.00    -0.043 C  
ENDBRANCH   1   2
BRANCH   1   7
HETATM    7  C   UNL     1      -9.335  12.966  66.576  1.00  0.00    -0.224 A  
HETATM    8  C   UNL     1      -9.671  11.599  66.590  1.00  0.00    -0.221 A  
HETATM    9  C   UNL     1     -11.527  12.008  65.112  1.00  0.00    -0.344 A  
HETATM   10  C   UNL     1     -11.246  13.380  65.106  1.00  0.00    -0.321 A  
HETATM   11  C   UNL     1     -10.755  11.124  65.861  1.00  0.00    -0.261 A  
HETATM   12  C   UNL     1     -12.053  14.259  64.363  1.00  0.00    -0.490 A  
HETATM   13  C   UNL     1     -11.803  15.628  64.353  1.00  0.00    -0.183 A  
HETATM   14  C   UNL     1     -10.741  16.139  65.087  1.00  0.00    -0.391 A  
HETATM   15  C   UNL     1      -9.922  15.279  65.823  1.00  0.00    -0.391 A  
HETATM   16  C   UNL     1     -10.147  13.884  65.852  1.00  0.00    -0.331 A  
ENDBRANCH   1   7
TORSDOF 2
ENDMDL
MODEL      165
REMARK 921   NORMALIZED FREE ENERGY PREDICTED BY IDOCK:   -3.20 KCAL/MOL
REMARK 922        TOTAL FREE ENERGY PREDICTED BY IDOCK:   -3.86 KCAL/MOL
REMARK 923 INTER-LIGAND FREE ENERGY PREDICTED BY IDOCK:   -3.77 KCAL/MOL
REMARK 924 INTRA-LIGAND FREE ENERGY PREDICTED BY IDOCK:   -0.10 KCAL/MOL
REMARK 927      BINDING AFFINITY PREDICTED BY RF-SCORE:    0.00 PKD
ROOT
HETATM    1  C   UNL     1     -10.206   8.343  72.167  1.00  0.00    -0.390 C  
ENDROOT
BRANCH   1   2
HETATM    2  C   UNL     1     -11.558   8.997  72.009  1.00  0.00    -0.343 C  
HETATM    3  N   UNL     1     -11.760  10.135  71.262  1.00  0.00    -0.365 NA 
HETATM    4  C   UNL     1     -13.058  10.653  71.627  1.00  0.00    -0.450 C  
HETATM    5  N   UNL     1     -12.621   8.479  72.576  1.00  0.00    -0.348 NA 
HETATM    6  C   UNL     1     -13.730   9.379  72.145  1.00  0.00    -0.420 C  
ENDBRANCH   1   2
BRANCH   1   7
HETATM    7  C   UNL     1      -9.831   7.383  71.054  1.00  0.00    -0.179 A  
HETATM    8  C   UNL     1     -10.869   6.885  70.245  1.00  0.00    -0.294 A  
HETATM    9  C   UNL     1      -9.307   5.512  69.033  1.00  0.00    -0.152 A  
HETATM   10  C   UNL     1      -8.244   6.015  69.793  1.00  0.00    -0.118 A  
HETATM   11  C   UNL     1     -10.610   5.954  69.246  1.00  0.00    -0.379 A  
HETATM   12  C   UNL     1      -6.933   5.573  69.545  1.00  0.00    -0.062 A  
HETATM   13  C   UNL     1      -5.858   6.069  70.277  1.00  0.00    -0.017 A  
HETATM   14  C   UNL     1      -6.079   7.015  71.269  1.00  0.00    -0.037 A  
HETATM   15  C   UNL     1      -7.377   7.458  71.536  1.00  0.00    -0.079 A  
HETATM   16  C   UNL     1      -8.490   6.972  70.813  1.00  0.00    -0.135 A  
ENDBRANCH   1   7
TORSDOF 2
ENDMDL
MODEL      166
REMARK 921   NORMALIZED FREE ENERGY PREDICTED BY IDOCK:   -3.16 KCAL/MOL
REMARK 922        TOTAL FREE ENERGY PREDICTED BY IDOCK:   -3.81 KCAL/MOL
REMARK 923 INTER-LIGAND FREE ENERGY PREDICTED BY IDOCK:   -3.61 KCAL/MOL
REMARK 924 INTRA-LIGAND FREE ENERGY PREDICTED BY IDOCK:   -0.20 KCAL/MOL
REMARK 927      BINDING AFFINITY PREDICTED BY RF-SCORE:    0.00 PKD
ROOT
HETATM    1  C   UNL     1     -10.575   9.482  71.404  1.00  0.00    -0.307 C  
ENDROOT
BRANCH   1   2
HETATM    2  C   UNL     1     -11.947   8.859  71.490  1.00  0.00    -0.333 C  
HETATM    3  N   UNL     1     -13.102   9.596  71.630  1.00  0.00    -0.384 NA 
HETATM    4  C   UNL     1     -14.142   8.677  72.027  1.00  0.00    -0.453 C  
HETATM    5  N   UNL     1     -12.096   7.558  71.409  1.00  0.00    -0.314 NA 
HETATM    6  C   UNL     1     -13.574   7.362  71.487  1.00  0.00    -0.370 C  
ENDBRANCH   1   2
BRANCH   1   7
HETATM    7  C   UNL     1      -9.957   9.472  70.019  1.00  0.00    -0.274 A  
HETATM    8  C   UNL     1     -10.816   9.661  68.921  1.00  0.00    -0.201 A  
HETATM    9  C   UNL     1      -8.978   9.362  67.394  1.00  0.00    -0.134 A  
HETATM   10  C   UNL     1      -8.087   9.209  68.464  1.00  0.00    -0.103 A  
HETATM   11  C   UNL     1     -10.331   9.601  67.619  1.00  0.00    -0.290 A  
HETATM   12  C   UNL     1      -6.721   8.992  68.215  1.00  0.00    -0.061 A  
HETATM   13  C   UNL     1      -5.814   8.852  69.262  1.00  0.00    -0.035 A  
HETATM   14  C   UNL     1      -6.261   8.926  70.574  1.00  0.00    -0.042 A  
HETATM   15  C   UNL     1      -7.618   9.130  70.840  1.00  0.00    -0.146 A  
HETATM   16  C   UNL     1      -8.565   9.274  69.801  1.00  0.00    -0.164 A  
ENDBRANCH   1   7
TORSDOF 2
ENDMDL
MODEL      167
REMARK 921   NORMALIZED FREE ENERGY PREDICTED BY IDOCK:   -3.15 KCAL/MOL
REMARK 922        TOTAL FREE ENERGY PREDICTED BY IDOCK:   -3.80 KCAL/MOL
REMARK 923 INTER-LIGAND FREE ENERGY PREDICTED BY IDOCK:   -3.50 KCAL/MOL
REMARK 924 INTRA-LIGAND FREE ENERGY PREDICTED BY IDOCK:   -0.31 KCAL/MOL
REMARK 927      BINDING AFFINITY PREDICTED BY RF-SCORE:    0.00 PKD
ROOT
HETATM    1  C   UNL     1     -11.114   6.349  68.790  1.00  0.00    -0.404 C  
ENDROOT
BRANCH   1   2
HETATM    2  C   UNL     1     -11.222   6.579  70.278  1.00  0.00    -0.374 C  
HETATM    3  N   UNL     1     -10.855   5.639  71.214  1.00  0.00    -0.245 NA 
HETATM    4  C   UNL     1     -11.418   6.057  72.476  1.00  0.00    -0.290 C  
HETATM    5  N   UNL     1     -11.662   7.723  70.747  1.00  0.00    -0.264 NA 
HETATM    6  C   UNL     1     -11.570   7.560  72.228  1.00  0.00    -0.310 C  
ENDBRANCH   1   2
BRANCH   1   7
HETATM    7  C   UNL     1      -9.769   6.709  68.187  1.00  0.00    -0.130 A  
HETATM    8  C   UNL     1      -8.744   5.748  68.259  1.00  0.00    -0.111 A  
HETATM    9  C   UNL     1      -7.199   7.273  67.221  1.00  0.00    -0.093 A  
HETATM   10  C   UNL     1      -8.205   8.241  67.097  1.00  0.00    -0.119 A  
HETATM   11  C   UNL     1      -7.468   6.030  67.784  1.00  0.00    -0.085 A  
HETATM   12  C   UNL     1      -7.917   9.481  66.502  1.00  0.00    -0.112 A  
HETATM   13  C   UNL     1      -8.904  10.452  66.354  1.00  0.00    -0.159 A  
HETATM   14  C   UNL     1     -10.193  10.196  66.799  1.00  0.00    -0.289 A  
HETATM   15  C   UNL     1     -10.495   8.972  67.402  1.00  0.00    -0.338 A  
HETATM   16  C   UNL     1      -9.516   7.966  67.570  1.00  0.00    -0.175 A  
ENDBRANCH   1   7
TORSDOF 2
ENDMDL
MODEL      168
REMARK 921   NORMALIZED FREE ENERGY PREDICTED BY IDOCK:   -3.11 KCAL/MOL
REMARK 922        TOTAL FREE ENERGY PREDICTED BY IDOCK:   -3.77 KCAL/MOL
REMARK 923 INTER-LIGAND FREE ENERGY PREDICTED BY IDOCK:   -3.59 KCAL/MOL
REMARK 924 INTRA-LIGAND FREE ENERGY PREDICTED BY IDOCK:   -0.18 KCAL/MOL
REMARK 927      BINDING AFFINITY PREDICTED BY RF-SCORE:    0.00 PKD
ROOT
HETATM    1  C   UNL     1      -8.644  10.053  66.790  1.00  0.00    -0.129 C  
ENDROOT
BRANCH   1   2
HETATM    2  C   UNL     1      -8.819  10.052  65.291  1.00  0.00    -0.178 C  
HETATM    3  N   UNL     1      -7.853   9.600  64.420  1.00  0.00    -0.122 NA 
HETATM    4  C   UNL     1      -8.218  10.072  63.105  1.00  0.00    -0.159 C  
HETATM    5  N   UNL     1      -9.938  10.471  64.749  1.00  0.00    -0.325 NA 
HETATM    6  C   UNL     1      -9.725  10.265  63.286  1.00  0.00    -0.174 C  
ENDBRANCH   1   2
BRANCH   1   7
HETATM    7  C   UNL     1      -9.644  10.907  67.546  1.00  0.00    -0.171 A  
HETATM    8  C   UNL     1     -10.771  10.263  68.091  1.00  0.00    -0.287 A  
HETATM    9  C   UNL     1     -11.636  12.370  68.870  1.00  0.00    -0.364 A  
HETATM   10  C   UNL     1     -10.509  13.039  68.376  1.00  0.00    -0.261 A  
HETATM   11  C   UNL     1     -11.761  10.989  68.743  1.00  0.00    -0.383 A  
HETATM   12  C   UNL     1     -10.391  14.430  68.538  1.00  0.00    -0.248 A  
HETATM   13  C   UNL     1      -9.274  15.115  68.068  1.00  0.00    -0.185 A  
HETATM   14  C   UNL     1      -8.257  14.418  67.430  1.00  0.00    -0.215 A  
HETATM   15  C   UNL     1      -8.362  13.036  67.252  1.00  0.00    -0.186 A  
HETATM   16  C   UNL     1      -9.484  12.311  67.714  1.00  0.00    -0.197 A  
ENDBRANCH   1   7
TORSDOF 2
ENDMDL
MODEL      169
REMARK 921   NORMALIZED FREE ENERGY PREDICTED BY IDOCK:   -3.09 KCAL/MOL
REMARK 922        TOTAL FREE ENERGY PREDICTED BY IDOCK:   -3.74 KCAL/MOL
REMARK 923 INTER-LIGAND FREE ENERGY PREDICTED BY IDOCK:   -3.46 KCAL/MOL
REMARK 924 INTRA-LIGAND FREE ENERGY PREDICTED BY IDOCK:   -0.28 KCAL/MOL
REMARK 927      BINDING AFFINITY PREDICTED BY RF-SCORE:    0.00 PKD
ROOT
HETATM    1  C   UNL     1     -10.318   8.161  68.661  1.00  0.00    -0.224 C  
ENDROOT
BRANCH   1   2
HETATM    2  C   UNL     1     -11.111   7.921  69.923  1.00  0.00    -0.120 C  
HETATM    3  N   UNL     1     -11.342   8.899  70.864  1.00  0.00    -0.273 NA 
HETATM    4  C   UNL     1     -11.806   8.233  72.059  1.00  0.00    -0.347 C  
HETATM    5  N   UNL     1     -11.640   6.745  70.167  1.00  0.00    -0.357 NA 
HETATM    6  C   UNL     1     -12.362   6.939  71.458  1.00  0.00    -0.376 C  
ENDBRANCH   1   2
BRANCH   1   7
HETATM    7  C   UNL     1     -10.157   9.620  68.279  1.00  0.00    -0.203 A  
HETATM    8  C   UNL     1     -11.203  10.225  67.558  1.00  0.00    -0.192 A  
HETATM    9  C   UNL     1      -9.953  12.276  67.404  1.00  0.00    -0.205 A  
HETATM   10  C   UNL     1      -8.908  11.719  68.154  1.00  0.00    -0.169 A  
HETATM   11  C   UNL     1     -11.100  11.540  67.120  1.00  0.00    -0.355 A  
HETATM   12  C   UNL     1      -7.770  12.488  68.451  1.00  0.00    -0.136 A  
HETATM   13  C   UNL     1      -6.726  11.962  69.207  1.00  0.00    -0.099 A  
HETATM   14  C   UNL     1      -6.806  10.658  69.677  1.00  0.00    -0.124 A  
HETATM   15  C   UNL     1      -7.926   9.876  69.383  1.00  0.00    -0.135 A  
HETATM   16  C   UNL     1      -9.002  10.379  68.616  1.00  0.00    -0.146 A  
ENDBRANCH   1   7
TORSDOF 2
ENDMDL
MODEL      170
REMARK 921   NORMALIZED FREE ENERGY PREDICTED BY IDOCK:   -3.07 KCAL/MOL
REMARK 922        TOTAL FREE ENERGY PREDICTED BY IDOCK:   -3.72 KCAL/MOL
REMARK 923 INTER-LIGAND FREE ENERGY PREDICTED BY IDOCK:   -3.40 KCAL/MOL
REMARK 924 INTRA-LIGAND FREE ENERGY PREDICTED BY IDOCK:   -0.32 KCAL/MOL
REMARK 927      BINDING AFFINITY PREDICTED BY RF-SCORE:    0.00 PKD
ROOT
HETATM    1  C   UNL     1     -10.902   7.006  68.705  1.00  0.00    -0.191 C  
ENDROOT
BRANCH   1   2
HETATM    2  C   UNL     1     -10.417   5.815  67.914  1.00  0.00    -0.228 C  
HETATM    3  N   UNL     1      -9.798   4.729  68.492  1.00  0.00    -0.151 NA 
HETATM    4  C   UNL     1      -9.173   3.984  67.424  1.00  0.00    -0.165 C  
HETATM    5  N   UNL     1     -10.592   5.759  66.615  1.00  0.00    -0.287 NA 
HETATM    6  C   UNL     1     -10.027   4.431  66.235  1.00  0.00    -0.235 C  
ENDBRANCH   1   2
BRANCH   1   7
HETATM    7  C   UNL     1      -9.860   7.635  69.610  1.00  0.00    -0.181 A  
HETATM    8  C   UNL     1      -8.837   8.387  69.004  1.00  0.00    -0.146 A  
HETATM    9  C   UNL     1      -7.801   8.760  71.144  1.00  0.00    -0.161 A  
HETATM   10  C   UNL     1      -8.824   8.051  71.786  1.00  0.00    -0.184 A  
HETATM   11  C   UNL     1      -7.813   8.940  69.764  1.00  0.00    -0.090 A  
HETATM   12  C   UNL     1      -8.805   7.902  73.184  1.00  0.00    -0.293 A  
HETATM   13  C   UNL     1      -9.818   7.215  73.846  1.00  0.00    -0.346 A  
HETATM   14  C   UNL     1     -10.866   6.666  73.120  1.00  0.00    -0.298 A  
HETATM   15  C   UNL     1     -10.896   6.796  71.729  1.00  0.00    -0.257 A  
HETATM   16  C   UNL     1      -9.882   7.485  71.025  1.00  0.00    -0.182 A  
ENDBRANCH   1   7
TORSDOF 2
ENDMDL
MODEL      171
REMARK 921   NORMALIZED FREE ENERGY PREDICTED BY IDOCK:   -2.99 KCAL/MOL
REMARK 922        TOTAL FREE ENERGY PREDICTED BY IDOCK:   -3.63 KCAL/MOL
REMARK 923 INTER-LIGAND FREE ENERGY PREDICTED BY IDOCK:   -3.43 KCAL/MOL
REMARK 924 INTRA-LIGAND FREE ENERGY PREDICTED BY IDOCK:   -0.20 KCAL/MOL
REMARK 927      BINDING AFFINITY PREDICTED BY RF-SCORE:    0.00 PKD
ROOT
HETATM    1  C   UNL     1      -8.604   6.546  70.602  1.00  0.00    -0.139 C  
ENDROOT
BRANCH   1   2
HETATM    2  C   UNL     1      -9.403   6.742  71.868  1.00  0.00    -0.145 C  
HETATM    3  N   UNL     1      -8.919   6.433  73.119  1.00  0.00    -0.129 NA 
HETATM    4  C   UNL     1     -10.051   6.412  74.016  1.00  0.00    -0.311 C  
HETATM    5  N   UNL     1     -10.613   7.247  71.823  1.00  0.00    -0.206 NA 
HETATM    6  C   UNL     1     -11.025   7.317  73.256  1.00  0.00    -0.311 C  
ENDBRANCH   1   2
BRANCH   1   7
HETATM    7  C   UNL     1      -9.407   6.658  69.320  1.00  0.00    -0.142 A  
HETATM    8  C   UNL     1     -10.174   5.543  68.932  1.00  0.00    -0.284 A  
HETATM    9  C   UNL     1     -10.851   6.673  66.917  1.00  0.00    -0.415 A  
HETATM   10  C   UNL     1     -10.131   7.814  67.290  1.00  0.00    -0.307 A  
HETATM   11  C   UNL     1     -10.886   5.549  67.738  1.00  0.00    -0.078 A  
HETATM   12  C   UNL     1     -10.129   8.947  66.457  1.00  0.00    -0.356 A  
HETATM   13  C   UNL     1      -9.433  10.098  66.814  1.00  0.00    -0.205 A  
HETATM   14  C   UNL     1      -8.727  10.134  68.009  1.00  0.00    -0.122 A  
HETATM   15  C   UNL     1      -8.710   9.014  68.844  1.00  0.00    -0.136 A  
HETATM   16  C   UNL     1      -9.404   7.828  68.510  1.00  0.00    -0.147 A  
ENDBRANCH   1   7
TORSDOF 2
ENDMDL
MODEL      172
REMARK 921   NORMALIZED FREE ENERGY PREDICTED BY IDOCK:   -2.97 KCAL/MOL
REMARK 922        TOTAL FREE ENERGY PREDICTED BY IDOCK:   -3.60 KCAL/MOL
REMARK 923 INTER-LIGAND FREE ENERGY PREDICTED BY IDOCK:   -3.36 KCAL/MOL
REMARK 924 INTRA-LIGAND FREE ENERGY PREDICTED BY IDOCK:   -0.25 KCAL/MOL
REMARK 927      BINDING AFFINITY PREDICTED BY RF-SCORE:    0.00 PKD
ROOT
HETATM    1  C   UNL     1      -8.716   9.603  69.846  1.00  0.00    -0.236 C  
ENDROOT
BRANCH   1   2
HETATM    2  C   UNL     1      -9.887  10.183  69.091  1.00  0.00    -0.214 C  
HETATM    3  N   UNL     1     -10.876  10.930  69.692  1.00  0.00    -0.239 NA 
HETATM    4  C   UNL     1     -11.975  11.002  68.758  1.00  0.00    -0.225 C  
HETATM    5  N   UNL     1      -9.998  10.011  67.795  1.00  0.00    -0.163 NA 
HETATM    6  C   UNL     1     -11.236  10.764  67.439  1.00  0.00    -0.241 C  
ENDBRANCH   1   2
BRANCH   1   7
HETATM    7  C   UNL     1      -8.699   8.089  69.928  1.00  0.00    -0.139 A  
HETATM    8  C   UNL     1      -7.871   7.396  69.025  1.00  0.00    -0.120 A  
HETATM    9  C   UNL     1      -8.650   5.286  69.882  1.00  0.00    -0.106 A  
HETATM   10  C   UNL     1      -9.457   5.942  70.820  1.00  0.00    -0.192 A  
HETATM   11  C   UNL     1      -7.850   6.007  68.999  1.00  0.00    -0.096 A  
HETATM   12  C   UNL     1     -10.239   5.194  71.718  1.00  0.00    -0.271 A  
HETATM   13  C   UNL     1     -11.037   5.823  72.670  1.00  0.00    -0.325 A  
HETATM   14  C   UNL     1     -11.066   7.209  72.737  1.00  0.00    -0.339 A  
HETATM   15  C   UNL     1     -10.303   7.968  71.845  1.00  0.00    -0.284 A  
HETATM   16  C   UNL     1      -9.484   7.361  70.865  1.00  0.00    -0.165 A  
ENDBRANCH   1   7
TORSDOF 2
ENDMDL
MODEL      173
REMARK 921   NORMALIZED FREE ENERGY PREDICTED BY IDOCK:   -2.90 KCAL/MOL
REMARK 922        TOTAL FREE ENERGY PREDICTED BY IDOCK:   -3.53 KCAL/MOL
REMARK 923 INTER-LIGAND FREE ENERGY PREDICTED BY IDOCK:   -3.38 KCAL/MOL
REMARK 924 INTRA-LIGAND FREE ENERGY PREDICTED BY IDOCK:   -0.15 KCAL/MOL
REMARK 927      BINDING AFFINITY PREDICTED BY RF-SCORE:    0.00 PKD
ROOT
HETATM    1  C   UNL     1      -7.410  11.110  68.359  1.00  0.00    -0.094 C  
ENDROOT
BRANCH   1   2
HETATM    2  C   UNL     1      -6.563  12.290  68.772  1.00  0.00    -0.084 C  
HETATM    3  N   UNL     1      -5.883  12.346  69.968  1.00  0.00    -0.138 NA 
HETATM    4  C   UNL     1      -5.495  13.722  70.167  1.00  0.00    -0.110 C  
HETATM    5  N   UNL     1      -6.423  13.323  67.977  1.00  0.00    -0.113 NA 
HETATM    6  C   UNL     1      -5.495  14.224  68.721  1.00  0.00    -0.087 C  
ENDBRANCH   1   2
BRANCH   1   7
HETATM    7  C   UNL     1      -8.887  11.244  68.677  1.00  0.00    -0.141 A  
HETATM    8  C   UNL     1      -9.598  12.280  68.044  1.00  0.00    -0.206 A  
HETATM    9  C   UNL     1     -11.594  11.689  69.253  1.00  0.00    -0.385 A  
HETATM   10  C   UNL     1     -10.928  10.624  69.872  1.00  0.00    -0.337 A  
HETATM   11  C   UNL     1     -10.939  12.504  68.333  1.00  0.00    -0.277 A  
HETATM   12  C   UNL     1     -11.615   9.799  70.779  1.00  0.00    -0.417 A  
HETATM   13  C   UNL     1     -10.979   8.725  71.396  1.00  0.00    -0.360 A  
HETATM   14  C   UNL     1      -9.645   8.461  71.114  1.00  0.00    -0.226 A  
HETATM   15  C   UNL     1      -8.944   9.277  70.223  1.00  0.00    -0.261 A  
HETATM   16  C   UNL     1      -9.560  10.377  69.582  1.00  0.00    -0.142 A  
ENDBRANCH   1   7
TORSDOF 2
ENDMDL
MODEL      174
REMARK 921   NORMALIZED FREE ENERGY PREDICTED BY IDOCK:   -2.87 KCAL/MOL
REMARK 922        TOTAL FREE ENERGY PREDICTED BY IDOCK:   -3.50 KCAL/MOL
REMARK 923 INTER-LIGAND FREE ENERGY PREDICTED BY IDOCK:   -3.28 KCAL/MOL
REMARK 924 INTRA-LIGAND FREE ENERGY PREDICTED BY IDOCK:   -0.22 KCAL/MOL
REMARK 927      BINDING AFFINITY PREDICTED BY RF-SCORE:    0.00 PKD
ROOT
HETATM    1  C   UNL     1      -8.102   7.466  73.392  1.00  0.00    -0.140 C  
ENDROOT
BRANCH   1   2
HETATM    2  C   UNL     1      -7.167   7.415  72.207  1.00  0.00    -0.068 C  
HETATM    3  N   UNL     1      -7.461   6.736  71.045  1.00  0.00    -0.082 NA 
HETATM    4  C   UNL     1      -6.226   6.612  70.307  1.00  0.00    -0.032 C  
HETATM    5  N   UNL     1      -6.020   8.050  72.233  1.00  0.00    -0.041 NA 
HETATM    6  C   UNL     1      -5.437   7.790  70.884  1.00  0.00    -0.030 C  
ENDBRANCH   1   2
BRANCH   1   7
HETATM    7  C   UNL     1      -9.444   6.794  73.172  1.00  0.00    -0.166 A  
HETATM    8  C   UNL     1      -9.590   5.467  73.620  1.00  0.00    -0.140 A  
HETATM    9  C   UNL     1     -11.826   5.382  72.734  1.00  0.00    -0.162 A  
HETATM   10  C   UNL     1     -11.731   6.714  72.310  1.00  0.00    -0.305 A  
HETATM   11  C   UNL     1     -10.769   4.766  73.398  1.00  0.00    -0.322 A  
HETATM   12  C   UNL     1     -12.819   7.324  71.663  1.00  0.00    -0.415 A  
HETATM   13  C   UNL     1     -12.754   8.651  71.246  1.00  0.00    -0.244 A  
HETATM   14  C   UNL     1     -11.598   9.386  71.469  1.00  0.00    -0.467 A  
HETATM   15  C   UNL     1     -10.503   8.792  72.102  1.00  0.00    -0.384 A  
HETATM   16  C   UNL     1     -10.535   7.447  72.535  1.00  0.00    -0.280 A  
ENDBRANCH   1   7
TORSDOF 2
ENDMDL
MODEL      175
REMARK 921   NORMALIZED FREE ENERGY PREDICTED BY IDOCK:   -2.86 KCAL/MOL
REMARK 922        TOTAL FREE ENERGY PREDICTED BY IDOCK:   -3.48 KCAL/MOL
REMARK 923 INTER-LIGAND FREE ENERGY PREDICTED BY IDOCK:   -3.17 KCAL/MOL
REMARK 924 INTRA-LIGAND FREE ENERGY PREDICTED BY IDOCK:   -0.31 KCAL/MOL
REMARK 927      BINDING AFFINITY PREDICTED BY RF-SCORE:    0.00 PKD
ROOT
HETATM    1  C   UNL     1      -9.438   7.290  70.175  1.00  0.00    -0.165 C  
ENDROOT
BRANCH   1   2
HETATM    2  C   UNL     1     -10.834   7.563  70.681  1.00  0.00    -0.240 C  
HETATM    3  N   UNL     1     -11.361   8.830  70.790  1.00  0.00    -0.269 NA 
HETATM    4  C   UNL     1     -12.538   8.727  71.620  1.00  0.00    -0.345 C  
HETATM    5  N   UNL     1     -11.626   6.575  71.024  1.00  0.00    -0.335 NA 
HETATM    6  C   UNL     1     -12.897   7.253  71.412  1.00  0.00    -0.382 C  
ENDBRANCH   1   2
BRANCH   1   7
HETATM    7  C   UNL     1      -9.373   6.456  68.910  1.00  0.00    -0.130 A  
HETATM    8  C   UNL     1      -9.586   7.112  67.683  1.00  0.00    -0.152 A  
HETATM    9  C   UNL     1      -9.396   5.026  66.498  1.00  0.00    -0.141 A  
HETATM   10  C   UNL     1      -9.143   4.345  67.695  1.00  0.00    -0.145 A  
HETATM   11  C   UNL     1      -9.602   6.403  66.488  1.00  0.00    -0.185 A  
HETATM   12  C   UNL     1      -8.913   2.958  67.679  1.00  0.00    -0.191 A  
HETATM   13  C   UNL     1      -8.644   2.262  68.854  1.00  0.00    -0.111 A  
HETATM   14  C   UNL     1      -8.600   2.943  70.063  1.00  0.00    -0.111 A  
HETATM   15  C   UNL     1      -8.835   4.320  70.099  1.00  0.00    -0.130 A  
HETATM   16  C   UNL     1      -9.114   5.056  68.925  1.00  0.00    -0.142 A  
ENDBRANCH   1   7
TORSDOF 2
ENDMDL
MODEL      176
REMARK 921   NORMALIZED FREE ENERGY PREDICTED BY IDOCK:   -2.82 KCAL/MOL
REMARK 922        TOTAL FREE ENERGY PREDICTED BY IDOCK:   -3.44 KCAL/MOL
REMARK 923 INTER-LIGAND FREE ENERGY PREDICTED BY IDOCK:   -3.13 KCAL/MOL
REMARK 924 INTRA-LIGAND FREE ENERGY PREDICTED BY IDOCK:   -0.32 KCAL/MOL
REMARK 927      BINDING AFFINITY PREDICTED BY RF-SCORE:    0.00 PKD
ROOT
HETATM    1  C   UNL     1      -8.041   7.038  68.119  1.00  0.00    -0.119 C  
ENDROOT
BRANCH   1   2
HETATM    2  C   UNL     1      -8.715   5.694  67.990  1.00  0.00    -0.099 C  
HETATM    3  N   UNL     1      -8.841   4.811  69.039  1.00  0.00    -0.091 NA 
HETATM    4  C   UNL     1      -9.200   3.532  68.473  1.00  0.00    -0.166 C  
HETATM    5  N   UNL     1      -9.238   5.315  66.848  1.00  0.00    -0.119 NA 
HETATM    6  C   UNL     1      -9.831   3.980  67.152  1.00  0.00    -0.098 C  
ENDBRANCH   1   2
BRANCH   1   7
HETATM    7  C   UNL     1      -8.990   8.215  68.248  1.00  0.00    -0.136 A  
HETATM    8  C   UNL     1      -9.509   8.497  69.525  1.00  0.00    -0.165 A  
HETATM    9  C   UNL     1     -10.844  10.285  68.621  1.00  0.00    -0.272 A  
HETATM   10  C   UNL     1     -10.319  10.058  67.342  1.00  0.00    -0.292 A  
HETATM   11  C   UNL     1     -10.432   9.520  69.709  1.00  0.00    -0.253 A  
HETATM   12  C   UNL     1     -10.731  10.857  66.262  1.00  0.00    -0.241 A  
HETATM   13  C   UNL     1     -10.212  10.661  64.985  1.00  0.00    -0.380 A  
HETATM   14  C   UNL     1      -9.273   9.661  64.770  1.00  0.00    -0.298 A  
HETATM   15  C   UNL     1      -8.860   8.850  65.831  1.00  0.00    -0.215 A  
HETATM   16  C   UNL     1      -9.369   9.021  67.139  1.00  0.00    -0.184 A  
ENDBRANCH   1   7
TORSDOF 2
ENDMDL
MODEL      177
REMARK 921   NORMALIZED FREE ENERGY PREDICTED BY IDOCK:   -2.82 KCAL/MOL
REMARK 922        TOTAL FREE ENERGY PREDICTED BY IDOCK:   -3.44 KCAL/MOL
REMARK 923 INTER-LIGAND FREE ENERGY PREDICTED BY IDOCK:   -3.15 KCAL/MOL
REMARK 924 INTRA-LIGAND FREE ENERGY PREDICTED BY IDOCK:   -0.29 KCAL/MOL
REMARK 927      BINDING AFFINITY PREDICTED BY RF-SCORE:    0.00 PKD
ROOT
HETATM    1  C   UNL     1      -9.125   6.116  70.268  1.00  0.00    -0.158 C  
ENDROOT
BRANCH   1   2
HETATM    2  C   UNL     1      -9.927   5.466  71.369  1.00  0.00    -0.184 C  
HETATM    3  N   UNL     1     -11.081   6.012  71.883  1.00  0.00    -0.266 NA 
HETATM    4  C   UNL     1     -11.360   5.322  73.121  1.00  0.00    -0.291 C  
HETATM    5  N   UNL     1      -9.555   4.314  71.877  1.00  0.00    -0.142 NA 
HETATM    6  C   UNL     1     -10.617   4.005  72.878  1.00  0.00    -0.156 C  
ENDBRANCH   1   2
BRANCH   1   7
HETATM    7  C   UNL     1      -9.563   5.751  68.862  1.00  0.00    -0.163 A  
HETATM    8  C   UNL     1     -10.537   6.562  68.251  1.00  0.00    -0.302 A  
HETATM    9  C   UNL     1     -10.555   5.134  66.314  1.00  0.00    -0.325 A  
HETATM   10  C   UNL     1      -9.557   4.326  66.874  1.00  0.00    -0.225 A  
HETATM   11  C   UNL     1     -11.032   6.253  66.990  1.00  0.00    -0.442 A  
HETATM   12  C   UNL     1      -9.072   3.215  66.164  1.00  0.00    -0.153 A  
HETATM   13  C   UNL     1      -8.070   2.406  66.693  1.00  0.00    -0.082 A  
HETATM   14  C   UNL     1      -7.539   2.697  67.942  1.00  0.00    -0.056 A  
HETATM   15  C   UNL     1      -8.017   3.792  68.667  1.00  0.00    -0.068 A  
HETATM   16  C   UNL     1      -9.035   4.632  68.159  1.00  0.00    -0.134 A  
ENDBRANCH   1   7
TORSDOF 2
ENDMDL
MODEL      178
REMARK 921   NORMALIZED FREE ENERGY PREDICTED BY IDOCK:   -2.79 KCAL/MOL
REMARK 922        TOTAL FREE ENERGY PREDICTED BY IDOCK:   -3.41 KCAL/MOL
REMARK 923 INTER-LIGAND FREE ENERGY PREDICTED BY IDOCK:   -3.35 KCAL/MOL
REMARK 924 INTRA-LIGAND FREE ENERGY PREDICTED BY IDOCK:   -0.05 KCAL/MOL
REMARK 927      BINDING AFFINITY PREDICTED BY RF-SCORE:    0.00 PKD
ROOT
HETATM    1  C   UNL     1      -7.923   9.092  70.243  1.00  0.00    -0.139 C  
ENDROOT
BRANCH   1   2
HETATM    2  C   UNL     1      -7.093  10.298  69.873  1.00  0.00    -0.152 C  
HETATM    3  N   UNL     1      -6.402  11.049  70.797  1.00  0.00    -0.314 NA 
HETATM    4  C   UNL     1      -6.035  12.284  70.146  1.00  0.00    -0.148 C  
HETATM    5  N   UNL     1      -6.978  10.671  68.620  1.00  0.00    -0.069 NA 
HETATM    6  C   UNL     1      -6.058  11.844  68.680  1.00  0.00    -0.052 C  
ENDBRANCH   1   2
BRANCH   1   7
HETATM    7  C   UNL     1      -9.392   9.382  70.482  1.00  0.00    -0.319 A  
HETATM    8  C   UNL     1      -9.967  10.461  69.785  1.00  0.00    -0.167 A  
HETATM    9  C   UNL     1     -12.066  10.109  70.909  1.00  0.00    -0.453 A  
HETATM   10  C   UNL     1     -11.539   9.005  71.591  1.00  0.00    -0.426 A  
HETATM   11  C   UNL     1     -11.291  10.825  70.000  1.00  0.00    -0.397 A  
HETATM   12  C   UNL     1     -12.347   8.282  72.486  1.00  0.00    -0.335 A  
HETATM   13  C   UNL     1     -11.851   7.173  73.164  1.00  0.00     0.431 A  
HETATM   14  C   UNL     1     -10.538   6.770  72.958  1.00  0.00    -0.295 A  
HETATM   15  C   UNL     1      -9.718   7.483  72.080  1.00  0.00    -0.195 A  
HETATM   16  C   UNL     1     -10.190   8.616  71.377  1.00  0.00    -0.324 A  
ENDBRANCH   1   7
TORSDOF 2
ENDMDL
MODEL      179
REMARK 921   NORMALIZED FREE ENERGY PREDICTED BY IDOCK:   -2.77 KCAL/MOL
REMARK 922        TOTAL FREE ENERGY PREDICTED BY IDOCK:   -3.38 KCAL/MOL
REMARK 923 INTER-LIGAND FREE ENERGY PREDICTED BY IDOCK:   -3.45 KCAL/MOL
REMARK 924 INTRA-LIGAND FREE ENERGY PREDICTED BY IDOCK:    0.07 KCAL/MOL
REMARK 927      BINDING AFFINITY PREDICTED BY RF-SCORE:    0.00 PKD
ROOT
HETATM    1  C   UNL     1      -7.416  11.095  68.341  1.00  0.00    -0.102 C  
ENDROOT
BRANCH   1   2
HETATM    2  C   UNL     1      -6.628  12.274  68.859  1.00  0.00    -0.094 C  
HETATM    3  N   UNL     1      -6.044  12.300  70.106  1.00  0.00    -0.144 NA 
HETATM    4  C   UNL     1      -5.700  13.675  70.381  1.00  0.00    -0.156 C  
HETATM    5  N   UNL     1      -6.448  13.337  68.112  1.00  0.00    -0.097 NA 
HETATM    6  C   UNL     1      -5.598  14.227  68.957  1.00  0.00    -0.088 C  
ENDBRANCH   1   2
BRANCH   1   7
HETATM    7  C   UNL     1      -8.914  11.186  68.558  1.00  0.00    -0.168 A  
HETATM    8  C   UNL     1      -9.473  10.408  69.589  1.00  0.00    -0.118 A  
HETATM    9  C   UNL     1     -11.682  11.163  69.003  1.00  0.00    -0.408 A  
HETATM   10  C   UNL     1     -11.158  11.980  67.994  1.00  0.00    -0.292 A  
HETATM   11  C   UNL     1     -10.846  10.393  69.806  1.00  0.00    -0.342 A  
HETATM   12  C   UNL     1     -12.018  12.769  67.211  1.00  0.00    -0.345 A  
HETATM   13  C   UNL     1     -11.519  13.601  66.212  1.00  0.00    -0.352 A  
HETATM   14  C   UNL     1     -10.151  13.655  65.982  1.00  0.00    -0.320 A  
HETATM   15  C   UNL     1      -9.282  12.870  66.744  1.00  0.00    -0.230 A  
HETATM   16  C   UNL     1      -9.756  12.013  67.763  1.00  0.00    -0.192 A  
ENDBRANCH   1   7
TORSDOF 2
ENDMDL
MODEL      180
REMARK 921   NORMALIZED FREE ENERGY PREDICTED BY IDOCK:   -2.76 KCAL/MOL
REMARK 922        TOTAL FREE ENERGY PREDICTED BY IDOCK:   -3.37 KCAL/MOL
REMARK 923 INTER-LIGAND FREE ENERGY PREDICTED BY IDOCK:   -3.07 KCAL/MOL
REMARK 924 INTRA-LIGAND FREE ENERGY PREDICTED BY IDOCK:   -0.30 KCAL/MOL
REMARK 927      BINDING AFFINITY PREDICTED BY RF-SCORE:    0.00 PKD
ROOT
HETATM    1  C   UNL     1      -8.166  10.625  67.388  1.00  0.00    -0.115 C  
ENDROOT
BRANCH   1   2
HETATM    2  C   UNL     1      -8.454   9.875  68.666  1.00  0.00    -0.114 C  
HETATM    3  N   UNL     1      -7.653   8.862  69.142  1.00  0.00    -0.079 NA 
HETATM    4  C   UNL     1      -8.412   8.164  70.154  1.00  0.00    -0.127 C  
HETATM    5  N   UNL     1      -9.496  10.184  69.402  1.00  0.00    -0.216 NA 
HETATM    6  C   UNL     1      -9.394   9.262  70.570  1.00  0.00    -0.264 C  
ENDBRANCH   1   2
BRANCH   1   7
HETATM    7  C   UNL     1      -8.149  12.135  67.528  1.00  0.00    -0.163 A  
HETATM    8  C   UNL     1      -7.149  12.705  68.338  1.00  0.00    -0.101 A  
HETATM    9  C   UNL     1      -8.061  14.902  67.973  1.00  0.00    -0.137 A  
HETATM   10  C   UNL     1      -9.047  14.375  67.129  1.00  0.00    -0.238 A  
HETATM   11  C   UNL     1      -7.109  14.076  68.563  1.00  0.00    -0.102 A  
HETATM   12  C   UNL     1      -9.985  15.230  66.525  1.00  0.00    -0.278 A  
HETATM   13  C   UNL     1     -10.965  14.732  65.671  1.00  0.00    -0.345 A  
HETATM   14  C   UNL     1     -11.021  13.370  65.409  1.00  0.00    -0.297 A  
HETATM   15  C   UNL     1     -10.104  12.504  66.009  1.00  0.00    -0.268 A  
HETATM   16  C   UNL     1      -9.098  12.977  66.883  1.00  0.00    -0.227 A  
ENDBRANCH   1   7
TORSDOF 2
ENDMDL
MODEL      181
REMARK 921   NORMALIZED FREE ENERGY PREDICTED BY IDOCK:   -2.71 KCAL/MOL
REMARK 922        TOTAL FREE ENERGY PREDICTED BY IDOCK:   -3.31 KCAL/MOL
REMARK 923 INTER-LIGAND FREE ENERGY PREDICTED BY IDOCK:   -3.13 KCAL/MOL
REMARK 924 INTRA-LIGAND FREE ENERGY PREDICTED BY IDOCK:   -0.18 KCAL/MOL
REMARK 927      BINDING AFFINITY PREDICTED BY RF-SCORE:    0.00 PKD
ROOT
HETATM    1  C   UNL     1     -10.577   6.255  67.789  1.00  0.00    -0.329 C  
ENDROOT
BRANCH   1   2
HETATM    2  C   UNL     1     -10.114   6.069  69.213  1.00  0.00    -0.185 C  
HETATM    3  N   UNL     1     -10.975   5.833  70.261  1.00  0.00    -0.304 NA 
HETATM    4  C   UNL     1     -10.232   6.062  71.477  1.00  0.00    -0.204 C  
HETATM    5  N   UNL     1      -8.836   6.104  69.510  1.00  0.00    -0.129 NA 
HETATM    6  C   UNL     1      -8.803   5.835  70.978  1.00  0.00    -0.138 C  
ENDBRANCH   1   2
BRANCH   1   7
HETATM    7  C   UNL     1      -9.878   7.369  67.033  1.00  0.00    -0.273 A  
HETATM    8  C   UNL     1      -8.966   7.002  66.027  1.00  0.00    -0.135 A  
HETATM    9  C   UNL     1      -8.425   9.314  65.631  1.00  0.00    -0.149 A  
HETATM   10  C   UNL     1      -9.354   9.719  66.599  1.00  0.00    -0.200 A  
HETATM   11  C   UNL     1      -8.241   7.966  65.336  1.00  0.00    -0.139 A  
HETATM   12  C   UNL     1      -9.541  11.086  66.865  1.00  0.00    -0.205 A  
HETATM   13  C   UNL     1     -10.469  11.513  67.811  1.00  0.00    -0.216 A  
HETATM   14  C   UNL     1     -11.223  10.577  68.505  1.00  0.00    -0.332 A  
HETATM   15  C   UNL     1     -11.043   9.213  68.261  1.00  0.00     0.109 A  
HETATM   16  C   UNL     1     -10.107   8.746  67.310  1.00  0.00    -0.301 A  
ENDBRANCH   1   7
TORSDOF 2
ENDMDL
MODEL      182
REMARK 921   NORMALIZED FREE ENERGY PREDICTED BY IDOCK:   -2.66 KCAL/MOL
REMARK 922        TOTAL FREE ENERGY PREDICTED BY IDOCK:   -3.25 KCAL/MOL
REMARK 923 INTER-LIGAND FREE ENERGY PREDICTED BY IDOCK:   -2.94 KCAL/MOL
REMARK 924 INTRA-LIGAND FREE ENERGY PREDICTED BY IDOCK:   -0.32 KCAL/MOL
REMARK 927      BINDING AFFINITY PREDICTED BY RF-SCORE:    0.00 PKD
ROOT
HETATM    1  C   UNL     1     -10.606   7.285  67.575  1.00  0.00    -0.344 C  
ENDROOT
BRANCH   1   2
HETATM    2  C   UNL     1     -10.518   6.858  69.020  1.00  0.00    -0.208 C  
HETATM    3  N   UNL     1      -9.370   6.977  69.771  1.00  0.00    -0.147 NA 
HETATM    4  C   UNL     1      -9.552   6.163  70.950  1.00  0.00    -0.173 C  
HETATM    5  N   UNL     1     -11.566   6.365  69.637  1.00  0.00    -0.382 NA 
HETATM    6  C   UNL     1     -11.080   6.122  71.027  1.00  0.00    -0.297 C  
ENDBRANCH   1   2
BRANCH   1   7
HETATM    7  C   UNL     1     -10.002   6.308  66.585  1.00  0.00    -0.207 A  
HETATM    8  C   UNL     1     -10.780   5.198  66.206  1.00  0.00    -0.272 A  
HETATM    9  C   UNL     1      -8.975   4.356  64.854  1.00  0.00    -0.147 A  
HETATM   10  C   UNL     1      -8.186   5.467  65.178  1.00  0.00    -0.141 A  
HETATM   11  C   UNL     1     -10.269   4.228  65.352  1.00  0.00    -0.235 A  
HETATM   12  C   UNL     1      -6.892   5.589  64.645  1.00  0.00    -0.048 A  
HETATM   13  C   UNL     1      -6.095   6.691  64.940  1.00  0.00    -0.035 A  
HETATM   14  C   UNL     1      -6.582   7.689  65.774  1.00  0.00    -0.045 A  
HETATM   15  C   UNL     1      -7.862   7.579  66.321  1.00  0.00    -0.102 A  
HETATM   16  C   UNL     1      -8.696   6.471  66.044  1.00  0.00    -0.155 A  
ENDBRANCH   1   7
TORSDOF 2
ENDMDL
MODEL      183
REMARK 921   NORMALIZED FREE ENERGY PREDICTED BY IDOCK:   -2.64 KCAL/MOL
REMARK 922        TOTAL FREE ENERGY PREDICTED BY IDOCK:   -3.24 KCAL/MOL
REMARK 923 INTER-LIGAND FREE ENERGY PREDICTED BY IDOCK:   -3.01 KCAL/MOL
REMARK 924 INTRA-LIGAND FREE ENERGY PREDICTED BY IDOCK:   -0.23 KCAL/MOL
REMARK 927      BINDING AFFINITY PREDICTED BY RF-SCORE:    0.00 PKD
ROOT
HETATM    1  C   UNL     1      -7.414  12.251  67.501  1.00  0.00    -0.149 C  
ENDROOT
BRANCH   1   2
HETATM    2  C   UNL     1      -8.361  11.232  68.087  1.00  0.00    -0.143 C  
HETATM    3  N   UNL     1      -9.399  11.566  68.927  1.00  0.00    -0.065 NA 
HETATM    4  C   UNL     1      -9.846  10.342  69.550  1.00  0.00    -0.220 C  
HETATM    5  N   UNL     1      -8.241   9.960  67.791  1.00  0.00    -0.113 NA 
HETATM    6  C   UNL     1      -9.372   9.315  68.519  1.00  0.00    -0.142 C  
ENDBRANCH   1   2
BRANCH   1   7
HETATM    7  C   UNL     1      -7.563  13.653  68.061  1.00  0.00    -0.139 A  
HETATM    8  C   UNL     1      -6.743  14.013  69.146  1.00  0.00    -0.112 A  
HETATM    9  C   UNL     1      -7.806  16.169  69.274  1.00  0.00    -0.203 A  
HETATM   10  C   UNL     1      -8.612  15.860  68.170  1.00  0.00    -0.169 A  
HETATM   11  C   UNL     1      -6.867  15.259  69.751  1.00  0.00    -0.172 A  
HETATM   12  C   UNL     1      -9.536  16.804  67.690  1.00  0.00    -0.244 A  
HETATM   13  C   UNL     1     -10.337  16.525  66.585  1.00  0.00    -0.298 A  
HETATM   14  C   UNL     1     -10.224  15.299  65.946  1.00  0.00    -0.353 A  
HETATM   15  C   UNL     1      -9.318  14.345  66.416  1.00  0.00    -0.284 A  
HETATM   16  C   UNL     1      -8.492  14.595  67.536  1.00  0.00    -0.200 A  
ENDBRANCH   1   7
TORSDOF 2
ENDMDL
MODEL      184
REMARK 921   NORMALIZED FREE ENERGY PREDICTED BY IDOCK:   -2.64 KCAL/MOL
REMARK 922        TOTAL FREE ENERGY PREDICTED BY IDOCK:   -3.23 KCAL/MOL
REMARK 923 INTER-LIGAND FREE ENERGY PREDICTED BY IDOCK:   -2.98 KCAL/MOL
REMARK 924 INTRA-LIGAND FREE ENERGY PREDICTED BY IDOCK:   -0.25 KCAL/MOL
REMARK 927      BINDING AFFINITY PREDICTED BY RF-SCORE:    0.00 PKD
ROOT
HETATM    1  C   UNL     1      -7.620   6.052  70.537  1.00  0.00    -0.092 C  
ENDROOT
BRANCH   1   2
HETATM    2  C   UNL     1      -7.951   4.605  70.260  1.00  0.00    -0.064 C  
HETATM    3  N   UNL     1      -9.156   4.196  69.736  1.00  0.00    -0.098 NA 
HETATM    4  C   UNL     1      -9.241   2.769  69.943  1.00  0.00    -0.139 C  
HETATM    5  N   UNL     1      -7.069   3.662  70.494  1.00  0.00    -0.034 NA 
HETATM    6  C   UNL     1      -7.757   2.414  70.052  1.00  0.00    -0.043 C  
ENDBRANCH   1   2
BRANCH   1   7
HETATM    7  C   UNL     1      -8.631   7.049  70.002  1.00  0.00    -0.141 A  
HETATM    8  C   UNL     1      -8.492   7.465  68.665  1.00  0.00    -0.129 A  
HETATM    9  C   UNL     1     -10.353   8.972  68.908  1.00  0.00    -0.232 A  
HETATM   10  C   UNL     1     -10.546   8.553  70.231  1.00  0.00    -0.238 A  
HETATM   11  C   UNL     1      -9.343   8.422  68.124  1.00  0.00    -0.141 A  
HETATM   12  C   UNL     1     -11.588   9.104  70.997  1.00  0.00    -0.370 A  
HETATM   13  C   UNL     1     -11.808   8.693  72.309  1.00  0.00    -0.436 A  
HETATM   14  C   UNL     1     -10.990   7.724  72.873  1.00  0.00    -0.467 A  
HETATM   15  C   UNL     1      -9.943   7.173  72.129  1.00  0.00    -0.183 A  
HETATM   16  C   UNL     1      -9.690   7.570  70.796  1.00  0.00    -0.174 A  
ENDBRANCH   1   7
TORSDOF 2
ENDMDL
MODEL      185
REMARK 921   NORMALIZED FREE ENERGY PREDICTED BY IDOCK:   -2.63 KCAL/MOL
REMARK 922        TOTAL FREE ENERGY PREDICTED BY IDOCK:   -3.22 KCAL/MOL
REMARK 923 INTER-LIGAND FREE ENERGY PREDICTED BY IDOCK:   -3.02 KCAL/MOL
REMARK 924 INTRA-LIGAND FREE ENERGY PREDICTED BY IDOCK:   -0.20 KCAL/MOL
REMARK 927      BINDING AFFINITY PREDICTED BY RF-SCORE:    0.00 PKD
ROOT
HETATM    1  C   UNL     1     -10.433   7.579  67.480  1.00  0.00    -0.341 C  
ENDROOT
BRANCH   1   2
HETATM    2  C   UNL     1      -9.425   6.870  66.608  1.00  0.00    -0.166 C  
HETATM    3  N   UNL     1      -9.302   5.500  66.561  1.00  0.00    -0.142 NA 
HETATM    4  C   UNL     1      -8.041   5.212  65.920  1.00  0.00    -0.109 C  
HETATM    5  N   UNL     1      -8.621   7.552  65.826  1.00  0.00    -0.153 NA 
HETATM    6  C   UNL     1      -7.835   6.499  65.118  1.00  0.00    -0.111 C  
ENDBRANCH   1   2
BRANCH   1   7
HETATM    7  C   UNL     1     -10.341   7.248  68.957  1.00  0.00    -0.208 A  
HETATM    8  C   UNL     1     -11.315   6.384  69.493  1.00  0.00    -0.460 A  
HETATM    9  C   UNL     1     -10.370   6.635  71.693  1.00  0.00    -0.227 A  
HETATM   10  C   UNL     1      -9.362   7.467  71.187  1.00  0.00    -0.156 A  
HETATM   11  C   UNL     1     -11.332   6.084  70.850  1.00  0.00    -0.299 A  
HETATM   12  C   UNL     1      -8.386   7.992  72.052  1.00  0.00    -0.179 A  
HETATM   13  C   UNL     1      -7.367   8.809  71.570  1.00  0.00    -0.109 A  
HETATM   14  C   UNL     1      -7.308   9.112  70.217  1.00  0.00    -0.090 A  
HETATM   15  C   UNL     1      -8.276   8.607  69.345  1.00  0.00    -0.113 A  
HETATM   16  C   UNL     1      -9.326   7.777  69.802  1.00  0.00    -0.153 A  
ENDBRANCH   1   7
TORSDOF 2
ENDMDL
MODEL      186
REMARK 921   NORMALIZED FREE ENERGY PREDICTED BY IDOCK:   -2.58 KCAL/MOL
REMARK 922        TOTAL FREE ENERGY PREDICTED BY IDOCK:   -3.17 KCAL/MOL
REMARK 923 INTER-LIGAND FREE ENERGY PREDICTED BY IDOCK:   -2.87 KCAL/MOL
REMARK 924 INTRA-LIGAND FREE ENERGY PREDICTED BY IDOCK:   -0.30 KCAL/MOL
REMARK 927      BINDING AFFINITY PREDICTED BY RF-SCORE:    0.00 PKD
ROOT
HETATM    1  C   UNL     1      -7.248   9.241  70.307  1.00  0.00    -0.087 C  
ENDROOT
BRANCH   1   2
HETATM    2  C   UNL     1      -7.148  10.625  69.713  1.00  0.00    -0.139 C  
HETATM    3  N   UNL     1      -6.483  11.662  70.329  1.00  0.00    -0.172 NA 
HETATM    4  C   UNL     1      -6.893  12.878  69.667  1.00  0.00     0.179 C  
HETATM    5  N   UNL     1      -7.686  10.893  68.547  1.00  0.00    -0.111 NA 
HETATM    6  C   UNL     1      -7.327  12.322  68.308  1.00  0.00    -0.108 C  
ENDBRANCH   1   2
BRANCH   1   7
HETATM    7  C   UNL     1      -8.663   8.711  70.447  1.00  0.00    -0.165 A  
HETATM    8  C   UNL     1      -9.413   9.141  71.557  1.00  0.00    -0.239 A  
HETATM    9  C   UNL     1     -11.249   7.728  70.902  1.00  0.00    -0.284 A  
HETATM   10  C   UNL     1     -10.547   7.308  69.765  1.00  0.00    -0.247 A  
HETATM   11  C   UNL     1     -10.693   8.649  71.786  1.00  0.00    -0.392 A  
HETATM   12  C   UNL     1     -11.136   6.396  68.873  1.00  0.00    -0.420 A  
HETATM   13  C   UNL     1     -10.464   5.975  67.729  1.00  0.00    -0.300 A  
HETATM   14  C   UNL     1      -9.192   6.461  67.460  1.00  0.00    -0.112 A  
HETATM   15  C   UNL     1      -8.587   7.361  68.341  1.00  0.00    -0.124 A  
HETATM   16  C   UNL     1      -9.240   7.806  69.513  1.00  0.00    -0.149 A  
ENDBRANCH   1   7
TORSDOF 2
ENDMDL
MODEL      187
REMARK 921   NORMALIZED FREE ENERGY PREDICTED BY IDOCK:   -2.44 KCAL/MOL
REMARK 922        TOTAL FREE ENERGY PREDICTED BY IDOCK:   -3.01 KCAL/MOL
REMARK 923 INTER-LIGAND FREE ENERGY PREDICTED BY IDOCK:   -2.70 KCAL/MOL
REMARK 924 INTRA-LIGAND FREE ENERGY PREDICTED BY IDOCK:   -0.31 KCAL/MOL
REMARK 927      BINDING AFFINITY PREDICTED BY RF-SCORE:    0.00 PKD
ROOT
HETATM    1  C   UNL     1      -7.903   8.501  67.963  1.00  0.00    -0.103 C  
ENDROOT
BRANCH   1   2
HETATM    2  C   UNL     1      -8.690   9.603  67.296  1.00  0.00    -0.132 C  
HETATM    3  N   UNL     1      -8.655  10.914  67.716  1.00  0.00    -0.127 NA 
HETATM    4  C   UNL     1      -9.770  11.586  67.092  1.00  0.00    -0.183 C  
HETATM    5  N   UNL     1      -9.440   9.350  66.250  1.00  0.00    -0.194 NA 
HETATM    6  C   UNL     1      -9.994  10.684  65.876  1.00  0.00    -0.255 C  
ENDBRANCH   1   2
BRANCH   1   7
HETATM    7  C   UNL     1      -8.733   7.537  68.789  1.00  0.00    -0.128 A  
HETATM    8  C   UNL     1      -9.427   8.058  69.897  1.00  0.00    -0.160 A  
HETATM    9  C   UNL     1     -10.215   5.859  70.477  1.00  0.00    -0.271 A  
HETATM   10  C   UNL     1      -9.569   5.311  69.361  1.00  0.00    -0.215 A  
HETATM   11  C   UNL     1     -10.157   7.225  70.737  1.00  0.00    -0.193 A  
HETATM   12  C   UNL     1      -9.660   3.932  69.103  1.00  0.00    -0.218 A  
HETATM   13  C   UNL     1      -9.040   3.367  67.992  1.00  0.00    -0.208 A  
HETATM   14  C   UNL     1      -8.319   4.174  67.122  1.00  0.00    -0.100 A  
HETATM   15  C   UNL     1      -8.209   5.545  67.369  1.00  0.00    -0.101 A  
HETATM   16  C   UNL     1      -8.825   6.150  68.489  1.00  0.00    -0.113 A  
ENDBRANCH   1   7
TORSDOF 2
ENDMDL
MODEL      188
REMARK 921   NORMALIZED FREE ENERGY PREDICTED BY IDOCK:   -2.25 KCAL/MOL
REMARK 922        TOTAL FREE ENERGY PREDICTED BY IDOCK:   -2.80 KCAL/MOL
REMARK 923 INTER-LIGAND FREE ENERGY PREDICTED BY IDOCK:   -2.74 KCAL/MOL
REMARK 924 INTRA-LIGAND FREE ENERGY PREDICTED BY IDOCK:   -0.06 KCAL/MOL
REMARK 927      BINDING AFFINITY PREDICTED BY RF-SCORE:    0.00 PKD
ROOT
HETATM    1  C   UNL     1      -8.535   5.055  71.469  1.00  0.00    -0.124 C  
ENDROOT
BRANCH   1   2
HETATM    2  C   UNL     1      -9.117   3.666  71.572  1.00  0.00    -0.114 C  
HETATM    3  N   UNL     1     -10.165   3.349  72.406  1.00  0.00    -0.155 NA 
HETATM    4  C   UNL     1     -10.207   1.909  72.500  1.00  0.00    -0.151 C  
HETATM    5  N   UNL     1      -8.647   2.689  70.833  1.00  0.00    -0.057 NA 
HETATM    6  C   UNL     1      -9.506   1.524  71.195  1.00  0.00    -0.118 C  
ENDBRANCH   1   2
BRANCH   1   7
HETATM    7  C   UNL     1      -9.262   5.980  70.511  1.00  0.00    -0.168 A  
HETATM    8  C   UNL     1     -10.377   5.463  69.826  1.00  0.00    -0.375 A  
HETATM    9  C   UNL     1     -10.636   7.533  68.624  1.00  0.00    -0.171 A  
HETATM   10  C   UNL     1      -9.554   8.093  69.315  1.00  0.00    -0.164 A  
HETATM   11  C   UNL     1     -11.056   6.232  68.887  1.00  0.00    -0.434 A  
HETATM   12  C   UNL     1      -9.163   9.417  69.052  1.00  0.00    -0.145 A  
HETATM   13  C   UNL     1      -8.101  10.001  69.736  1.00  0.00    -0.188 A  
HETATM   14  C   UNL     1      -7.414   9.269  70.695  1.00  0.00    -0.145 A  
HETATM   15  C   UNL     1      -7.783   7.948  70.963  1.00  0.00    -0.084 A  
HETATM   16  C   UNL     1      -8.855   7.324  70.284  1.00  0.00    -0.147 A  
ENDBRANCH   1   7
TORSDOF 2
ENDMDL
MODEL      189
REMARK 921   NORMALIZED FREE ENERGY PREDICTED BY IDOCK:   -2.23 KCAL/MOL
REMARK 922        TOTAL FREE ENERGY PREDICTED BY IDOCK:   -2.78 KCAL/MOL
REMARK 923 INTER-LIGAND FREE ENERGY PREDICTED BY IDOCK:   -2.74 KCAL/MOL
REMARK 924 INTRA-LIGAND FREE ENERGY PREDICTED BY IDOCK:   -0.04 KCAL/MOL
REMARK 927      BINDING AFFINITY PREDICTED BY RF-SCORE:    0.00 PKD
ROOT
HETATM    1  C   UNL     1      -9.103  11.830  65.645  1.00  0.00    -0.034 C  
ENDROOT
BRANCH   1   2
HETATM    2  C   UNL     1     -10.368  12.219  64.919  1.00  0.00    -0.290 C  
HETATM    3  N   UNL     1     -11.596  11.660  65.194  1.00  0.00    -0.131 NA 
HETATM    4  C   UNL     1     -12.469  12.002  64.097  1.00  0.00    -0.333 C  
HETATM    5  N   UNL     1     -10.348  13.145  63.990  1.00  0.00    -0.345 NA 
HETATM    6  C   UNL     1     -11.775  13.260  63.569  1.00  0.00    -0.336 C  
ENDBRANCH   1   2
BRANCH   1   7
HETATM    7  C   UNL     1      -8.813  10.341  65.664  1.00  0.00    -0.186 A  
HETATM    8  C   UNL     1      -9.604   9.534  66.503  1.00  0.00    -0.259 A  
HETATM    9  C   UNL     1      -8.322   7.590  65.894  1.00  0.00    -0.140 A  
HETATM   10  C   UNL     1      -7.540   8.355  65.019  1.00  0.00    -0.094 A  
HETATM   11  C   UNL     1      -9.358   8.171  66.620  1.00  0.00    -0.250 A  
HETATM   12  C   UNL     1      -6.515   7.744  64.276  1.00  0.00    -0.056 A  
HETATM   13  C   UNL     1      -5.734   8.480  63.389  1.00  0.00    -0.072 A  
HETATM   14  C   UNL     1      -5.967   9.840  63.233  1.00  0.00    -0.107 A  
HETATM   15  C   UNL     1      -6.975  10.466  63.971  1.00  0.00     0.025 A  
HETATM   16  C   UNL     1      -7.784   9.748  64.882  1.00  0.00    -0.127 A  
ENDBRANCH   1   7
TORSDOF 2
ENDMDL
MODEL      190
REMARK 921   NORMALIZED FREE ENERGY PREDICTED BY IDOCK:   -2.21 KCAL/MOL
REMARK 922        TOTAL FREE ENERGY PREDICTED BY IDOCK:   -2.76 KCAL/MOL
REMARK 923 INTER-LIGAND FREE ENERGY PREDICTED BY IDOCK:   -2.70 KCAL/MOL
REMARK 924 INTRA-LIGAND FREE ENERGY PREDICTED BY IDOCK:   -0.06 KCAL/MOL
REMARK 927      BINDING AFFINITY PREDICTED BY RF-SCORE:    0.00 PKD
ROOT
HETATM    1  C   UNL     1      -8.604   4.785  71.524  1.00  0.00    -0.125 C  
ENDROOT
BRANCH   1   2
HETATM    2  C   UNL     1      -8.961   3.415  72.049  1.00  0.00    -0.100 C  
HETATM    3  N   UNL     1      -9.923   2.616  71.475  1.00  0.00    -0.119 NA 
HETATM    4  C   UNL     1     -10.230   1.575  72.429  1.00  0.00    -0.147 C  
HETATM    5  N   UNL     1      -8.334   2.913  73.087  1.00  0.00    -0.074 NA 
HETATM    6  C   UNL     1      -8.937   1.558  73.247  1.00  0.00    -0.062 C  
ENDBRANCH   1   2
BRANCH   1   7
HETATM    7  C   UNL     1      -9.524   5.308  70.438  1.00  0.00    -0.222 A  
HETATM    8  C   UNL     1     -10.497   6.256  70.808  1.00  0.00    -0.273 A  
HETATM    9  C   UNL     1     -11.370   6.281  68.564  1.00  0.00    -0.149 A  
HETATM   10  C   UNL     1     -10.390   5.368  68.151  1.00  0.00    -0.210 A  
HETATM   11  C   UNL     1     -11.415   6.734  69.880  1.00  0.00    -0.355 A  
HETATM   12  C   UNL     1     -10.347   4.942  66.813  1.00  0.00    -0.264 A  
HETATM   13  C   UNL     1      -9.374   4.048  66.375  1.00  0.00    -0.186 A  
HETATM   14  C   UNL     1      -8.429   3.566  67.271  1.00  0.00    -0.103 A  
HETATM   15  C   UNL     1      -8.464   3.971  68.608  1.00  0.00    -0.102 A  
HETATM   16  C   UNL     1      -9.440   4.876  69.085  1.00  0.00    -0.205 A  
ENDBRANCH   1   7
TORSDOF 2
ENDMDL
MODEL      191
REMARK 921   NORMALIZED FREE ENERGY PREDICTED BY IDOCK:   -1.93 KCAL/MOL
REMARK 922        TOTAL FREE ENERGY PREDICTED BY IDOCK:   -2.44 KCAL/MOL
REMARK 923 INTER-LIGAND FREE ENERGY PREDICTED BY IDOCK:   -2.19 KCAL/MOL
REMARK 924 INTRA-LIGAND FREE ENERGY PREDICTED BY IDOCK:   -0.25 KCAL/MOL
REMARK 927      BINDING AFFINITY PREDICTED BY RF-SCORE:    0.00 PKD
ROOT
HETATM    1  C   UNL     1      -7.202  10.929  67.638  1.00  0.00    -0.093 C  
ENDROOT
BRANCH   1   2
HETATM    2  C   UNL     1      -6.874  12.330  68.098  1.00  0.00    -0.078 C  
HETATM    3  N   UNL     1      -6.301  12.607  69.318  1.00  0.00    -0.103 NA 
HETATM    4  C   UNL     1      -6.465  14.023  69.548  1.00  0.00    -0.122 C  
HETATM    5  N   UNL     1      -7.109  13.360  67.320  1.00  0.00    -0.078 NA 
HETATM    6  C   UNL     1      -6.610  14.524  68.109  1.00  0.00    -0.136 C  
ENDBRANCH   1   2
BRANCH   1   7
HETATM    7  C   UNL     1      -8.362  10.278  68.365  1.00  0.00    -0.119 A  
HETATM    8  C   UNL     1      -9.501  11.066  68.614  1.00  0.00    -0.197 A  
HETATM    9  C   UNL     1     -10.540   9.246  69.799  1.00  0.00    -0.244 A  
HETATM   10  C   UNL     1      -9.439   8.420  69.536  1.00  0.00    -0.166 A  
HETATM   11  C   UNL     1     -10.579  10.556  69.330  1.00  0.00    -0.265 A  
HETATM   12  C   UNL     1      -9.432   7.092  69.998  1.00  0.00    -0.164 A  
HETATM   13  C   UNL     1      -8.356   6.248  69.736  1.00  0.00    -0.125 A  
HETATM   14  C   UNL     1      -7.273   6.719  69.007  1.00  0.00    -0.091 A  
HETATM   15  C   UNL     1      -7.259   8.039  68.549  1.00  0.00    -0.085 A  
HETATM   16  C   UNL     1      -8.334   8.923  68.800  1.00  0.00    -0.123 A  
ENDBRANCH   1   7
TORSDOF 2
ENDMDL
MODEL      192
REMARK 921   NORMALIZED FREE ENERGY PREDICTED BY IDOCK:   -1.92 KCAL/MOL
REMARK 922        TOTAL FREE ENERGY PREDICTED BY IDOCK:   -2.44 KCAL/MOL
REMARK 923 INTER-LIGAND FREE ENERGY PREDICTED BY IDOCK:   -2.16 KCAL/MOL
REMARK 924 INTRA-LIGAND FREE ENERGY PREDICTED BY IDOCK:   -0.28 KCAL/MOL
REMARK 927      BINDING AFFINITY PREDICTED BY RF-SCORE:    0.00 PKD
ROOT
HETATM    1  C   UNL     1      -8.899   8.339  71.591  1.00  0.00    -0.224 C  
ENDROOT
BRANCH   1   2
HETATM    2  C   UNL     1     -10.307   7.800  71.663  1.00  0.00    -0.197 C  
HETATM    3  N   UNL     1     -11.417   8.550  71.348  1.00  0.00    -0.273 NA 
HETATM    4  C   UNL     1     -12.565   7.842  71.865  1.00  0.00    -0.319 C  
HETATM    5  N   UNL     1     -10.529   6.556  72.018  1.00  0.00    -0.200 NA 
HETATM    6  C   UNL     1     -12.011   6.416  71.918  1.00  0.00    -0.329 C  
ENDBRANCH   1   2
BRANCH   1   7
HETATM    7  C   UNL     1      -8.032   7.710  70.516  1.00  0.00    -0.100 A  
HETATM    8  C   UNL     1      -8.090   8.265  69.224  1.00  0.00    -0.116 A  
HETATM    9  C   UNL     1      -6.576   6.584  68.401  1.00  0.00    -0.059 A  
HETATM   10  C   UNL     1      -6.463   6.029  69.682  1.00  0.00    -0.042 A  
HETATM   11  C   UNL     1      -7.372   7.704  68.174  1.00  0.00    -0.099 A  
HETATM   12  C   UNL     1      -5.635   4.914  69.893  1.00  0.00    -0.015 A  
HETATM   13  C   UNL     1      -5.494   4.354  71.160  1.00  0.00    -0.007 A  
HETATM   14  C   UNL     1      -6.182   4.902  72.235  1.00  0.00    -0.029 A  
HETATM   15  C   UNL     1      -7.018   6.005  72.041  1.00  0.00    -0.078 A  
HETATM   16  C   UNL     1      -7.184   6.595  70.767  1.00  0.00    -0.070 A  
ENDBRANCH   1   7
TORSDOF 2
ENDMDL
MODEL      193
REMARK 921   NORMALIZED FREE ENERGY PREDICTED BY IDOCK:   -1.07 KCAL/MOL
REMARK 922        TOTAL FREE ENERGY PREDICTED BY IDOCK:   -1.48 KCAL/MOL
REMARK 923 INTER-LIGAND FREE ENERGY PREDICTED BY IDOCK:   -2.55 KCAL/MOL
REMARK 924 INTRA-LIGAND FREE ENERGY PREDICTED BY IDOCK:    1.07 KCAL/MOL
REMARK 927      BINDING AFFINITY PREDICTED BY RF-SCORE:    0.00 PKD
ROOT
HETATM    1  C   UNL     1      -9.072  13.501  68.334  1.00  0.00    -0.155 C  
ENDROOT
BRANCH   1   2
HETATM    2  C   UNL     1      -8.450  14.782  67.833  1.00  0.00    -0.155 C  
HETATM    3  N   UNL     1      -9.164  15.945  67.656  1.00  0.00    -0.207 NA 
HETATM    4  C   UNL     1      -8.346  16.822  66.851  1.00  0.00    -0.209 C  
HETATM    5  N   UNL     1      -7.168  14.841  67.563  1.00  0.00    -0.192 NA 
HETATM    6  C   UNL     1      -6.954  16.260  67.153  1.00  0.00    -0.208 C  
ENDBRANCH   1   2
BRANCH   1   7
HETATM    7  C   UNL     1      -8.236  12.256  68.106  1.00  0.00    -0.168 A  
HETATM    8  C   UNL     1      -6.992  12.415  67.466  1.00  0.00    -0.142 A  
HETATM    9  C   UNL     1      -6.631  10.035  67.512  1.00  0.00    -0.068 A  
HETATM   10  C   UNL     1      -7.844   9.843  68.184  1.00  0.00    -0.085 A  
HETATM   11  C   UNL     1      -6.199  11.313  67.167  1.00  0.00    -0.096 A  
HETATM   12  C   UNL     1      -8.250   8.546  68.545  1.00  0.00    -0.123 A  
HETATM   13  C   UNL     1      -9.444   8.332  69.227  1.00  0.00    -0.155 A  
HETATM   14  C   UNL     1     -10.251   9.412  69.559  1.00  0.00    -0.219 A  
HETATM   15  C   UNL     1      -9.868  10.707  69.199  1.00  0.00    -0.217 A  
HETATM   16  C   UNL     1      -8.663  10.959  68.504  1.00  0.00    -0.153 A  
ENDBRANCH   1   7
TORSDOF 2
ENDMDL
MODEL      194
REMARK 921   NORMALIZED FREE ENERGY PREDICTED BY IDOCK:    4.70 KCAL/MOL
REMARK 922        TOTAL FREE ENERGY PREDICTED BY IDOCK:    4.96 KCAL/MOL
REMARK 923 INTER-LIGAND FREE ENERGY PREDICTED BY IDOCK:    5.10 KCAL/MOL
REMARK 924 INTRA-LIGAND FREE ENERGY PREDICTED BY IDOCK:   -0.14 KCAL/MOL
REMARK 927      BINDING AFFINITY PREDICTED BY RF-SCORE:    0.00 PKD
ROOT
HETATM    1  C   UNL     1      -7.951  13.038  68.330  1.00  0.00    -0.135 C  
ENDROOT
BRANCH   1   2
HETATM    2  C   UNL     1      -7.283  13.633  69.546  1.00  0.00     0.238 C  
HETATM    3  N   UNL     1      -5.924  13.834  69.635  1.00  0.00    -0.106 NA 
HETATM    4  C   UNL     1      -5.625  14.072  71.028  1.00  0.00    -0.199 C  
HETATM    5  N   UNL     1      -7.995  14.011  70.582  1.00  0.00     2.353 NA 
HETATM    6  C   UNL     1      -6.983  14.574  71.523  1.00  0.00     1.782 C  
ENDBRANCH   1   2
BRANCH   1   7
HETATM    7  C   UNL     1      -9.050  12.037  68.634  1.00  0.00    -0.030 A  
HETATM    8  C   UNL     1      -8.685  10.683  68.752  1.00  0.00    -0.157 A  
HETATM    9  C   UNL     1     -10.986  10.059  69.079  1.00  0.00    -0.249 A  
HETATM   10  C   UNL     1     -11.382  11.401  69.006  1.00  0.00    -0.345 A  
HETATM   11  C   UNL     1      -9.645   9.702  68.967  1.00  0.00    -0.168 A  
HETATM   12  C   UNL     1     -12.738  11.741  69.146  1.00  0.00     0.822 A  
HETATM   13  C   UNL     1     -13.154  13.069  69.093  1.00  0.00     2.016 A  
HETATM   14  C   UNL     1     -12.218  14.076  68.899  1.00  0.00    -0.261 A  
HETATM   15  C   UNL     1     -10.867  13.754  68.748  1.00  0.00    -0.281 A  
HETATM   16  C   UNL     1     -10.412  12.416  68.794  1.00  0.00    -0.179 A  
ENDBRANCH   1   7
TORSDOF 2
ENDMDL
MODEL      195
REMARK 921   NORMALIZED FREE ENERGY PREDICTED BY IDOCK:   12.09 KCAL/MOL
REMARK 922        TOTAL FREE ENERGY PREDICTED BY IDOCK:   13.21 KCAL/MOL
REMARK 923 INTER-LIGAND FREE ENERGY PREDICTED BY IDOCK:   13.37 KCAL/MOL
REMARK 924 INTRA-LIGAND FREE ENERGY PREDICTED BY IDOCK:   -0.16 KCAL/MOL
REMARK 927      BINDING AFFINITY PREDICTED BY RF-SCORE:    0.00 PKD
ROOT
HETATM    1  C   UNL     1     -11.106   7.512  70.943  1.00  0.00    -0.279 C  
ENDROOT
BRANCH   1   2
HETATM    2  C   UNL     1     -11.618   6.874  69.675  1.00  0.00    -0.095 C  
HETATM    3  N   UNL     1     -10.905   6.862  68.497  1.00  0.00    -0.204 NA 
HETATM    4  C   UNL     1     -11.830   6.499  67.449  1.00  0.00     1.596 C  
HETATM    5  N   UNL     1     -12.783   6.272  69.653  1.00  0.00     2.522 NA 
HETATM    6  C   UNL     1     -12.889   5.749  68.260  1.00  0.00    10.998 C  
ENDBRANCH   1   2
BRANCH   1   7
HETATM    7  C   UNL     1      -9.633   7.278  71.223  1.00  0.00    -0.164 A  
HETATM    8  C   UNL     1      -8.710   8.166  70.642  1.00  0.00    -0.136 A  
HETATM    9  C   UNL     1      -6.875   6.905  71.556  1.00  0.00    -0.065 A  
HETATM   10  C   UNL     1      -7.766   6.023  72.181  1.00  0.00    -0.101 A  
HETATM   11  C   UNL     1      -7.342   7.978  70.803  1.00  0.00    -0.057 A  
HETATM   12  C   UNL     1      -7.273   4.960  72.957  1.00  0.00    -0.085 A  
HETATM   13  C   UNL     1      -8.138   4.080  73.601  1.00  0.00    -0.089 A  
HETATM   14  C   UNL     1      -9.510   4.251  73.478  1.00  0.00    -0.127 A  
HETATM   15  C   UNL     1     -10.018   5.296  72.702  1.00  0.00    -0.197 A  
HETATM   16  C   UNL     1      -9.167   6.206  72.033  1.00  0.00    -0.148 A  
ENDBRANCH   1   7
TORSDOF 2
ENDMDL
