MODEL        1
REMARK 921   NORMALIZED FREE ENERGY PREDICTED BY IDOCK:   -6.99 KCAL/MOL
REMARK 922        TOTAL FREE ENERGY PREDICTED BY IDOCK:   -9.37 KCAL/MOL
REMARK 923 INTER-LIGAND FREE ENERGY PREDICTED BY IDOCK:   -9.03 KCAL/MOL
REMARK 924 INTRA-LIGAND FREE ENERGY PREDICTED BY IDOCK:   -0.34 KCAL/MOL
REMARK 927      BINDING AFFINITY PREDICTED BY RF-SCORE:    0.00 PKD
ROOT
HETATM    1  C   UNL     1     -10.439   7.532  73.082  1.00  0.00    -0.364 C  
HETATM    2  N   UNL     1     -11.833   7.114  72.907  1.00  0.00    -0.522 N  
HETATM    3  H   UNL     1     -12.328   6.606  73.640  1.00  0.00     0.000 HD 
ENDROOT
BRANCH   2   4
HETATM    4  S   UNL     1     -12.586   7.504  71.448  1.00  0.00    -0.337 S  
HETATM    5  O   UNL     1     -14.013   7.414  71.663  1.00  0.00    -0.400 OA 
HETATM    6  O   UNL     1     -11.920   6.717  70.437  1.00  0.00    -0.396 OA 
BRANCH   4   7
HETATM    7  C   UNL     1     -12.119   9.213  71.254  1.00  0.00    -0.323 C  
BRANCH   7   8
HETATM    8  C   UNL     1     -13.041  10.131  72.043  1.00  0.00    -0.538 C  
BRANCH   8   9
HETATM    9  C   UNL     1     -12.985  11.580  71.600  1.00  0.00    -0.499 A  
HETATM   10  C   UNL     1     -12.206  11.924  70.475  1.00  0.00    -0.426 A  
HETATM   11  C   UNL     1     -12.089  13.273  70.066  1.00  0.00    -0.385 A  
HETATM   12  C   UNL     1     -12.797  14.231  70.791  1.00  0.00    -0.337 A  
HETATM   13  C   UNL     1     -13.568  13.931  71.913  1.00  0.00    -0.516 A  
HETATM   14  N   UNL     1     -12.570  15.445  70.201  1.00  0.00    -0.589 NA 
HETATM   15  C   UNL     1     -13.634  12.596  72.313  1.00  0.00    -0.508 A  
HETATM   16  H   UNL     1     -12.958  16.332  70.520  1.00  0.00     0.000 HD 
HETATM   17  C   UNL     1     -11.747  15.292  69.123  1.00  0.00    -0.335 A  
HETATM   18  C   UNL     1     -11.355  13.966  69.035  1.00  0.00    -0.324 A  
BRANCH  18  19
HETATM   19  C   UNL     1     -10.362  13.383  68.038  1.00  0.00    -0.242 C  
HETATM   20  C   UNL     1     -10.921  12.194  67.229  1.00  0.00    -0.308 C  
HETATM   21  C   UNL     1     -11.954  12.636  66.180  1.00  0.00    -0.395 C  
HETATM   22  N   UNL     1     -11.488  13.691  65.273  1.00  0.00    -0.303 NA 
HETATM   23  C   UNL     1     -10.905  14.819  66.012  1.00  0.00    -0.318 C  
HETATM   24  C   UNL     1     -10.600  13.173  64.239  1.00  0.00    -0.412 C  
HETATM   25  C   UNL     1      -9.832  14.413  67.026  1.00  0.00    -0.252 C  
ENDBRANCH  18  19
ENDBRANCH   8   9
ENDBRANCH   7   8
ENDBRANCH   4   7
ENDBRANCH   2   4
TORSDOF 5
ENDMDL
MODEL        2
REMARK 921   NORMALIZED FREE ENERGY PREDICTED BY IDOCK:   -6.95 KCAL/MOL
REMARK 922        TOTAL FREE ENERGY PREDICTED BY IDOCK:   -9.32 KCAL/MOL
REMARK 923 INTER-LIGAND FREE ENERGY PREDICTED BY IDOCK:   -8.97 KCAL/MOL
REMARK 924 INTRA-LIGAND FREE ENERGY PREDICTED BY IDOCK:   -0.35 KCAL/MOL
REMARK 927      BINDING AFFINITY PREDICTED BY RF-SCORE:    0.00 PKD
ROOT
HETATM    1  C   UNL     1     -12.415  16.258  74.311  1.00  0.00    -0.506 C  
HETATM    2  N   UNL     1     -12.458  14.908  73.741  1.00  0.00    -0.500 N  
HETATM    3  H   UNL     1     -11.863  14.163  74.103  1.00  0.00     0.000 HD 
ENDROOT
BRANCH   2   4
HETATM    4  S   UNL     1     -13.529  14.635  72.465  1.00  0.00    -0.496 S  
HETATM    5  O   UNL     1     -14.310  15.840  72.294  1.00  0.00    -0.494 OA 
HETATM    6  O   UNL     1     -14.150  13.360  72.738  1.00  0.00    -0.715 OA 
BRANCH   4   7
HETATM    7  C   UNL     1     -12.405  14.452  71.094  1.00  0.00    -0.358 C  
BRANCH   7   8
HETATM    8  C   UNL     1     -11.569  15.708  70.893  1.00  0.00    -0.424 C  
BRANCH   8   9
HETATM    9  C   UNL     1     -11.258  16.009  69.440  1.00  0.00    -0.349 A  
HETATM   10  C   UNL     1     -11.564  15.043  68.459  1.00  0.00    -0.348 A  
HETATM   11  C   UNL     1     -11.239  15.268  67.101  1.00  0.00    -0.291 A  
HETATM   12  C   UNL     1     -10.644  16.486  66.774  1.00  0.00    -0.224 A  
HETATM   13  C   UNL     1     -10.316  17.459  67.716  1.00  0.00    -0.358 A  
HETATM   14  N   UNL     1     -10.456  16.502  65.418  1.00  0.00    -0.602 NA 
HETATM   15  C   UNL     1     -10.617  17.192  69.052  1.00  0.00    -0.282 A  
HETATM   16  H   UNL     1     -10.035  17.269  64.894  1.00  0.00     0.000 HD 
HETATM   17  C   UNL     1     -10.916  15.339  64.871  1.00  0.00    -0.430 A  
HETATM   18  C   UNL     1     -11.349  14.499  65.885  1.00  0.00    -0.341 A  
BRANCH  18  19
HETATM   19  C   UNL     1     -11.845  13.069  65.721  1.00  0.00    -0.453 C  
HETATM   20  C   UNL     1     -11.571  12.474  64.324  1.00  0.00    -0.435 C  
HETATM   21  C   UNL     1     -10.084  12.148  64.109  1.00  0.00    -0.308 C  
HETATM   22  N   UNL     1      -9.491  11.298  65.147  1.00  0.00    -0.222 NA 
HETATM   23  C   UNL     1      -9.775  11.812  66.493  1.00  0.00    -0.206 C  
HETATM   24  C   UNL     1      -9.862   9.897  64.988  1.00  0.00    -0.252 C  
HETATM   25  C   UNL     1     -11.257  12.093  66.755  1.00  0.00    -0.375 C  
ENDBRANCH  18  19
ENDBRANCH   8   9
ENDBRANCH   7   8
ENDBRANCH   4   7
ENDBRANCH   2   4
TORSDOF 5
ENDMDL
MODEL        3
REMARK 921   NORMALIZED FREE ENERGY PREDICTED BY IDOCK:   -6.92 KCAL/MOL
REMARK 922        TOTAL FREE ENERGY PREDICTED BY IDOCK:   -9.29 KCAL/MOL
REMARK 923 INTER-LIGAND FREE ENERGY PREDICTED BY IDOCK:   -8.97 KCAL/MOL
REMARK 924 INTRA-LIGAND FREE ENERGY PREDICTED BY IDOCK:   -0.32 KCAL/MOL
REMARK 927      BINDING AFFINITY PREDICTED BY RF-SCORE:    0.00 PKD
ROOT
HETATM    1  C   UNL     1     -10.994   6.001  70.035  1.00  0.00    -0.380 C  
HETATM    2  N   UNL     1     -12.062   7.005  70.011  1.00  0.00    -0.606 N  
HETATM    3  H   UNL     1     -12.545   7.242  69.144  1.00  0.00     0.000 HD 
ENDROOT
BRANCH   2   4
HETATM    4  S   UNL     1     -12.461   7.754  71.470  1.00  0.00    -0.324 S  
HETATM    5  O   UNL     1     -11.533   7.271  72.469  1.00  0.00    -0.289 OA 
HETATM    6  O   UNL     1     -13.888   7.593  71.619  1.00  0.00    -0.375 OA 
BRANCH   4   7
HETATM    7  C   UNL     1     -12.104   9.461  71.101  1.00  0.00    -0.328 C  
BRANCH   7   8
HETATM    8  C   UNL     1     -12.957  10.398  71.943  1.00  0.00    -0.555 C  
BRANCH   8   9
HETATM    9  C   UNL     1     -12.922  11.840  71.477  1.00  0.00    -0.446 A  
HETATM   10  C   UNL     1     -12.152  12.177  70.344  1.00  0.00    -0.395 A  
HETATM   11  C   UNL     1     -12.053  13.520  69.912  1.00  0.00    -0.408 A  
HETATM   12  C   UNL     1     -12.771  14.480  70.625  1.00  0.00    -0.360 A  
HETATM   13  C   UNL     1     -13.534  14.189  71.754  1.00  0.00    -0.471 A  
HETATM   14  N   UNL     1     -12.562  15.687  70.015  1.00  0.00    -0.554 NA 
HETATM   15  C   UNL     1     -13.582  12.859  72.176  1.00  0.00    -0.589 A  
HETATM   16  H   UNL     1     -12.960  16.575  70.321  1.00  0.00     0.000 HD 
HETATM   17  C   UNL     1     -11.741  15.528  68.937  1.00  0.00    -0.370 A  
HETATM   18  C   UNL     1     -11.331  14.206  68.868  1.00  0.00    -0.308 A  
BRANCH  18  19
HETATM   19  C   UNL     1     -10.334  13.620  67.877  1.00  0.00    -0.249 C  
HETATM   20  C   UNL     1     -10.809  12.306  67.223  1.00  0.00    -0.283 C  
HETATM   21  C   UNL     1     -11.931  12.538  66.197  1.00  0.00    -0.366 C  
HETATM   22  N   UNL     1     -11.616  13.533  65.166  1.00  0.00    -0.308 NA 
HETATM   23  C   UNL     1     -11.114  14.781  65.756  1.00  0.00    -0.338 C  
HETATM   24  C   UNL     1     -10.731  12.998  64.138  1.00  0.00    -0.402 C  
HETATM   25  C   UNL     1      -9.958  14.586  66.740  1.00  0.00    -0.267 C  
ENDBRANCH  18  19
ENDBRANCH   8   9
ENDBRANCH   7   8
ENDBRANCH   4   7
ENDBRANCH   2   4
TORSDOF 5
ENDMDL
MODEL        4
REMARK 921   NORMALIZED FREE ENERGY PREDICTED BY IDOCK:   -6.87 KCAL/MOL
REMARK 922        TOTAL FREE ENERGY PREDICTED BY IDOCK:   -9.23 KCAL/MOL
REMARK 923 INTER-LIGAND FREE ENERGY PREDICTED BY IDOCK:   -8.77 KCAL/MOL
REMARK 924 INTRA-LIGAND FREE ENERGY PREDICTED BY IDOCK:   -0.46 KCAL/MOL
REMARK 927      BINDING AFFINITY PREDICTED BY RF-SCORE:    0.00 PKD
ROOT
HETATM    1  C   UNL     1     -12.459  12.060  63.430  1.00  0.00    -0.509 C  
HETATM    2  N   UNL     1     -12.269  13.486  63.151  1.00  0.00    -0.999 N  
HETATM    3  H   UNL     1     -12.146  13.826  62.197  1.00  0.00     0.000 HD 
ENDROOT
BRANCH   2   4
HETATM    4  S   UNL     1     -12.263  14.544  64.466  1.00  0.00    -0.401 S  
HETATM    5  O   UNL     1     -13.375  14.180  65.316  1.00  0.00    -0.715 OA 
HETATM    6  O   UNL     1     -12.137  15.869  63.907  1.00  0.00    -0.768 OA 
BRANCH   4   7
HETATM    7  C   UNL     1     -10.732  14.104  65.267  1.00  0.00    -0.364 C  
BRANCH   7   8
HETATM    8  C   UNL     1     -10.310  15.164  66.274  1.00  0.00    -0.303 C  
BRANCH   8   9
HETATM    9  C   UNL     1     -10.868  14.941  67.666  1.00  0.00    -0.286 A  
HETATM   10  C   UNL     1     -11.161  13.626  68.085  1.00  0.00    -0.281 A  
HETATM   11  C   UNL     1     -11.732  13.386  69.356  1.00  0.00    -0.382 A  
HETATM   12  C   UNL     1     -11.957  14.488  70.181  1.00  0.00    -0.315 A  
HETATM   13  C   UNL     1     -11.691  15.802  69.798  1.00  0.00    -0.355 A  
HETATM   14  N   UNL     1     -12.472  14.022  71.360  1.00  0.00    -0.359 NA 
HETATM   15  C   UNL     1     -11.161  16.008  68.523  1.00  0.00    -0.374 A  
HETATM   16  H   UNL     1     -12.738  14.605  72.154  1.00  0.00     0.000 HD 
HETATM   17  C   UNL     1     -12.577  12.662  71.317  1.00  0.00    -0.240 A  
HETATM   18  C   UNL     1     -12.199  12.216  70.060  1.00  0.00    -0.270 A  
BRANCH  18  19
HETATM   19  C   UNL     1     -12.261  10.781  69.556  1.00  0.00    -0.292 C  
HETATM   20  C   UNL     1     -10.999  10.340  68.784  1.00  0.00    -0.285 C  
HETATM   21  C   UNL     1      -9.792  10.127  69.712  1.00  0.00    -0.208 C  
HETATM   22  N   UNL     1     -10.042   9.219  70.837  1.00  0.00    -0.283 NA 
HETATM   23  C   UNL     1     -11.265   9.584  71.565  1.00  0.00    -0.367 C  
HETATM   24  C   UNL     1     -10.024   7.820  70.428  1.00  0.00    -0.188 C  
HETATM   25  C   UNL     1     -12.497   9.747  70.671  1.00  0.00    -0.220 C  
ENDBRANCH  18  19
ENDBRANCH   8   9
ENDBRANCH   7   8
ENDBRANCH   4   7
ENDBRANCH   2   4
TORSDOF 5
ENDMDL
MODEL        5
REMARK 921   NORMALIZED FREE ENERGY PREDICTED BY IDOCK:   -6.86 KCAL/MOL
REMARK 922        TOTAL FREE ENERGY PREDICTED BY IDOCK:   -9.21 KCAL/MOL
REMARK 923 INTER-LIGAND FREE ENERGY PREDICTED BY IDOCK:   -8.69 KCAL/MOL
REMARK 924 INTRA-LIGAND FREE ENERGY PREDICTED BY IDOCK:   -0.52 KCAL/MOL
REMARK 927      BINDING AFFINITY PREDICTED BY RF-SCORE:    0.00 PKD
ROOT
HETATM    1  C   UNL     1     -11.221  15.841  70.873  1.00  0.00    -0.366 C  
HETATM    2  N   UNL     1     -11.874  16.502  72.006  1.00  0.00    -0.643 N  
HETATM    3  H   UNL     1     -11.692  17.482  72.224  1.00  0.00     0.000 HD 
ENDROOT
BRANCH   2   4
HETATM    4  S   UNL     1     -12.939  15.581  72.937  1.00  0.00    -0.534 S  
HETATM    5  O   UNL     1     -14.027  16.449  73.331  1.00  0.00    -0.444 OA 
HETATM    6  O   UNL     1     -12.122  14.898  73.912  1.00  0.00    -0.471 OA 
BRANCH   4   7
HETATM    7  C   UNL     1     -13.523  14.397  71.739  1.00  0.00    -0.373 C  
BRANCH   7   8
HETATM    8  C   UNL     1     -13.540  12.989  72.316  1.00  0.00    -0.643 C  
BRANCH   8   9
HETATM    9  C   UNL     1     -12.844  11.964  71.443  1.00  0.00    -0.411 A  
HETATM   10  C   UNL     1     -12.054  12.406  70.361  1.00  0.00    -0.381 A  
HETATM   11  C   UNL     1     -11.433  11.476  69.495  1.00  0.00    -0.378 A  
HETATM   12  C   UNL     1     -11.604  10.121  69.775  1.00  0.00    -0.182 A  
HETATM   13  C   UNL     1     -12.385   9.645  70.827  1.00  0.00    -0.279 A  
HETATM   14  N   UNL     1     -10.893   9.415  68.843  1.00  0.00    -0.383 NA 
HETATM   15  C   UNL     1     -13.013  10.588  71.642  1.00  0.00    -0.581 A  
HETATM   16  H   UNL     1     -10.835   8.398  68.797  1.00  0.00     0.000 HD 
HETATM   17  C   UNL     1     -10.272  10.274  67.983  1.00  0.00    -0.169 A  
HETATM   18  C   UNL     1     -10.634  11.574  68.297  1.00  0.00    -0.228 A  
BRANCH  18  19
HETATM   19  C   UNL     1     -10.245  12.830  67.529  1.00  0.00    -0.216 C  
HETATM   20  C   UNL     1      -9.873  12.565  66.055  1.00  0.00    -0.266 C  
HETATM   21  C   UNL     1     -11.102  12.230  65.194  1.00  0.00    -0.317 C  
HETATM   22  N   UNL     1     -12.187  13.213  65.274  1.00  0.00    -0.428 NA 
HETATM   23  C   UNL     1     -12.534  13.524  66.668  1.00  0.00    -0.208 C  
HETATM   24  C   UNL     1     -11.908  14.406  64.482  1.00  0.00    -0.449 C  
HETATM   25  C   UNL     1     -11.335  13.916  67.536  1.00  0.00    -0.342 C  
ENDBRANCH  18  19
ENDBRANCH   8   9
ENDBRANCH   7   8
ENDBRANCH   4   7
ENDBRANCH   2   4
TORSDOF 5
ENDMDL
MODEL        6
REMARK 921   NORMALIZED FREE ENERGY PREDICTED BY IDOCK:   -6.85 KCAL/MOL
REMARK 922        TOTAL FREE ENERGY PREDICTED BY IDOCK:   -9.20 KCAL/MOL
REMARK 923 INTER-LIGAND FREE ENERGY PREDICTED BY IDOCK:   -8.77 KCAL/MOL
REMARK 924 INTRA-LIGAND FREE ENERGY PREDICTED BY IDOCK:   -0.43 KCAL/MOL
REMARK 927      BINDING AFFINITY PREDICTED BY RF-SCORE:    0.00 PKD
ROOT
HETATM    1  C   UNL     1     -11.478  15.708  64.442  1.00  0.00    -0.262 C  
HETATM    2  N   UNL     1     -12.328  14.687  63.824  1.00  0.00    -1.092 N  
HETATM    3  H   UNL     1     -13.073  14.941  63.174  1.00  0.00     0.000 HD 
ENDROOT
BRANCH   2   4
HETATM    4  S   UNL     1     -12.029  13.075  64.228  1.00  0.00    -0.431 S  
HETATM    5  O   UNL     1     -11.043  12.574  63.296  1.00  0.00    -0.438 OA 
HETATM    6  O   UNL     1     -13.326  12.456  64.366  1.00  0.00    -0.789 OA 
BRANCH   4   7
HETATM    7  C   UNL     1     -11.293  13.246  65.842  1.00  0.00    -0.311 C  
BRANCH   7   8
HETATM    8  C   UNL     1     -10.526  11.992  66.235  1.00  0.00    -0.273 C  
BRANCH   8   9
HETATM    9  C   UNL     1     -10.916  11.437  67.591  1.00  0.00    -0.303 A  
HETATM   10  C   UNL     1     -11.713  12.223  68.450  1.00  0.00    -0.390 A  
HETATM   11  C   UNL     1     -12.052  11.760  69.743  1.00  0.00    -0.338 A  
HETATM   12  C   UNL     1     -11.600  10.494  70.113  1.00  0.00    -0.326 A  
HETATM   13  C   UNL     1     -10.802   9.693  69.297  1.00  0.00    -0.227 A  
HETATM   14  N   UNL     1     -12.072  10.239  71.372  1.00  0.00    -0.377 NA 
HETATM   15  C   UNL     1     -10.455  10.194  68.042  1.00  0.00    -0.249 A  
HETATM   16  H   UNL     1     -11.896   9.386  71.903  1.00  0.00     0.000 HD 
HETATM   17  C   UNL     1     -12.813  11.297  71.814  1.00  0.00    -0.360 A  
HETATM   18  C   UNL     1     -12.773  12.307  70.866  1.00  0.00    -0.277 A  
BRANCH  18  19
HETATM   19  C   UNL     1     -13.384  13.696  71.002  1.00  0.00    -0.111 C  
HETATM   20  C   UNL     1     -13.773  14.063  72.449  1.00  0.00    -0.669 C  
HETATM   21  C   UNL     1     -12.545  14.347  73.330  1.00  0.00    -0.227 C  
HETATM   22  N   UNL     1     -11.622  15.348  72.783  1.00  0.00    -0.439 NA 
HETATM   23  C   UNL     1     -11.269  15.052  71.388  1.00  0.00    -0.202 C  
HETATM   24  C   UNL     1     -12.116  16.707  72.965  1.00  0.00    -0.264 C  
HETATM   25  C   UNL     1     -12.476  14.820  70.475  1.00  0.00    -0.411 C  
ENDBRANCH  18  19
ENDBRANCH   8   9
ENDBRANCH   7   8
ENDBRANCH   4   7
ENDBRANCH   2   4
TORSDOF 5
ENDMDL
MODEL        7
REMARK 921   NORMALIZED FREE ENERGY PREDICTED BY IDOCK:   -6.71 KCAL/MOL
REMARK 922        TOTAL FREE ENERGY PREDICTED BY IDOCK:   -9.01 KCAL/MOL
REMARK 923 INTER-LIGAND FREE ENERGY PREDICTED BY IDOCK:   -8.78 KCAL/MOL
REMARK 924 INTRA-LIGAND FREE ENERGY PREDICTED BY IDOCK:   -0.23 KCAL/MOL
REMARK 927      BINDING AFFINITY PREDICTED BY RF-SCORE:    0.00 PKD
ROOT
HETATM    1  C   UNL     1     -12.046  12.301  63.555  1.00  0.00    -0.553 C  
HETATM    2  N   UNL     1     -12.341  13.731  63.433  1.00  0.00    -1.100 N  
HETATM    3  H   UNL     1     -13.055  14.071  62.788  1.00  0.00     0.000 HD 
ENDROOT
BRANCH   2   4
HETATM    4  S   UNL     1     -11.454  14.795  64.398  1.00  0.00    -0.186 S  
HETATM    5  O   UNL     1     -11.803  16.138  63.991  1.00  0.00    -0.876 OA 
HETATM    6  O   UNL     1     -10.091  14.320  64.359  1.00  0.00    -0.162 OA 
BRANCH   4   7
HETATM    7  C   UNL     1     -12.138  14.464  66.010  1.00  0.00    -0.357 C  
BRANCH   7   8
HETATM    8  C   UNL     1     -11.152  14.818  67.113  1.00  0.00    -0.333 C  
BRANCH   8   9
HETATM    9  C   UNL     1     -11.669  14.532  68.510  1.00  0.00    -0.353 A  
HETATM   10  C   UNL     1     -11.872  13.194  68.906  1.00  0.00    -0.361 A  
HETATM   11  C   UNL     1     -12.403  12.893  70.182  1.00  0.00    -0.249 A  
HETATM   12  C   UNL     1     -12.679  13.962  71.033  1.00  0.00    -0.357 A  
HETATM   13  C   UNL     1     -12.503  15.297  70.674  1.00  0.00    -0.458 A  
HETATM   14  N   UNL     1     -13.142  13.441  72.211  1.00  0.00    -0.395 NA 
HETATM   15  C   UNL     1     -12.011  15.562  69.395  1.00  0.00    -0.358 A  
HETATM   16  H   UNL     1     -13.428  13.990  73.022  1.00  0.00     0.000 HD 
HETATM   17  C   UNL     1     -13.165  12.079  72.141  1.00  0.00    -0.295 A  
HETATM   18  C   UNL     1     -12.784  11.683  70.869  1.00  0.00    -0.351 A  
BRANCH  18  19
HETATM   19  C   UNL     1     -12.766  10.256  70.335  1.00  0.00    -0.243 C  
HETATM   20  C   UNL     1     -11.349   9.724  70.036  1.00  0.00    -0.269 C  
HETATM   21  C   UNL     1     -10.557   9.420  71.318  1.00  0.00    -0.330 C  
HETATM   22  N   UNL     1     -11.244   8.531  72.261  1.00  0.00    -0.362 NA 
HETATM   23  C   UNL     1     -12.615   8.985  72.531  1.00  0.00    -0.272 C  
HETATM   24  C   UNL     1     -11.183   7.135  71.845  1.00  0.00    -0.249 C  
HETATM   25  C   UNL     1     -13.446   9.242  71.271  1.00  0.00    -0.314 C  
ENDBRANCH  18  19
ENDBRANCH   8   9
ENDBRANCH   7   8
ENDBRANCH   4   7
ENDBRANCH   2   4
TORSDOF 5
ENDMDL
MODEL        8
REMARK 921   NORMALIZED FREE ENERGY PREDICTED BY IDOCK:   -6.66 KCAL/MOL
REMARK 922        TOTAL FREE ENERGY PREDICTED BY IDOCK:   -8.95 KCAL/MOL
REMARK 923 INTER-LIGAND FREE ENERGY PREDICTED BY IDOCK:   -8.73 KCAL/MOL
REMARK 924 INTRA-LIGAND FREE ENERGY PREDICTED BY IDOCK:   -0.22 KCAL/MOL
REMARK 927      BINDING AFFINITY PREDICTED BY RF-SCORE:    0.00 PKD
ROOT
HETATM    1  C   UNL     1     -10.105  11.013  63.374  1.00  0.00    -0.370 C  
HETATM    2  N   UNL     1     -11.364  11.550  62.850  1.00  0.00    -0.680 N  
HETATM    3  H   UNL     1     -11.687  11.319  61.910  1.00  0.00     0.000 HD 
ENDROOT
BRANCH   2   4
HETATM    4  S   UNL     1     -12.259  12.564  63.860  1.00  0.00    -0.525 S  
HETATM    5  O   UNL     1     -13.461  11.850  64.230  1.00  0.00    -0.545 OA 
HETATM    6  O   UNL     1     -12.311  13.842  63.190  1.00  0.00    -0.726 OA 
BRANCH   4   7
HETATM    7  C   UNL     1     -11.183  12.693  65.275  1.00  0.00    -0.300 C  
BRANCH   7   8
HETATM    8  C   UNL     1     -11.967  12.594  66.576  1.00  0.00    -0.401 C  
BRANCH   8   9
HETATM    9  C   UNL     1     -11.735  13.759  67.519  1.00  0.00    -0.410 A  
HETATM   10  C   UNL     1     -11.158  14.944  67.016  1.00  0.00    -0.338 A  
HETATM   11  C   UNL     1     -10.878  16.030  67.878  1.00  0.00    -0.333 A  
HETATM   12  C   UNL     1     -11.228  15.894  69.221  1.00  0.00    -0.335 A  
HETATM   13  C   UNL     1     -11.789  14.736  69.756  1.00  0.00    -0.362 A  
HETATM   14  N   UNL     1     -10.905  17.066  69.851  1.00  0.00    -0.311 NA 
HETATM   15  C   UNL     1     -12.019  13.669  68.887  1.00  0.00    -0.392 A  
HETATM   16  H   UNL     1     -11.045  17.255  70.843  1.00  0.00     0.000 HD 
HETATM   17  C   UNL     1     -10.369  17.944  68.955  1.00  0.00    -0.268 A  
HETATM   18  C   UNL     1     -10.259  17.324  67.720  1.00  0.00    -0.332 A  
BRANCH  18  19
HETATM   19  C   UNL     1      -9.623  17.912  66.468  1.00  0.00    -0.318 C  
HETATM   20  C   UNL     1      -9.760  19.446  66.365  1.00  0.00    -0.460 C  
HETATM   21  C   UNL     1      -8.850  20.182  67.363  1.00  0.00    -0.349 C  
HETATM   22  N   UNL     1      -7.437  19.794  67.298  1.00  0.00    -0.242 NA 
HETATM   23  C   UNL     1      -7.275  18.335  67.345  1.00  0.00    -0.200 C  
HETATM   24  C   UNL     1      -6.752  20.402  66.163  1.00  0.00    -0.242 C  
HETATM   25  C   UNL     1      -8.128  17.578  66.323  1.00  0.00    -0.289 C  
ENDBRANCH  18  19
ENDBRANCH   8   9
ENDBRANCH   7   8
ENDBRANCH   4   7
ENDBRANCH   2   4
TORSDOF 5
ENDMDL
MODEL        9
REMARK 921   NORMALIZED FREE ENERGY PREDICTED BY IDOCK:   -6.52 KCAL/MOL
REMARK 922        TOTAL FREE ENERGY PREDICTED BY IDOCK:   -8.77 KCAL/MOL
REMARK 923 INTER-LIGAND FREE ENERGY PREDICTED BY IDOCK:   -8.45 KCAL/MOL
REMARK 924 INTRA-LIGAND FREE ENERGY PREDICTED BY IDOCK:   -0.33 KCAL/MOL
REMARK 927      BINDING AFFINITY PREDICTED BY RF-SCORE:    0.00 PKD
ROOT
HETATM    1  C   UNL     1     -12.614  12.064  63.382  1.00  0.00    -0.469 C  
HETATM    2  N   UNL     1     -12.308  13.467  63.092  1.00  0.00    -1.024 N  
HETATM    3  H   UNL     1     -12.145  13.787  62.137  1.00  0.00     0.000 HD 
ENDROOT
BRANCH   2   4
HETATM    4  S   UNL     1     -12.235  14.534  64.398  1.00  0.00    -0.375 S  
HETATM    5  O   UNL     1     -13.210  14.091  65.370  1.00  0.00    -0.761 OA 
HETATM    6  O   UNL     1     -12.281  15.860  63.828  1.00  0.00    -0.817 OA 
BRANCH   4   7
HETATM    7  C   UNL     1     -10.592  14.224  65.017  1.00  0.00    -0.425 C  
BRANCH   7   8
HETATM    8  C   UNL     1     -10.626  13.754  66.464  1.00  0.00    -0.279 C  
BRANCH   8   9
HETATM    9  C   UNL     1     -10.501  12.251  66.621  1.00  0.00    -0.247 A  
HETATM   10  C   UNL     1     -10.665  11.678  67.899  1.00  0.00    -0.241 A  
HETATM   11  C   UNL     1     -10.502  10.286  68.091  1.00  0.00    -0.224 A  
HETATM   12  C   UNL     1     -10.212   9.511  66.970  1.00  0.00    -0.255 A  
HETATM   13  C   UNL     1     -10.032  10.041  65.693  1.00  0.00    -0.355 A  
HETATM   14  N   UNL     1     -10.137   8.207  67.379  1.00  0.00    -0.210 NA 
HETATM   15  C   UNL     1     -10.164  11.422  65.543  1.00  0.00    -0.312 A  
HETATM   16  H   UNL     1      -9.933   7.413  66.772  1.00  0.00     0.000 HD 
HETATM   17  C   UNL     1     -10.374   8.125  68.720  1.00  0.00    -0.202 A  
HETATM   18  C   UNL     1     -10.535   9.403  69.232  1.00  0.00    -0.230 A  
BRANCH  18  19
HETATM   19  C   UNL     1     -10.720   9.772  70.698  1.00  0.00    -0.394 C  
HETATM   20  C   UNL     1     -11.825  10.822  70.939  1.00  0.00    -0.400 C  
HETATM   21  C   UNL     1     -13.235  10.240  70.745  1.00  0.00    -0.216 C  
HETATM   22  N   UNL     1     -13.507   9.029  71.528  1.00  0.00    -0.357 NA 
HETATM   23  C   UNL     1     -12.447   8.027  71.357  1.00  0.00    -0.301 C  
HETATM   24  C   UNL     1     -13.780   9.330  72.928  1.00  0.00     0.010 C  
HETATM   25  C   UNL     1     -11.034   8.565  71.599  1.00  0.00    -0.362 C  
ENDBRANCH  18  19
ENDBRANCH   8   9
ENDBRANCH   7   8
ENDBRANCH   4   7
ENDBRANCH   2   4
TORSDOF 5
ENDMDL
MODEL       10
REMARK 921   NORMALIZED FREE ENERGY PREDICTED BY IDOCK:   -6.46 KCAL/MOL
REMARK 922        TOTAL FREE ENERGY PREDICTED BY IDOCK:   -8.69 KCAL/MOL
REMARK 923 INTER-LIGAND FREE ENERGY PREDICTED BY IDOCK:   -8.30 KCAL/MOL
REMARK 924 INTRA-LIGAND FREE ENERGY PREDICTED BY IDOCK:   -0.40 KCAL/MOL
REMARK 927      BINDING AFFINITY PREDICTED BY RF-SCORE:    0.00 PKD
ROOT
HETATM    1  C   UNL     1     -12.103  15.101  64.087  1.00  0.00    -0.176 C  
HETATM    2  N   UNL     1     -12.389  13.965  63.207  1.00  0.00    -1.148 N  
HETATM    3  H   UNL     1     -12.552  14.098  62.208  1.00  0.00     0.000 HD 
ENDROOT
BRANCH   2   4
HETATM    4  S   UNL     1     -12.438  12.430  63.906  1.00  0.00    -0.447 S  
HETATM    5  O   UNL     1     -12.731  11.485  62.851  1.00  0.00    -0.185 OA 
HETATM    6  O   UNL     1     -13.284  12.553  65.070  1.00  0.00    -0.700 OA 
BRANCH   4   7
HETATM    7  C   UNL     1     -10.748  12.227  64.435  1.00  0.00    -0.331 C  
BRANCH   7   8
HETATM    8  C   UNL     1     -10.665  11.424  65.725  1.00  0.00    -0.309 C  
BRANCH   8   9
HETATM    9  C   UNL     1     -10.850  12.258  66.977  1.00  0.00    -0.288 A  
HETATM   10  C   UNL     1     -10.227  13.522  67.058  1.00  0.00    -0.249 A  
HETATM   11  C   UNL     1     -10.334  14.304  68.232  1.00  0.00    -0.242 A  
HETATM   12  C   UNL     1     -11.103  13.794  69.278  1.00  0.00    -0.208 A  
HETATM   13  C   UNL     1     -11.723  12.546  69.240  1.00  0.00    -0.379 A  
HETATM   14  N   UNL     1     -11.098  14.723  70.283  1.00  0.00    -0.430 NA 
HETATM   15  C   UNL     1     -11.568  11.783  68.082  1.00  0.00    -0.391 A  
HETATM   16  H   UNL     1     -11.576  14.620  71.178  1.00  0.00     0.000 HD 
HETATM   17  C   UNL     1     -10.360  15.808  69.910  1.00  0.00    -0.309 A  
HETATM   18  C   UNL     1      -9.796  15.570  68.667  1.00  0.00    -0.207 A  
BRANCH  18  19
HETATM   19  C   UNL     1      -8.823  16.479  67.928  1.00  0.00    -0.193 C  
HETATM   20  C   UNL     1      -9.156  16.656  66.431  1.00  0.00    -0.325 C  
HETATM   21  C   UNL     1     -10.394  17.541  66.210  1.00  0.00    -0.335 C  
HETATM   22  N   UNL     1     -10.335  18.847  66.875  1.00  0.00    -0.382 NA 
HETATM   23  C   UNL     1      -9.973  18.715  68.292  1.00  0.00    -0.384 C  
HETATM   24  C   UNL     1      -9.484  19.790  66.159  1.00  0.00    -0.383 C  
HETATM   25  C   UNL     1      -8.711  17.886  68.539  1.00  0.00    -0.297 C  
ENDBRANCH  18  19
ENDBRANCH   8   9
ENDBRANCH   7   8
ENDBRANCH   4   7
ENDBRANCH   2   4
TORSDOF 5
ENDMDL
MODEL       11
REMARK 921   NORMALIZED FREE ENERGY PREDICTED BY IDOCK:   -6.45 KCAL/MOL
REMARK 922        TOTAL FREE ENERGY PREDICTED BY IDOCK:   -8.68 KCAL/MOL
REMARK 923 INTER-LIGAND FREE ENERGY PREDICTED BY IDOCK:   -8.21 KCAL/MOL
REMARK 924 INTRA-LIGAND FREE ENERGY PREDICTED BY IDOCK:   -0.47 KCAL/MOL
REMARK 927      BINDING AFFINITY PREDICTED BY RF-SCORE:    0.00 PKD
ROOT
HETATM    1  C   UNL     1     -12.704  12.113  63.409  1.00  0.00    -0.381 C  
HETATM    2  N   UNL     1     -12.294  13.486  63.104  1.00  0.00    -1.024 N  
HETATM    3  H   UNL     1     -12.099  13.780  62.147  1.00  0.00     0.000 HD 
ENDROOT
BRANCH   2   4
HETATM    4  S   UNL     1     -12.158  14.564  64.397  1.00  0.00    -0.414 S  
HETATM    5  O   UNL     1     -13.078  14.125  65.422  1.00  0.00    -0.743 OA 
HETATM    6  O   UNL     1     -12.239  15.885  63.819  1.00  0.00    -0.817 OA 
BRANCH   4   7
HETATM    7  C   UNL     1     -10.484  14.266  64.931  1.00  0.00    -0.430 C  
BRANCH   7   8
HETATM    8  C   UNL     1     -10.451  13.534  66.265  1.00  0.00    -0.290 C  
BRANCH   8   9
HETATM    9  C   UNL     1     -10.273  12.034  66.135  1.00  0.00    -0.255 A  
HETATM   10  C   UNL     1     -10.629  11.204  67.218  1.00  0.00    -0.279 A  
HETATM   11  C   UNL     1     -10.427   9.806  67.152  1.00  0.00    -0.316 A  
HETATM   12  C   UNL     1      -9.900   9.287  65.970  1.00  0.00    -0.293 A  
HETATM   13  C   UNL     1      -9.525  10.075  64.883  1.00  0.00    -0.355 A  
HETATM   14  N   UNL     1      -9.827   7.928  66.114  1.00  0.00    -0.464 NA 
HETATM   15  C   UNL     1      -9.704  11.454  64.994  1.00  0.00    -0.286 A  
HETATM   16  H   UNL     1      -9.476   7.282  65.407  1.00  0.00     0.000 HD 
HETATM   17  C   UNL     1     -10.294   7.564  67.343  1.00  0.00    -0.276 A  
HETATM   18  C   UNL     1     -10.614   8.704  68.064  1.00  0.00    -0.205 A  
BRANCH  18  19
HETATM   19  C   UNL     1     -11.076   8.754  69.514  1.00  0.00     0.006 C  
HETATM   20  C   UNL     1     -10.989   7.395  70.240  1.00  0.00    -0.272 C  
HETATM   21  C   UNL     1      -9.539   6.993  70.554  1.00  0.00    -0.169 C  
HETATM   22  N   UNL     1      -8.770   8.008  71.282  1.00  0.00    -0.131 NA 
HETATM   23  C   UNL     1      -8.872   9.326  70.641  1.00  0.00    -0.237 C  
HETATM   24  C   UNL     1      -9.109   8.041  72.700  1.00  0.00    -0.227 C  
HETATM   25  C   UNL     1     -10.309   9.778  70.368  1.00  0.00    -0.354 C  
ENDBRANCH  18  19
ENDBRANCH   8   9
ENDBRANCH   7   8
ENDBRANCH   4   7
ENDBRANCH   2   4
TORSDOF 5
ENDMDL
MODEL       12
REMARK 921   NORMALIZED FREE ENERGY PREDICTED BY IDOCK:   -6.44 KCAL/MOL
REMARK 922        TOTAL FREE ENERGY PREDICTED BY IDOCK:   -8.66 KCAL/MOL
REMARK 923 INTER-LIGAND FREE ENERGY PREDICTED BY IDOCK:   -8.56 KCAL/MOL
REMARK 924 INTRA-LIGAND FREE ENERGY PREDICTED BY IDOCK:   -0.10 KCAL/MOL
REMARK 927      BINDING AFFINITY PREDICTED BY RF-SCORE:    0.00 PKD
ROOT
HETATM    1  C   UNL     1     -12.524  16.348  74.002  1.00  0.00    -0.486 C  
HETATM    2  N   UNL     1     -12.910  14.947  73.819  1.00  0.00    -0.418 N  
HETATM    3  H   UNL     1     -12.811  14.268  74.575  1.00  0.00     0.000 HD 
ENDROOT
BRANCH   2   4
HETATM    4  S   UNL     1     -13.526  14.497  72.313  1.00  0.00    -0.468 S  
HETATM    5  O   UNL     1     -14.390  15.567  71.865  1.00  0.00    -0.509 OA 
HETATM    6  O   UNL     1     -14.011  13.146  72.472  1.00  0.00    -0.676 OA 
BRANCH   4   7
HETATM    7  C   UNL     1     -12.046  14.471  71.320  1.00  0.00    -0.354 C  
BRANCH   7   8
HETATM    8  C   UNL     1     -12.375  14.314  69.842  1.00  0.00    -0.377 C  
BRANCH   8   9
HETATM    9  C   UNL     1     -11.972  12.970  69.266  1.00  0.00    -0.331 A  
HETATM   10  C   UNL     1     -11.805  11.873  70.137  1.00  0.00    -0.390 A  
HETATM   11  C   UNL     1     -11.378  10.619  69.641  1.00  0.00    -0.360 A  
HETATM   12  C   UNL     1     -11.167  10.507  68.267  1.00  0.00    -0.291 A  
HETATM   13  C   UNL     1     -11.310  11.570  67.378  1.00  0.00    -0.367 A  
HETATM   14  N   UNL     1     -10.801   9.213  68.011  1.00  0.00    -0.473 NA 
HETATM   15  C   UNL     1     -11.697  12.804  67.903  1.00  0.00    -0.408 A  
HETATM   16  H   UNL     1     -10.578   8.839  67.089  1.00  0.00     0.000 HD 
HETATM   17  C   UNL     1     -10.777   8.497  69.172  1.00  0.00    -0.110 A  
HETATM   18  C   UNL     1     -11.057   9.343  70.234  1.00  0.00    -0.299 A  
BRANCH  18  19
HETATM   19  C   UNL     1     -11.037   8.974  71.711  1.00  0.00    -0.444 C  
HETATM   20  C   UNL     1     -12.245   8.123  72.155  1.00  0.00    -0.398 C  
HETATM   21  C   UNL     1     -12.165   6.680  71.633  1.00  0.00    -0.352 C  
HETATM   22  N   UNL     1     -10.913   5.986  71.951  1.00  0.00    -0.253 NA 
HETATM   23  C   UNL     1      -9.741   6.792  71.584  1.00  0.00    -0.162 C  
HETATM   24  C   UNL     1     -10.874   5.529  73.335  1.00  0.00    -0.288 C  
HETATM   25  C   UNL     1      -9.767   8.219  72.138  1.00  0.00    -0.344 C  
ENDBRANCH  18  19
ENDBRANCH   8   9
ENDBRANCH   7   8
ENDBRANCH   4   7
ENDBRANCH   2   4
TORSDOF 5
ENDMDL
MODEL       13
REMARK 921   NORMALIZED FREE ENERGY PREDICTED BY IDOCK:   -6.43 KCAL/MOL
REMARK 922        TOTAL FREE ENERGY PREDICTED BY IDOCK:   -8.66 KCAL/MOL
REMARK 923 INTER-LIGAND FREE ENERGY PREDICTED BY IDOCK:   -8.38 KCAL/MOL
REMARK 924 INTRA-LIGAND FREE ENERGY PREDICTED BY IDOCK:   -0.28 KCAL/MOL
REMARK 927      BINDING AFFINITY PREDICTED BY RF-SCORE:    0.00 PKD
ROOT
HETATM    1  C   UNL     1     -10.827   6.266  69.737  1.00  0.00    -0.336 C  
HETATM    2  N   UNL     1     -12.123   6.912  69.965  1.00  0.00    -0.637 N  
HETATM    3  H   UNL     1     -12.712   7.205  69.184  1.00  0.00     0.000 HD 
ENDROOT
BRANCH   2   4
HETATM    4  S   UNL     1     -12.604   7.151  71.565  1.00  0.00    -0.395 S  
HETATM    5  O   UNL     1     -11.860   6.218  72.382  1.00  0.00    -0.291 OA 
HETATM    6  O   UNL     1     -14.048   7.159  71.545  1.00  0.00    -0.395 OA 
BRANCH   4   7
HETATM    7  C   UNL     1     -12.018   8.807  71.866  1.00  0.00    -0.365 C  
BRANCH   7   8
HETATM    8  C   UNL     1     -12.034   9.640  70.592  1.00  0.00    -0.304 C  
BRANCH   8   9
HETATM    9  C   UNL     1     -12.369  11.101  70.822  1.00  0.00    -0.504 A  
HETATM   10  C   UNL     1     -11.886  12.066  69.913  1.00  0.00    -0.405 A  
HETATM   11  C   UNL     1     -12.134  13.443  70.126  1.00  0.00    -0.415 A  
HETATM   12  C   UNL     1     -12.898  13.796  71.238  1.00  0.00    -0.357 A  
HETATM   13  C   UNL     1     -13.382  12.873  72.163  1.00  0.00    -0.615 A  
HETATM   14  N   UNL     1     -13.041  15.157  71.223  1.00  0.00    -0.404 NA 
HETATM   15  C   UNL     1     -13.090  11.526  71.944  1.00  0.00    -0.492 A  
HETATM   16  H   UNL     1     -13.552  15.700  71.919  1.00  0.00     0.000 HD 
HETATM   17  C   UNL     1     -12.401  15.681  70.138  1.00  0.00    -0.336 A  
HETATM   18  C   UNL     1     -11.753  14.663  69.457  1.00  0.00    -0.366 A  
BRANCH  18  19
HETATM   19  C   UNL     1     -10.842  14.824  68.246  1.00  0.00    -0.251 C  
HETATM   20  C   UNL     1     -10.831  16.253  67.665  1.00  0.00    -0.293 C  
HETATM   21  C   UNL     1     -10.072  17.243  68.563  1.00  0.00    -0.341 C  
HETATM   22  N   UNL     1      -8.709  16.826  68.912  1.00  0.00    -0.249 NA 
HETATM   23  C   UNL     1      -8.679  15.450  69.425  1.00  0.00    -0.252 C  
HETATM   24  C   UNL     1      -7.772  17.041  67.816  1.00  0.00    -0.172 C  
HETATM   25  C   UNL     1      -9.380  14.432  68.521  1.00  0.00    -0.204 C  
ENDBRANCH  18  19
ENDBRANCH   8   9
ENDBRANCH   7   8
ENDBRANCH   4   7
ENDBRANCH   2   4
TORSDOF 5
ENDMDL
MODEL       14
REMARK 921   NORMALIZED FREE ENERGY PREDICTED BY IDOCK:   -6.38 KCAL/MOL
REMARK 922        TOTAL FREE ENERGY PREDICTED BY IDOCK:   -8.59 KCAL/MOL
REMARK 923 INTER-LIGAND FREE ENERGY PREDICTED BY IDOCK:   -8.13 KCAL/MOL
REMARK 924 INTRA-LIGAND FREE ENERGY PREDICTED BY IDOCK:   -0.46 KCAL/MOL
REMARK 927      BINDING AFFINITY PREDICTED BY RF-SCORE:    0.00 PKD
ROOT
HETATM    1  C   UNL     1     -12.469  12.148  63.418  1.00  0.00    -0.512 C  
HETATM    2  N   UNL     1     -12.433  13.581  63.114  1.00  0.00    -0.985 N  
HETATM    3  H   UNL     1     -12.570  13.924  62.163  1.00  0.00     0.000 HD 
ENDROOT
BRANCH   2   4
HETATM    4  S   UNL     1     -12.156  14.643  64.397  1.00  0.00    -0.385 S  
HETATM    5  O   UNL     1     -12.952  14.185  65.514  1.00  0.00    -0.657 OA 
HETATM    6  O   UNL     1     -12.308  15.970  63.851  1.00  0.00    -0.855 OA 
BRANCH   4   7
HETATM    7  C   UNL     1     -10.431  14.348  64.734  1.00  0.00    -0.367 C  
BRANCH   7   8
HETATM    8  C   UNL     1     -10.016  14.954  66.067  1.00  0.00    -0.337 C  
BRANCH   8   9
HETATM    9  C   UNL     1      -9.225  14.008  66.949  1.00  0.00    -0.271 A  
HETATM   10  C   UNL     1      -9.826  12.806  67.379  1.00  0.00    -0.210 A  
HETATM   11  C   UNL     1      -9.137  11.925  68.245  1.00  0.00    -0.183 A  
HETATM   12  C   UNL     1      -7.841  12.275  68.621  1.00  0.00    -0.063 A  
HETATM   13  C   UNL     1      -7.217  13.458  68.226  1.00  0.00    -0.111 A  
HETATM   14  N   UNL     1      -7.359  11.272  69.418  1.00  0.00    -0.301 NA 
HETATM   15  C   UNL     1      -7.937  14.322  67.401  1.00  0.00    -0.211 A  
HETATM   16  H   UNL     1      -6.433  11.257  69.846  1.00  0.00     0.000 HD 
HETATM   17  C   UNL     1      -8.301  10.295  69.558  1.00  0.00    -0.151 A  
HETATM   18  C   UNL     1      -9.461  10.685  68.907  1.00  0.00    -0.199 A  
BRANCH  18  19
HETATM   19  C   UNL     1     -10.786   9.934  68.896  1.00  0.00    -0.244 C  
HETATM   20  C   UNL     1     -10.874   8.817  69.958  1.00  0.00    -0.231 C  
HETATM   21  C   UNL     1     -11.023   9.377  71.382  1.00  0.00    -0.373 C  
HETATM   22  N   UNL     1     -12.129  10.325  71.551  1.00  0.00    -0.355 NA 
HETATM   23  C   UNL     1     -12.101  11.376  70.524  1.00  0.00    -0.394 C  
HETATM   24  C   UNL     1     -13.420   9.653  71.637  1.00  0.00    -0.374 C  
HETATM   25  C   UNL     1     -12.010  10.846  69.091  1.00  0.00    -0.359 C  
ENDBRANCH  18  19
ENDBRANCH   8   9
ENDBRANCH   7   8
ENDBRANCH   4   7
ENDBRANCH   2   4
TORSDOF 5
ENDMDL
MODEL       15
REMARK 921   NORMALIZED FREE ENERGY PREDICTED BY IDOCK:   -6.35 KCAL/MOL
REMARK 922        TOTAL FREE ENERGY PREDICTED BY IDOCK:   -8.54 KCAL/MOL
REMARK 923 INTER-LIGAND FREE ENERGY PREDICTED BY IDOCK:   -8.01 KCAL/MOL
REMARK 924 INTRA-LIGAND FREE ENERGY PREDICTED BY IDOCK:   -0.53 KCAL/MOL
REMARK 927      BINDING AFFINITY PREDICTED BY RF-SCORE:    0.00 PKD
ROOT
HETATM    1  C   UNL     1     -12.124  15.293  64.254  1.00  0.00    -0.208 C  
HETATM    2  N   UNL     1     -12.405  14.198  63.322  1.00  0.00    -1.133 N  
HETATM    3  H   UNL     1     -12.775  14.381  62.388  1.00  0.00     0.000 HD 
ENDROOT
BRANCH   2   4
HETATM    4  S   UNL     1     -12.093  12.625  63.850  1.00  0.00    -0.519 S  
HETATM    5  O   UNL     1     -10.761  12.280  63.407  1.00  0.00    -0.446 OA 
HETATM    6  O   UNL     1     -13.247  11.845  63.467  1.00  0.00    -0.676 OA 
BRANCH   4   7
HETATM    7  C   UNL     1     -12.098  12.839  65.619  1.00  0.00    -0.459 C  
BRANCH   7   8
HETATM    8  C   UNL     1     -11.138  11.869  66.295  1.00  0.00    -0.364 C  
BRANCH   8   9
HETATM    9  C   UNL     1      -9.821  12.499  66.703  1.00  0.00    -0.245 A  
HETATM   10  C   UNL     1      -9.666  13.897  66.597  1.00  0.00    -0.295 A  
HETATM   11  C   UNL     1      -8.433  14.512  66.917  1.00  0.00    -0.179 A  
HETATM   12  C   UNL     1      -7.403  13.690  67.373  1.00  0.00    -0.111 A  
HETATM   13  C   UNL     1      -7.514  12.305  67.481  1.00  0.00    -0.149 A  
HETATM   14  N   UNL     1      -6.331  14.493  67.656  1.00  0.00    -0.284 NA 
HETATM   15  C   UNL     1      -8.731  11.725  67.122  1.00  0.00    -0.169 A  
HETATM   16  H   UNL     1      -5.430  14.166  68.005  1.00  0.00     0.000 HD 
HETATM   17  C   UNL     1      -6.646  15.797  67.403  1.00  0.00    -0.180 A  
HETATM   18  C   UNL     1      -7.923  15.860  66.868  1.00  0.00    -0.287 A  
BRANCH  18  19
HETATM   19  C   UNL     1      -8.624  17.111  66.354  1.00  0.00    -0.300 C  
HETATM   20  C   UNL     1     -10.124  17.171  66.710  1.00  0.00    -0.303 C  
HETATM   21  C   UNL     1     -10.358  17.463  68.201  1.00  0.00    -0.366 C  
HETATM   22  N   UNL     1      -9.670  18.657  68.703  1.00  0.00    -0.364 NA 
HETATM   23  C   UNL     1      -8.247  18.653  68.338  1.00  0.00    -0.334 C  
HETATM   24  C   UNL     1     -10.350  19.887  68.314  1.00  0.00    -0.393 C  
HETATM   25  C   UNL     1      -7.986  18.420  66.847  1.00  0.00    -0.249 C  
ENDBRANCH  18  19
ENDBRANCH   8   9
ENDBRANCH   7   8
ENDBRANCH   4   7
ENDBRANCH   2   4
TORSDOF 5
ENDMDL
MODEL       16
REMARK 921   NORMALIZED FREE ENERGY PREDICTED BY IDOCK:   -6.35 KCAL/MOL
REMARK 922        TOTAL FREE ENERGY PREDICTED BY IDOCK:   -8.54 KCAL/MOL
REMARK 923 INTER-LIGAND FREE ENERGY PREDICTED BY IDOCK:   -8.20 KCAL/MOL
REMARK 924 INTRA-LIGAND FREE ENERGY PREDICTED BY IDOCK:   -0.34 KCAL/MOL
REMARK 927      BINDING AFFINITY PREDICTED BY RF-SCORE:    0.00 PKD
ROOT
HETATM    1  C   UNL     1     -12.093  12.098  63.579  1.00  0.00    -0.550 C  
HETATM    2  N   UNL     1     -11.293  13.283  63.903  1.00  0.00    -0.557 N  
HETATM    3  H   UNL     1     -10.317  13.356  63.615  1.00  0.00     0.000 HD 
ENDROOT
BRANCH   2   4
HETATM    4  S   UNL     1     -12.047  14.520  64.769  1.00  0.00    -0.429 S  
HETATM    5  O   UNL     1     -13.236  13.960  65.372  1.00  0.00    -0.750 OA 
HETATM    6  O   UNL     1     -12.112  15.648  63.869  1.00  0.00    -0.574 OA 
BRANCH   4   7
HETATM    7  C   UNL     1     -10.837  14.855  66.034  1.00  0.00    -0.328 C  
BRANCH   7   8
HETATM    8  C   UNL     1     -10.376  13.573  66.711  1.00  0.00    -0.264 C  
BRANCH   8   9
HETATM    9  C   UNL     1     -11.066  13.298  68.033  1.00  0.00    -0.282 A  
HETATM   10  C   UNL     1     -10.999  12.002  68.586  1.00  0.00    -0.281 A  
HETATM   11  C   UNL     1     -11.676  11.697  69.790  1.00  0.00    -0.425 A  
HETATM   12  C   UNL     1     -12.372  12.729  70.418  1.00  0.00    -0.247 A  
HETATM   13  C   UNL     1     -12.470  14.018  69.897  1.00  0.00    -0.301 A  
HETATM   14  N   UNL     1     -12.909  12.222  71.570  1.00  0.00    -0.340 NA 
HETATM   15  C   UNL     1     -11.821  14.278  68.689  1.00  0.00    -0.379 A  
HETATM   16  H   UNL     1     -13.475  12.750  72.234  1.00  0.00     0.000 HD 
HETATM   17  C   UNL     1     -12.574  10.906  71.700  1.00  0.00    -0.326 A  
HETATM   18  C   UNL     1     -11.866  10.504  70.579  1.00  0.00    -0.442 A  
BRANCH  18  19
HETATM   19  C   UNL     1     -11.388   9.091  70.273  1.00  0.00    -0.202 C  
HETATM   20  C   UNL     1      -9.862   8.909  70.413  1.00  0.00    -0.224 C  
HETATM   21  C   UNL     1      -9.407   8.912  71.882  1.00  0.00    -0.205 C  
HETATM   22  N   UNL     1     -10.113   7.955  72.740  1.00  0.00    -0.273 NA 
HETATM   23  C   UNL     1     -11.570   8.070  72.593  1.00  0.00    -0.387 C  
HETATM   24  C   UNL     1      -9.633   6.591  72.553  1.00  0.00    -0.151 C  
HETATM   25  C   UNL     1     -12.057   8.013  71.143  1.00  0.00    -0.284 C  
ENDBRANCH  18  19
ENDBRANCH   8   9
ENDBRANCH   7   8
ENDBRANCH   4   7
ENDBRANCH   2   4
TORSDOF 5
ENDMDL
MODEL       17
REMARK 921   NORMALIZED FREE ENERGY PREDICTED BY IDOCK:   -6.31 KCAL/MOL
REMARK 922        TOTAL FREE ENERGY PREDICTED BY IDOCK:   -8.49 KCAL/MOL
REMARK 923 INTER-LIGAND FREE ENERGY PREDICTED BY IDOCK:   -8.01 KCAL/MOL
REMARK 924 INTRA-LIGAND FREE ENERGY PREDICTED BY IDOCK:   -0.49 KCAL/MOL
REMARK 927      BINDING AFFINITY PREDICTED BY RF-SCORE:    0.00 PKD
ROOT
HETATM    1  C   UNL     1      -9.022  20.208  67.144  1.00  0.00    -0.360 C  
HETATM    2  N   UNL     1      -9.238  19.315  66.003  1.00  0.00    -0.237 N  
HETATM    3  H   UNL     1      -8.785  19.485  65.105  1.00  0.00     0.000 HD 
ENDROOT
BRANCH   2   4
HETATM    4  S   UNL     1     -10.263  17.993  66.232  1.00  0.00    -0.347 S  
HETATM    5  O   UNL     1     -10.946  17.757  64.979  1.00  0.00    -0.784 OA 
HETATM    6  O   UNL     1     -10.988  18.262  67.452  1.00  0.00    -0.328 OA 
BRANCH   4   7
HETATM    7  C   UNL     1      -9.091  16.683  66.528  1.00  0.00    -0.272 C  
BRANCH   7   8
HETATM    8  C   UNL     1      -9.517  15.394  65.840  1.00  0.00    -0.369 C  
BRANCH   8   9
HETATM    9  C   UNL     1      -9.918  14.292  66.801  1.00  0.00    -0.266 A  
HETATM   10  C   UNL     1     -10.894  14.560  67.784  1.00  0.00    -0.267 A  
HETATM   11  C   UNL     1     -11.253  13.573  68.731  1.00  0.00    -0.311 A  
HETATM   12  C   UNL     1     -10.635  12.327  68.628  1.00  0.00    -0.224 A  
HETATM   13  C   UNL     1      -9.659  12.028  67.679  1.00  0.00    -0.188 A  
HETATM   14  N   UNL     1     -11.156  11.527  69.608  1.00  0.00    -0.443 NA 
HETATM   15  C   UNL     1      -9.301  13.035  66.782  1.00  0.00    -0.244 A  
HETATM   16  H   UNL     1     -10.889  10.557  69.778  1.00  0.00     0.000 HD 
HETATM   17  C   UNL     1     -12.088  12.218  70.327  1.00  0.00    -0.295 A  
HETATM   18  C   UNL     1     -12.137  13.525  69.870  1.00  0.00    -0.408 A  
BRANCH  18  19
HETATM   19  C   UNL     1     -12.969  14.657  70.459  1.00  0.00    -0.319 C  
HETATM   20  C   UNL     1     -13.840  14.227  71.658  1.00  0.00    -0.473 C  
HETATM   21  C   UNL     1     -13.005  13.973  72.924  1.00  0.00    -0.336 C  
HETATM   22  N   UNL     1     -12.128  15.084  73.307  1.00  0.00    -0.363 NA 
HETATM   23  C   UNL     1     -11.318  15.549  72.173  1.00  0.00    -0.338 C  
HETATM   24  C   UNL     1     -12.860  16.163  73.959  1.00  0.00    -0.422 C  
HETATM   25  C   UNL     1     -12.131  15.864  70.914  1.00  0.00    -0.414 C  
ENDBRANCH  18  19
ENDBRANCH   8   9
ENDBRANCH   7   8
ENDBRANCH   4   7
ENDBRANCH   2   4
TORSDOF 5
ENDMDL
MODEL       18
REMARK 921   NORMALIZED FREE ENERGY PREDICTED BY IDOCK:   -6.30 KCAL/MOL
REMARK 922        TOTAL FREE ENERGY PREDICTED BY IDOCK:   -8.49 KCAL/MOL
REMARK 923 INTER-LIGAND FREE ENERGY PREDICTED BY IDOCK:   -8.15 KCAL/MOL
REMARK 924 INTRA-LIGAND FREE ENERGY PREDICTED BY IDOCK:   -0.34 KCAL/MOL
REMARK 927      BINDING AFFINITY PREDICTED BY RF-SCORE:    0.00 PKD
ROOT
HETATM    1  C   UNL     1      -9.691   9.573  70.494  1.00  0.00    -0.263 C  
HETATM    2  N   UNL     1     -10.017  10.595  69.495  1.00  0.00    -0.400 N  
HETATM    3  H   UNL     1      -9.851  11.585  69.678  1.00  0.00     0.000 HD 
ENDROOT
BRANCH   2   4
HETATM    4  S   UNL     1     -10.678  10.072  68.032  1.00  0.00    -0.256 S  
HETATM    5  O   UNL     1     -11.865  10.862  67.790  1.00  0.00    -0.579 OA 
HETATM    6  O   UNL     1     -10.728   8.631  68.114  1.00  0.00    -0.167 OA 
BRANCH   4   7
HETATM    7  C   UNL     1      -9.402  10.544  66.880  1.00  0.00    -0.159 C  
BRANCH   7   8
HETATM    8  C   UNL     1      -9.898  10.464  65.443  1.00  0.00    -0.347 C  
BRANCH   8   9
HETATM    9  C   UNL     1     -10.540  11.744  64.946  1.00  0.00    -0.344 A  
HETATM   10  C   UNL     1     -10.014  12.983  65.368  1.00  0.00    -0.201 A  
HETATM   11  C   UNL     1     -10.620  14.197  64.967  1.00  0.00    -0.436 A  
HETATM   12  C   UNL     1     -11.724  14.117  64.119  1.00  0.00    -0.282 A  
HETATM   13  C   UNL     1     -12.279  12.912  63.690  1.00  0.00    -0.581 A  
HETATM   14  N   UNL     1     -12.118  15.396  63.834  1.00  0.00    -0.981 NA 
HETATM   15  C   UNL     1     -11.679  11.732  64.132  1.00  0.00    -0.376 A  
HETATM   16  H   UNL     1     -12.906  15.647  63.237  1.00  0.00     0.000 HD 
HETATM   17  C   UNL     1     -11.301  16.287  64.466  1.00  0.00    -0.202 A  
HETATM   18  C   UNL     1     -10.392  15.593  65.249  1.00  0.00    -0.405 A  
BRANCH  18  19
HETATM   19  C   UNL     1      -9.365  16.203  66.194  1.00  0.00    -0.372 C  
HETATM   20  C   UNL     1      -9.166  17.721  65.997  1.00  0.00    -0.045 C  
HETATM   21  C   UNL     1     -10.360  18.538  66.517  1.00  0.00    -0.414 C  
HETATM   22  N   UNL     1     -10.735  18.252  67.906  1.00  0.00    -0.369 NA 
HETATM   23  C   UNL     1     -10.886  16.809  68.138  1.00  0.00    -0.353 C  
HETATM   24  C   UNL     1      -9.834  18.887  68.860  1.00  0.00    -0.390 C  
HETATM   25  C   UNL     1      -9.686  15.975  67.681  1.00  0.00    -0.224 C  
ENDBRANCH  18  19
ENDBRANCH   8   9
ENDBRANCH   7   8
ENDBRANCH   4   7
ENDBRANCH   2   4
TORSDOF 5
ENDMDL
MODEL       19
REMARK 921   NORMALIZED FREE ENERGY PREDICTED BY IDOCK:   -6.28 KCAL/MOL
REMARK 922        TOTAL FREE ENERGY PREDICTED BY IDOCK:   -8.46 KCAL/MOL
REMARK 923 INTER-LIGAND FREE ENERGY PREDICTED BY IDOCK:   -8.11 KCAL/MOL
REMARK 924 INTRA-LIGAND FREE ENERGY PREDICTED BY IDOCK:   -0.35 KCAL/MOL
REMARK 927      BINDING AFFINITY PREDICTED BY RF-SCORE:    0.00 PKD
ROOT
HETATM    1  C   UNL     1     -11.353  16.043  70.784  1.00  0.00    -0.398 C  
HETATM    2  N   UNL     1     -11.952  16.411  72.070  1.00  0.00    -0.649 N  
HETATM    3  H   UNL     1     -11.778  17.323  72.492  1.00  0.00     0.000 HD 
ENDROOT
BRANCH   2   4
HETATM    4  S   UNL     1     -12.939  15.269  72.825  1.00  0.00    -0.490 S  
HETATM    5  O   UNL     1     -14.285  15.798  72.827  1.00  0.00    -0.539 OA 
HETATM    6  O   UNL     1     -12.263  14.910  74.049  1.00  0.00    -0.537 OA 
BRANCH   4   7
HETATM    7  C   UNL     1     -12.837  13.903  71.684  1.00  0.00    -0.349 C  
BRANCH   7   8
HETATM    8  C   UNL     1     -13.416  12.632  72.289  1.00  0.00    -0.541 C  
BRANCH   8   9
HETATM    9  C   UNL     1     -12.829  11.359  71.713  1.00  0.00    -0.449 A  
HETATM   10  C   UNL     1     -11.806  11.452  70.745  1.00  0.00    -0.232 A  
HETATM   11  C   UNL     1     -11.273  10.286  70.147  1.00  0.00    -0.387 A  
HETATM   12  C   UNL     1     -11.769   9.056  70.577  1.00  0.00    -0.126 A  
HETATM   13  C   UNL     1     -12.785   8.924  71.522  1.00  0.00    -0.386 A  
HETATM   14  N   UNL     1     -11.091   8.079  69.900  1.00  0.00    -0.414 NA 
HETATM   15  C   UNL     1     -13.316  10.095  72.066  1.00  0.00    -0.492 A  
HETATM   16  H   UNL     1     -11.245   7.076  70.008  1.00  0.00     0.000 HD 
HETATM   17  C   UNL     1     -10.176   8.644  69.060  1.00  0.00    -0.207 A  
HETATM   18  C   UNL     1     -10.297  10.023  69.117  1.00  0.00    -0.233 A  
BRANCH  18  19
HETATM   19  C   UNL     1      -9.536  11.032  68.267  1.00  0.00    -0.172 C  
HETATM   20  C   UNL     1      -9.142  10.497  66.874  1.00  0.00    -0.161 C  
HETATM   21  C   UNL     1     -10.351  10.379  65.931  1.00  0.00    -0.190 C  
HETATM   22  N   UNL     1     -11.141  11.607  65.797  1.00  0.00    -0.287 NA 
HETATM   23  C   UNL     1     -11.492  12.169  67.109  1.00  0.00    -0.346 C  
HETATM   24  C   UNL     1     -10.501  12.579  64.919  1.00  0.00    -0.303 C  
HETATM   25  C   UNL     1     -10.298  12.351  68.049  1.00  0.00    -0.220 C  
ENDBRANCH  18  19
ENDBRANCH   8   9
ENDBRANCH   7   8
ENDBRANCH   4   7
ENDBRANCH   2   4
TORSDOF 5
ENDMDL
MODEL       20
REMARK 921   NORMALIZED FREE ENERGY PREDICTED BY IDOCK:   -6.24 KCAL/MOL
REMARK 922        TOTAL FREE ENERGY PREDICTED BY IDOCK:   -8.40 KCAL/MOL
REMARK 923 INTER-LIGAND FREE ENERGY PREDICTED BY IDOCK:   -7.96 KCAL/MOL
REMARK 924 INTRA-LIGAND FREE ENERGY PREDICTED BY IDOCK:   -0.44 KCAL/MOL
REMARK 927      BINDING AFFINITY PREDICTED BY RF-SCORE:    0.00 PKD
ROOT
HETATM    1  C   UNL     1     -12.529  16.539  73.943  1.00  0.00    -0.378 C  
HETATM    2  N   UNL     1     -12.949  15.139  73.840  1.00  0.00    -0.481 N  
HETATM    3  H   UNL     1     -12.998  14.540  74.665  1.00  0.00     0.000 HD 
ENDROOT
BRANCH   2   4
HETATM    4  S   UNL     1     -13.348  14.556  72.307  1.00  0.00    -0.446 S  
HETATM    5  O   UNL     1     -14.378  15.420  71.773  1.00  0.00    -0.520 OA 
HETATM    6  O   UNL     1     -13.557  13.136  72.467  1.00  0.00    -0.579 OA 
BRANCH   4   7
HETATM    7  C   UNL     1     -11.826  14.822  71.420  1.00  0.00    -0.335 C  
BRANCH   7   8
HETATM    8  C   UNL     1     -12.087  15.109  69.948  1.00  0.00    -0.373 C  
BRANCH   8   9
HETATM    9  C   UNL     1     -11.867  13.913  69.044  1.00  0.00    -0.397 A  
HETATM   10  C   UNL     1     -11.435  12.695  69.610  1.00  0.00    -0.252 A  
HETATM   11  C   UNL     1     -11.168  11.574  68.790  1.00  0.00    -0.309 A  
HETATM   12  C   UNL     1     -11.384  11.712  67.419  1.00  0.00    -0.300 A  
HETATM   13  C   UNL     1     -11.799  12.901  66.822  1.00  0.00    -0.452 A  
HETATM   14  N   UNL     1     -11.102  10.507  66.835  1.00  0.00    -0.168 NA 
HETATM   15  C   UNL     1     -12.018  13.999  67.654  1.00  0.00    -0.404 A  
HETATM   16  H   UNL     1     -11.168  10.311  65.836  1.00  0.00     0.000 HD 
HETATM   17  C   UNL     1     -10.722   9.605  67.786  1.00  0.00    -0.257 A  
HETATM   18  C   UNL     1     -10.673  10.238  69.018  1.00  0.00    -0.257 A  
BRANCH  18  19
HETATM   19  C   UNL     1     -10.201   9.624  70.330  1.00  0.00    -0.333 C  
HETATM   20  C   UNL     1     -11.262   9.664  71.450  1.00  0.00    -0.426 C  
HETATM   21  C   UNL     1     -12.403   8.662  71.209  1.00  0.00    -0.263 C  
HETATM   22  N   UNL     1     -11.962   7.282  70.978  1.00  0.00    -0.322 NA 
HETATM   23  C   UNL     1     -10.916   7.215  69.949  1.00  0.00    -0.253 C  
HETATM   24  C   UNL     1     -11.581   6.612  72.216  1.00  0.00    -0.278 C  
HETATM   25  C   UNL     1      -9.739   8.163  70.193  1.00  0.00    -0.175 C  
ENDBRANCH  18  19
ENDBRANCH   8   9
ENDBRANCH   7   8
ENDBRANCH   4   7
ENDBRANCH   2   4
TORSDOF 5
ENDMDL
MODEL       21
REMARK 921   NORMALIZED FREE ENERGY PREDICTED BY IDOCK:   -6.21 KCAL/MOL
REMARK 922        TOTAL FREE ENERGY PREDICTED BY IDOCK:   -8.37 KCAL/MOL
REMARK 923 INTER-LIGAND FREE ENERGY PREDICTED BY IDOCK:   -7.92 KCAL/MOL
REMARK 924 INTRA-LIGAND FREE ENERGY PREDICTED BY IDOCK:   -0.44 KCAL/MOL
REMARK 927      BINDING AFFINITY PREDICTED BY RF-SCORE:    0.00 PKD
ROOT
HETATM    1  C   UNL     1     -10.515  12.081  63.384  1.00  0.00    -0.433 C  
HETATM    2  N   UNL     1     -10.580  13.281  64.223  1.00  0.00    -0.477 N  
HETATM    3  H   UNL     1      -9.738  13.807  64.461  1.00  0.00     0.000 HD 
ENDROOT
BRANCH   2   4
HETATM    4  S   UNL     1     -12.100  13.761  64.781  1.00  0.00    -0.424 S  
HETATM    5  O   UNL     1     -12.926  12.576  64.850  1.00  0.00    -0.821 OA 
HETATM    6  O   UNL     1     -12.473  14.901  63.977  1.00  0.00    -0.807 OA 
BRANCH   4   7
HETATM    7  C   UNL     1     -11.712  14.315  66.430  1.00  0.00    -0.391 C  
BRANCH   7   8
HETATM    8  C   UNL     1     -10.549  13.530  67.018  1.00  0.00    -0.269 C  
BRANCH   8   9
HETATM    9  C   UNL     1     -10.922  12.704  68.234  1.00  0.00    -0.275 A  
HETATM   10  C   UNL     1     -10.305  11.451  68.428  1.00  0.00    -0.209 A  
HETATM   11  C   UNL     1     -10.668  10.631  69.523  1.00  0.00    -0.290 A  
HETATM   12  C   UNL     1     -11.623  11.126  70.410  1.00  0.00    -0.259 A  
HETATM   13  C   UNL     1     -12.263  12.354  70.245  1.00  0.00    -0.345 A  
HETATM   14  N   UNL     1     -11.788  10.195  71.399  1.00  0.00    -0.359 NA 
HETATM   15  C   UNL     1     -11.909  13.123  69.136  1.00  0.00    -0.364 A  
HETATM   16  H   UNL     1     -12.430  10.284  72.187  1.00  0.00     0.000 HD 
HETATM   17  C   UNL     1     -10.967   9.128  71.175  1.00  0.00    -0.320 A  
HETATM   18  C   UNL     1     -10.298   9.312  69.976  1.00  0.00    -0.245 A  
BRANCH  18  19
HETATM   19  C   UNL     1      -9.360   8.318  69.304  1.00  0.00    -0.155 C  
HETATM   20  C   UNL     1      -9.608   6.853  69.720  1.00  0.00    -0.154 C  
HETATM   21  C   UNL     1     -10.900   6.285  69.111  1.00  0.00    -0.340 C  
HETATM   22  N   UNL     1     -10.998   6.421  67.654  1.00  0.00    -0.342 NA 
HETATM   23  C   UNL     1     -10.720   7.797  67.221  1.00  0.00    -0.255 C  
HETATM   24  C   UNL     1     -10.186   5.433  66.953  1.00  0.00    -0.240 C  
HETATM   25  C   UNL     1      -9.409   8.370  67.767  1.00  0.00    -0.150 C  
ENDBRANCH  18  19
ENDBRANCH   8   9
ENDBRANCH   7   8
ENDBRANCH   4   7
ENDBRANCH   2   4
TORSDOF 5
ENDMDL
MODEL       22
REMARK 921   NORMALIZED FREE ENERGY PREDICTED BY IDOCK:   -6.17 KCAL/MOL
REMARK 922        TOTAL FREE ENERGY PREDICTED BY IDOCK:   -8.31 KCAL/MOL
REMARK 923 INTER-LIGAND FREE ENERGY PREDICTED BY IDOCK:   -8.09 KCAL/MOL
REMARK 924 INTRA-LIGAND FREE ENERGY PREDICTED BY IDOCK:   -0.22 KCAL/MOL
REMARK 927      BINDING AFFINITY PREDICTED BY RF-SCORE:    0.00 PKD
ROOT
HETATM    1  C   UNL     1      -9.835  19.880  67.310  1.00  0.00    -0.403 C  
HETATM    2  N   UNL     1     -10.593  18.666  66.997  1.00  0.00    -0.407 N  
HETATM    3  H   UNL     1     -11.603  18.622  67.142  1.00  0.00     0.000 HD 
ENDROOT
BRANCH   2   4
HETATM    4  S   UNL     1      -9.735  17.346  66.389  1.00  0.00    -0.278 S  
HETATM    5  O   UNL     1      -8.415  17.818  66.034  1.00  0.00    -0.496 OA 
HETATM    6  O   UNL     1     -10.605  16.723  65.420  1.00  0.00    -0.563 OA 
BRANCH   4   7
HETATM    7  C   UNL     1      -9.627  16.301  67.829  1.00  0.00    -0.223 C  
BRANCH   7   8
HETATM    8  C   UNL     1     -10.549  15.096  67.708  1.00  0.00    -0.264 C  
BRANCH   8   9
HETATM    9  C   UNL     1     -11.253  14.734  69.001  1.00  0.00    -0.286 A  
HETATM   10  C   UNL     1     -11.563  13.382  69.258  1.00  0.00    -0.365 A  
HETATM   11  C   UNL     1     -12.267  13.014  70.429  1.00  0.00    -0.386 A  
HETATM   12  C   UNL     1     -12.604  14.029  71.324  1.00  0.00    -0.367 A  
HETATM   13  C   UNL     1     -12.325  15.376  71.099  1.00  0.00    -0.444 A  
HETATM   14  N   UNL     1     -13.237  13.446  72.388  1.00  0.00    -0.483 NA 
HETATM   15  C   UNL     1     -11.662  15.710  69.918  1.00  0.00    -0.372 A  
HETATM   16  H   UNL     1     -13.601  13.946  73.199  1.00  0.00     0.000 HD 
HETATM   17  C   UNL     1     -13.308  12.095  72.205  1.00  0.00    -0.333 A  
HETATM   18  C   UNL     1     -12.784  11.777  70.962  1.00  0.00    -0.372 A  
BRANCH  18  19
HETATM   19  C   UNL     1     -12.759  10.396  70.320  1.00  0.00    -0.221 C  
HETATM   20  C   UNL     1     -11.338   9.822  70.138  1.00  0.00    -0.305 C  
HETATM   21  C   UNL     1     -10.710   9.385  71.471  1.00  0.00    -0.297 C  
HETATM   22  N   UNL     1     -11.533   8.460  72.257  1.00  0.00    -0.368 NA 
HETATM   23  C   UNL     1     -12.908   8.956  72.408  1.00  0.00    -0.380 C  
HETATM   24  C   UNL     1     -11.477   7.099  71.739  1.00  0.00    -0.267 C  
HETATM   25  C   UNL     1     -13.579   9.346  71.089  1.00  0.00    -0.214 C  
ENDBRANCH  18  19
ENDBRANCH   8   9
ENDBRANCH   7   8
ENDBRANCH   4   7
ENDBRANCH   2   4
TORSDOF 5
ENDMDL
MODEL       23
REMARK 921   NORMALIZED FREE ENERGY PREDICTED BY IDOCK:   -6.08 KCAL/MOL
REMARK 922        TOTAL FREE ENERGY PREDICTED BY IDOCK:   -8.19 KCAL/MOL
REMARK 923 INTER-LIGAND FREE ENERGY PREDICTED BY IDOCK:   -7.97 KCAL/MOL
REMARK 924 INTRA-LIGAND FREE ENERGY PREDICTED BY IDOCK:   -0.23 KCAL/MOL
REMARK 927      BINDING AFFINITY PREDICTED BY RF-SCORE:    0.00 PKD
ROOT
HETATM    1  C   UNL     1     -12.774   7.340  71.269  1.00  0.00    -0.359 C  
HETATM    2  N   UNL     1     -13.295   8.674  70.956  1.00  0.00    -0.520 N  
HETATM    3  H   UNL     1     -14.221   8.797  70.545  1.00  0.00     0.000 HD 
ENDROOT
BRANCH   2   4
HETATM    4  S   UNL     1     -12.306   9.997  71.300  1.00  0.00    -0.430 S  
HETATM    5  O   UNL     1     -11.068   9.480  71.842  1.00  0.00    -0.290 OA 
HETATM    6  O   UNL     1     -13.130  10.924  72.040  1.00  0.00    -0.491 OA 
BRANCH   4   7
HETATM    7  C   UNL     1     -12.014  10.654  69.669  1.00  0.00    -0.268 C  
BRANCH   7   8
HETATM    8  C   UNL     1     -11.957  12.175  69.687  1.00  0.00    -0.351 C  
BRANCH   8   9
HETATM    9  C   UNL     1     -11.659  12.791  68.334  1.00  0.00    -0.365 A  
HETATM   10  C   UNL     1     -11.340  14.163  68.261  1.00  0.00    -0.319 A  
HETATM   11  C   UNL     1     -11.108  14.783  67.010  1.00  0.00    -0.333 A  
HETATM   12  C   UNL     1     -11.172  13.981  65.872  1.00  0.00    -0.308 A  
HETATM   13  C   UNL     1     -11.495  12.625  65.903  1.00  0.00    -0.407 A  
HETATM   14  N   UNL     1     -10.880  14.772  64.794  1.00  0.00    -0.555 NA 
HETATM   15  C   UNL     1     -11.753  12.052  67.149  1.00  0.00    -0.344 A  
HETATM   16  H   UNL     1     -10.855  14.455  63.825  1.00  0.00     0.000 HD 
HETATM   17  C   UNL     1     -10.627  16.047  65.207  1.00  0.00    -0.402 A  
HETATM   18  C   UNL     1     -10.828  16.130  66.576  1.00  0.00    -0.139 A  
BRANCH  18  19
HETATM   19  C   UNL     1     -10.751  17.392  67.425  1.00  0.00    -0.251 C  
HETATM   20  C   UNL     1      -9.952  17.212  68.733  1.00  0.00    -0.315 C  
HETATM   21  C   UNL     1      -8.439  17.100  68.482  1.00  0.00    -0.262 C  
HETATM   22  N   UNL     1      -7.871  18.195  67.688  1.00  0.00    -0.223 NA 
HETATM   23  C   UNL     1      -8.639  18.424  66.457  1.00  0.00    -0.273 C  
HETATM   24  C   UNL     1      -7.691  19.408  68.476  1.00  0.00    -0.345 C  
HETATM   25  C   UNL     1     -10.144  18.595  66.683  1.00  0.00    -0.418 C  
ENDBRANCH  18  19
ENDBRANCH   8   9
ENDBRANCH   7   8
ENDBRANCH   4   7
ENDBRANCH   2   4
TORSDOF 5
ENDMDL
MODEL       24
REMARK 921   NORMALIZED FREE ENERGY PREDICTED BY IDOCK:   -6.06 KCAL/MOL
REMARK 922        TOTAL FREE ENERGY PREDICTED BY IDOCK:   -8.18 KCAL/MOL
REMARK 923 INTER-LIGAND FREE ENERGY PREDICTED BY IDOCK:   -7.95 KCAL/MOL
REMARK 924 INTRA-LIGAND FREE ENERGY PREDICTED BY IDOCK:   -0.23 KCAL/MOL
REMARK 927      BINDING AFFINITY PREDICTED BY RF-SCORE:    0.00 PKD
ROOT
HETATM    1  C   UNL     1     -12.094  15.954  73.568  1.00  0.00    -0.469 C  
HETATM    2  N   UNL     1     -12.044  16.301  72.146  1.00  0.00    -0.588 N  
HETATM    3  H   UNL     1     -11.488  17.089  71.813  1.00  0.00     0.000 HD 
ENDROOT
BRANCH   2   4
HETATM    4  S   UNL     1     -12.941  15.349  71.079  1.00  0.00    -0.489 S  
HETATM    5  O   UNL     1     -12.318  15.456  69.778  1.00  0.00    -0.324 OA 
HETATM    6  O   UNL     1     -14.322  15.713  71.291  1.00  0.00    -0.521 OA 
BRANCH   4   7
HETATM    7  C   UNL     1     -12.662  13.718  71.741  1.00  0.00    -0.282 C  
BRANCH   7   8
HETATM    8  C   UNL     1     -12.277  12.734  70.646  1.00  0.00    -0.374 C  
BRANCH   8   9
HETATM    9  C   UNL     1     -12.355  11.282  71.073  1.00  0.00    -0.472 A  
HETATM   10  C   UNL     1     -11.432  10.359  70.539  1.00  0.00    -0.431 A  
HETATM   11  C   UNL     1     -11.509   8.986  70.875  1.00  0.00    -0.347 A  
HETATM   12  C   UNL     1     -12.502   8.598  71.773  1.00  0.00    -0.346 A  
HETATM   13  C   UNL     1     -13.439   9.478  72.313  1.00  0.00    -0.521 A  
HETATM   14  N   UNL     1     -12.367   7.252  71.979  1.00  0.00    -0.424 NA 
HETATM   15  C   UNL     1     -13.358  10.818  71.934  1.00  0.00    -0.445 A  
HETATM   16  H   UNL     1     -12.961   6.690  72.589  1.00  0.00     0.000 HD 
HETATM   17  C   UNL     1     -11.319   6.772  71.248  1.00  0.00    -0.289 A  
HETATM   18  C   UNL     1     -10.792   7.798  70.481  1.00  0.00    -0.245 A  
BRANCH  18  19
HETATM   19  C   UNL     1      -9.678   7.674  69.450  1.00  0.00    -0.165 C  
HETATM   20  C   UNL     1      -8.941   6.318  69.495  1.00  0.00    -0.134 C  
HETATM   21  C   UNL     1      -9.798   5.170  68.937  1.00  0.00    -0.172 C  
HETATM   22  N   UNL     1     -10.337   5.410  67.594  1.00  0.00    -0.192 NA 
HETATM   23  C   UNL     1     -11.004   6.716  67.506  1.00  0.00    -0.338 C  
HETATM   24  C   UNL     1      -9.332   5.218  66.556  1.00  0.00    -0.143 C  
HETATM   25  C   UNL     1     -10.153   7.887  68.003  1.00  0.00    -0.235 C  
ENDBRANCH  18  19
ENDBRANCH   8   9
ENDBRANCH   7   8
ENDBRANCH   4   7
ENDBRANCH   2   4
TORSDOF 5
ENDMDL
MODEL       25
REMARK 921   NORMALIZED FREE ENERGY PREDICTED BY IDOCK:   -6.06 KCAL/MOL
REMARK 922        TOTAL FREE ENERGY PREDICTED BY IDOCK:   -8.17 KCAL/MOL
REMARK 923 INTER-LIGAND FREE ENERGY PREDICTED BY IDOCK:   -7.89 KCAL/MOL
REMARK 924 INTRA-LIGAND FREE ENERGY PREDICTED BY IDOCK:   -0.28 KCAL/MOL
REMARK 927      BINDING AFFINITY PREDICTED BY RF-SCORE:    0.00 PKD
ROOT
HETATM    1  C   UNL     1      -9.806  11.360  63.153  1.00  0.00    -0.388 C  
HETATM    2  N   UNL     1     -11.192  11.821  63.045  1.00  0.00    -0.709 N  
HETATM    3  H   UNL     1     -11.758  11.608  62.223  1.00  0.00     0.000 HD 
ENDROOT
BRANCH   2   4
HETATM    4  S   UNL     1     -11.818  12.718  64.331  1.00  0.00    -0.415 S  
HETATM    5  O   UNL     1     -13.223  12.394  64.437  1.00  0.00    -0.816 OA 
HETATM    6  O   UNL     1     -11.365  14.073  64.124  1.00  0.00    -0.300 OA 
BRANCH   4   7
HETATM    7  C   UNL     1     -10.938  12.015  65.713  1.00  0.00    -0.307 C  
BRANCH   7   8
HETATM    8  C   UNL     1     -11.874  11.737  66.881  1.00  0.00    -0.090 C  
BRANCH   8   9
HETATM    9  C   UNL     1     -11.756  12.742  68.010  1.00  0.00    -0.405 A  
HETATM   10  C   UNL     1     -11.377  14.068  67.712  1.00  0.00    -0.328 A  
HETATM   11  C   UNL     1     -11.205  15.017  68.746  1.00  0.00    -0.288 A  
HETATM   12  C   UNL     1     -11.459  14.601  70.053  1.00  0.00    -0.265 A  
HETATM   13  C   UNL     1     -11.824  13.298  70.387  1.00  0.00    -0.270 A  
HETATM   14  N   UNL     1     -11.270  15.680  70.873  1.00  0.00    -0.348 NA 
HETATM   15  C   UNL     1     -11.950  12.375  69.348  1.00  0.00    -0.319 A  
HETATM   16  H   UNL     1     -11.381  15.671  71.887  1.00  0.00     0.000 HD 
HETATM   17  C   UNL     1     -10.910  16.769  70.134  1.00  0.00     0.014 A  
HETATM   18  C   UNL     1     -10.781  16.395  68.806  1.00  0.00    -0.321 A  
BRANCH  18  19
HETATM   19  C   UNL     1     -10.302  17.279  67.662  1.00  0.00    -0.350 C  
HETATM   20  C   UNL     1     -10.574  18.782  67.884  1.00  0.00    -0.406 C  
HETATM   21  C   UNL     1      -9.648  19.391  68.950  1.00  0.00    -0.415 C  
HETATM   22  N   UNL     1      -8.218  19.164  68.716  1.00  0.00    -0.363 NA 
HETATM   23  C   UNL     1      -7.933  17.747  68.454  1.00  0.00    -0.293 C  
HETATM   24  C   UNL     1      -7.682  20.048  67.689  1.00  0.00    -0.294 C  
HETATM   25  C   UNL     1      -8.802  17.128  67.356  1.00  0.00    -0.218 C  
ENDBRANCH  18  19
ENDBRANCH   8   9
ENDBRANCH   7   8
ENDBRANCH   4   7
ENDBRANCH   2   4
TORSDOF 5
ENDMDL
MODEL       26
REMARK 921   NORMALIZED FREE ENERGY PREDICTED BY IDOCK:   -6.06 KCAL/MOL
REMARK 922        TOTAL FREE ENERGY PREDICTED BY IDOCK:   -8.17 KCAL/MOL
REMARK 923 INTER-LIGAND FREE ENERGY PREDICTED BY IDOCK:   -7.85 KCAL/MOL
REMARK 924 INTRA-LIGAND FREE ENERGY PREDICTED BY IDOCK:   -0.32 KCAL/MOL
REMARK 927      BINDING AFFINITY PREDICTED BY RF-SCORE:    0.00 PKD
ROOT
HETATM    1  C   UNL     1     -11.145   6.369  68.904  1.00  0.00    -0.348 C  
HETATM    2  N   UNL     1     -11.964   6.619  70.093  1.00  0.00    -0.615 N  
HETATM    3  H   UNL     1     -12.981   6.667  70.034  1.00  0.00     0.000 HD 
ENDROOT
BRANCH   2   4
HETATM    4  S   UNL     1     -11.160   6.824  71.564  1.00  0.00    -0.262 S  
HETATM    5  O   UNL     1      -9.742   6.822  71.283  1.00  0.00    -0.173 OA 
HETATM    6  O   UNL     1     -11.755   5.873  72.474  1.00  0.00    -0.303 OA 
BRANCH   4   7
HETATM    7  C   UNL     1     -11.676   8.467  72.022  1.00  0.00    -0.362 C  
BRANCH   7   8
HETATM    8  C   UNL     1     -12.607   9.066  70.978  1.00  0.00    -0.173 C  
BRANCH   8   9
HETATM    9  C   UNL     1     -12.651  10.582  70.996  1.00  0.00    -0.499 A  
HETATM   10  C   UNL     1     -11.942  11.300  70.011  1.00  0.00    -0.447 A  
HETATM   11  C   UNL     1     -11.917  12.715  70.029  1.00  0.00    -0.377 A  
HETATM   12  C   UNL     1     -12.644  13.359  71.030  1.00  0.00    -0.343 A  
HETATM   13  C   UNL     1     -13.347  12.684  72.026  1.00  0.00    -0.555 A  
HETATM   14  N   UNL     1     -12.510  14.707  70.833  1.00  0.00    -0.313 NA 
HETATM   15  C   UNL     1     -13.322  11.289  72.002  1.00  0.00    -0.386 A  
HETATM   16  H   UNL     1     -12.932  15.429  71.417  1.00  0.00     0.000 HD 
HETATM   17  C   UNL     1     -11.728  14.942  69.740  1.00  0.00    -0.305 A  
HETATM   18  C   UNL     1     -11.268  13.734  69.241  1.00  0.00    -0.291 A  
BRANCH  18  19
HETATM   19  C   UNL     1     -10.290  13.547  68.089  1.00  0.00    -0.247 C  
HETATM   20  C   UNL     1     -10.642  12.365  67.162  1.00  0.00    -0.247 C  
HETATM   21  C   UNL     1     -11.866  12.660  66.280  1.00  0.00    -0.410 C  
HETATM   22  N   UNL     1     -11.773  13.902  65.505  1.00  0.00    -0.337 NA 
HETATM   23  C   UNL     1     -11.391  15.040  66.352  1.00  0.00    -0.275 C  
HETATM   24  C   UNL     1     -10.916  13.756  64.335  1.00  0.00    -0.343 C  
HETATM   25  C   UNL     1     -10.141  14.794  67.201  1.00  0.00    -0.240 C  
ENDBRANCH  18  19
ENDBRANCH   8   9
ENDBRANCH   7   8
ENDBRANCH   4   7
ENDBRANCH   2   4
TORSDOF 5
ENDMDL
MODEL       27
REMARK 921   NORMALIZED FREE ENERGY PREDICTED BY IDOCK:   -6.04 KCAL/MOL
REMARK 922        TOTAL FREE ENERGY PREDICTED BY IDOCK:   -8.15 KCAL/MOL
REMARK 923 INTER-LIGAND FREE ENERGY PREDICTED BY IDOCK:   -7.61 KCAL/MOL
REMARK 924 INTRA-LIGAND FREE ENERGY PREDICTED BY IDOCK:   -0.54 KCAL/MOL
REMARK 927      BINDING AFFINITY PREDICTED BY RF-SCORE:    0.00 PKD
ROOT
HETATM    1  C   UNL     1     -12.167  12.398  63.405  1.00  0.00    -0.523 C  
HETATM    2  N   UNL     1     -11.312  13.542  63.732  1.00  0.00    -0.588 N  
HETATM    3  H   UNL     1     -10.325  13.556  63.471  1.00  0.00     0.000 HD 
ENDROOT
BRANCH   2   4
HETATM    4  S   UNL     1     -12.020  14.834  64.557  1.00  0.00    -0.383 S  
HETATM    5  O   UNL     1     -13.207  14.329  65.210  1.00  0.00    -0.704 OA 
HETATM    6  O   UNL     1     -12.079  15.922  63.609  1.00  0.00    -0.682 OA 
BRANCH   4   7
HETATM    7  C   UNL     1     -10.775  15.198  65.780  1.00  0.00    -0.351 C  
BRANCH   7   8
HETATM    8  C   UNL     1      -9.979  13.953  66.146  1.00  0.00    -0.322 C  
BRANCH   8   9
HETATM    9  C   UNL     1     -10.483  13.250  67.391  1.00  0.00    -0.243 A  
HETATM   10  C   UNL     1      -9.962  11.981  67.721  1.00  0.00    -0.199 A  
HETATM   11  C   UNL     1     -10.447  11.274  68.845  1.00  0.00    -0.232 A  
HETATM   12  C   UNL     1     -11.424  11.893  69.624  1.00  0.00    -0.266 A  
HETATM   13  C   UNL     1     -11.971  13.140  69.324  1.00  0.00    -0.344 A  
HETATM   14  N   UNL     1     -11.712  11.054  70.667  1.00  0.00    -0.393 NA 
HETATM   15  C   UNL     1     -11.496  13.796  68.188  1.00  0.00    -0.348 A  
HETATM   16  H   UNL     1     -12.396  11.244  71.399  1.00  0.00     0.000 HD 
HETATM   17  C   UNL     1     -10.950   9.926  70.581  1.00  0.00    -0.337 A  
HETATM   18  C   UNL     1     -10.193   9.975  69.421  1.00  0.00    -0.239 A  
BRANCH  18  19
HETATM   19  C   UNL     1      -9.280   8.877  68.892  1.00  0.00    -0.140 C  
HETATM   20  C   UNL     1      -9.477   7.516  69.592  1.00  0.00    -0.156 C  
HETATM   21  C   UNL     1     -10.793   6.835  69.183  1.00  0.00    -0.258 C  
HETATM   22  N   UNL     1     -10.981   6.692  67.736  1.00  0.00    -0.288 NA 
HETATM   23  C   UNL     1     -10.753   7.962  67.034  1.00  0.00    -0.219 C  
HETATM   24  C   UNL     1     -10.195   5.593  67.186  1.00  0.00    -0.212 C  
HETATM   25  C   UNL     1      -9.423   8.636  67.379  1.00  0.00    -0.187 C  
ENDBRANCH  18  19
ENDBRANCH   8   9
ENDBRANCH   7   8
ENDBRANCH   4   7
ENDBRANCH   2   4
TORSDOF 5
ENDMDL
MODEL       28
REMARK 921   NORMALIZED FREE ENERGY PREDICTED BY IDOCK:   -6.03 KCAL/MOL
REMARK 922        TOTAL FREE ENERGY PREDICTED BY IDOCK:   -8.14 KCAL/MOL
REMARK 923 INTER-LIGAND FREE ENERGY PREDICTED BY IDOCK:   -7.75 KCAL/MOL
REMARK 924 INTRA-LIGAND FREE ENERGY PREDICTED BY IDOCK:   -0.38 KCAL/MOL
REMARK 927      BINDING AFFINITY PREDICTED BY RF-SCORE:    0.00 PKD
ROOT
HETATM    1  C   UNL     1     -14.325   8.285  71.988  1.00  0.00    -0.450 C  
HETATM    2  N   UNL     1     -13.045   8.687  72.577  1.00  0.00    -0.591 N  
HETATM    3  H   UNL     1     -12.976   9.505  73.183  1.00  0.00     0.000 HD 
ENDROOT
BRANCH   2   4
HETATM    4  S   UNL     1     -11.691   7.746  72.216  1.00  0.00    -0.343 S  
HETATM    5  O   UNL     1     -12.065   6.846  71.148  1.00  0.00    -0.347 OA 
HETATM    6  O   UNL     1     -11.201   7.257  73.484  1.00  0.00    -0.191 OA 
BRANCH   4   7
HETATM    7  C   UNL     1     -10.562   8.976  71.592  1.00  0.00    -0.364 C  
BRANCH   7   8
HETATM    8  C   UNL     1     -11.300  10.068  70.831  1.00  0.00    -0.439 C  
BRANCH   8   9
HETATM    9  C   UNL     1     -11.001  10.085  69.345  1.00  0.00    -0.280 A  
HETATM   10  C   UNL     1     -11.352  11.223  68.587  1.00  0.00    -0.336 A  
HETATM   11  C   UNL     1     -11.137  11.251  67.190  1.00  0.00    -0.364 A  
HETATM   12  C   UNL     1     -10.538  10.135  66.606  1.00  0.00    -0.144 A  
HETATM   13  C   UNL     1     -10.188   8.990  67.319  1.00  0.00    -0.323 A  
HETATM   14  N   UNL     1     -10.394  10.396  65.271  1.00  0.00    -0.255 NA 
HETATM   15  C   UNL     1     -10.446   8.979  68.690  1.00  0.00    -0.229 A  
HETATM   16  H   UNL     1      -9.987   9.756  64.589  1.00  0.00     0.000 HD 
HETATM   17  C   UNL     1     -10.875  11.641  64.985  1.00  0.00    -0.288 A  
HETATM   18  C   UNL     1     -11.420  12.192  66.133  1.00  0.00    -0.429 A  
BRANCH  18  19
HETATM   19  C   UNL     1     -12.151  13.525  66.235  1.00  0.00    -0.476 C  
HETATM   20  C   UNL     1     -11.709  14.384  67.439  1.00  0.00    -0.424 C  
HETATM   21  C   UNL     1     -10.309  14.988  67.241  1.00  0.00    -0.249 C  
HETATM   22  N   UNL     1     -10.142  15.741  65.993  1.00  0.00    -0.312 NA 
HETATM   23  C   UNL     1     -10.599  14.967  64.831  1.00  0.00    -0.391 C  
HETATM   24  C   UNL     1     -10.747  17.065  66.064  1.00  0.00    -0.116 C  
HETATM   25  C   UNL     1     -12.013  14.399  64.977  1.00  0.00    -0.413 C  
ENDBRANCH  18  19
ENDBRANCH   8   9
ENDBRANCH   7   8
ENDBRANCH   4   7
ENDBRANCH   2   4
TORSDOF 5
ENDMDL
MODEL       29
REMARK 921   NORMALIZED FREE ENERGY PREDICTED BY IDOCK:   -6.02 KCAL/MOL
REMARK 922        TOTAL FREE ENERGY PREDICTED BY IDOCK:   -8.13 KCAL/MOL
REMARK 923 INTER-LIGAND FREE ENERGY PREDICTED BY IDOCK:   -7.92 KCAL/MOL
REMARK 924 INTRA-LIGAND FREE ENERGY PREDICTED BY IDOCK:   -0.21 KCAL/MOL
REMARK 927      BINDING AFFINITY PREDICTED BY RF-SCORE:    0.00 PKD
ROOT
HETATM    1  C   UNL     1     -11.926  10.138  71.134  1.00  0.00    -0.386 C  
HETATM    2  N   UNL     1     -11.932   9.882  69.691  1.00  0.00    -0.461 N  
HETATM    3  H   UNL     1     -12.801   9.880  69.158  1.00  0.00     0.000 HD 
ENDROOT
BRANCH   2   4
HETATM    4  S   UNL     1     -10.445   9.591  68.946  1.00  0.00    -0.215 S  
HETATM    5  O   UNL     1     -10.432   8.203  68.540  1.00  0.00    -0.207 OA 
HETATM    6  O   UNL     1      -9.445  10.132  69.836  1.00  0.00    -0.204 OA 
BRANCH   4   7
HETATM    7  C   UNL     1     -10.563  10.633  67.504  1.00  0.00    -0.252 C  
BRANCH   7   8
HETATM    8  C   UNL     1     -11.684  11.652  67.648  1.00  0.00    -0.300 C  
BRANCH   8   9
HETATM    9  C   UNL     1     -11.632  12.766  66.621  1.00  0.00    -0.430 A  
HETATM   10  C   UNL     1     -11.151  14.034  67.009  1.00  0.00    -0.312 A  
HETATM   11  C   UNL     1     -11.139  15.111  66.092  1.00  0.00    -0.311 A  
HETATM   12  C   UNL     1     -11.582  14.858  64.795  1.00  0.00    -0.410 A  
HETATM   13  C   UNL     1     -12.075  13.623  64.377  1.00  0.00    -0.470 A  
HETATM   14  N   UNL     1     -11.447  16.017  64.080  1.00  0.00    -1.266 NA 
HETATM   15  C   UNL     1     -12.108  12.590  65.316  1.00  0.00    -0.500 A  
HETATM   16  H   UNL     1     -11.697  16.133  63.098  1.00  0.00     0.000 HD 
HETATM   17  C   UNL     1     -10.927  16.997  64.875  1.00  0.00     0.092 A  
HETATM   18  C   UNL     1     -10.784  16.508  66.164  1.00  0.00    -0.155 A  
BRANCH  18  19
HETATM   19  C   UNL     1     -10.332  17.299  67.384  1.00  0.00    -0.338 C  
HETATM   20  C   UNL     1      -8.895  16.969  67.840  1.00  0.00    -0.224 C  
HETATM   21  C   UNL     1      -7.835  17.538  66.883  1.00  0.00    -0.228 C  
HETATM   22  N   UNL     1      -7.964  18.975  66.616  1.00  0.00    -0.260 NA 
HETATM   23  C   UNL     1      -9.335  19.330  66.226  1.00  0.00    -0.339 C  
HETATM   24  C   UNL     1      -7.462  19.786  67.719  1.00  0.00    -0.286 C  
HETATM   25  C   UNL     1     -10.410  18.823  67.192  1.00  0.00    -0.455 C  
ENDBRANCH  18  19
ENDBRANCH   8   9
ENDBRANCH   7   8
ENDBRANCH   4   7
ENDBRANCH   2   4
TORSDOF 5
ENDMDL
MODEL       30
REMARK 921   NORMALIZED FREE ENERGY PREDICTED BY IDOCK:   -6.02 KCAL/MOL
REMARK 922        TOTAL FREE ENERGY PREDICTED BY IDOCK:   -8.12 KCAL/MOL
REMARK 923 INTER-LIGAND FREE ENERGY PREDICTED BY IDOCK:   -8.05 KCAL/MOL
REMARK 924 INTRA-LIGAND FREE ENERGY PREDICTED BY IDOCK:   -0.07 KCAL/MOL
REMARK 927      BINDING AFFINITY PREDICTED BY RF-SCORE:    0.00 PKD
ROOT
HETATM    1  C   UNL     1     -10.981   6.633  68.792  1.00  0.00    -0.260 C  
HETATM    2  N   UNL     1     -10.953   7.136  67.416  1.00  0.00    -0.539 N  
HETATM    3  H   UNL     1     -11.717   6.944  66.767  1.00  0.00     0.000 HD 
ENDROOT
BRANCH   2   4
HETATM    4  S   UNL     1      -9.611   8.046  66.945  1.00  0.00    -0.224 S  
HETATM    5  O   UNL     1      -9.082   7.441  65.743  1.00  0.00    -0.092 OA 
HETATM    6  O   UNL     1      -8.806   8.204  68.133  1.00  0.00    -0.132 OA 
BRANCH   4   7
HETATM    7  C   UNL     1     -10.367   9.609  66.543  1.00  0.00    -0.194 C  
BRANCH   7   8
HETATM    8  C   UNL     1      -9.854  10.146  65.215  1.00  0.00    -0.388 C  
BRANCH   8   9
HETATM    9  C   UNL     1     -10.492  11.457  64.799  1.00  0.00    -0.366 A  
HETATM   10  C   UNL     1      -9.994  12.663  65.336  1.00  0.00    -0.230 A  
HETATM   11  C   UNL     1     -10.599  13.900  65.011  1.00  0.00    -0.418 A  
HETATM   12  C   UNL     1     -11.671  13.878  64.120  1.00  0.00    -0.340 A  
HETATM   13  C   UNL     1     -12.198  12.707  63.578  1.00  0.00    -0.638 A  
HETATM   14  N   UNL     1     -12.069  15.173  63.924  1.00  0.00    -0.957 NA 
HETATM   15  C   UNL     1     -11.602  11.500  63.946  1.00  0.00    -0.305 A  
HETATM   16  H   UNL     1     -12.839  15.465  63.321  1.00  0.00     0.000 HD 
HETATM   17  C   UNL     1     -11.284  16.017  64.654  1.00  0.00    -0.330 A  
HETATM   18  C   UNL     1     -10.395  15.271  65.411  1.00  0.00    -0.421 A  
BRANCH  18  19
HETATM   19  C   UNL     1      -9.408  15.811  66.438  1.00  0.00    -0.333 C  
HETATM   20  C   UNL     1      -8.886  17.226  66.110  1.00  0.00    -0.195 C  
HETATM   21  C   UNL     1      -9.953  18.309  66.335  1.00  0.00    -0.380 C  
HETATM   22  N   UNL     1     -10.567  18.292  67.667  1.00  0.00    -0.419 NA 
HETATM   23  C   UNL     1     -11.032  16.946  68.029  1.00  0.00    -0.271 C  
HETATM   24  C   UNL     1      -9.699  18.881  68.680  1.00  0.00    -0.400 C  
HETATM   25  C   UNL     1      -9.972  15.854  67.868  1.00  0.00    -0.221 C  
ENDBRANCH  18  19
ENDBRANCH   8   9
ENDBRANCH   7   8
ENDBRANCH   4   7
ENDBRANCH   2   4
TORSDOF 5
ENDMDL
MODEL       31
REMARK 921   NORMALIZED FREE ENERGY PREDICTED BY IDOCK:   -6.01 KCAL/MOL
REMARK 922        TOTAL FREE ENERGY PREDICTED BY IDOCK:   -8.11 KCAL/MOL
REMARK 923 INTER-LIGAND FREE ENERGY PREDICTED BY IDOCK:   -7.81 KCAL/MOL
REMARK 924 INTRA-LIGAND FREE ENERGY PREDICTED BY IDOCK:   -0.30 KCAL/MOL
REMARK 927      BINDING AFFINITY PREDICTED BY RF-SCORE:    0.00 PKD
ROOT
HETATM    1  C   UNL     1     -12.113  16.124  73.810  1.00  0.00    -0.424 C  
HETATM    2  N   UNL     1     -12.555  14.736  73.650  1.00  0.00    -0.472 N  
HETATM    3  H   UNL     1     -12.279  14.013  74.314  1.00  0.00     0.000 HD 
ENDROOT
BRANCH   2   4
HETATM    4  S   UNL     1     -13.539  14.381  72.325  1.00  0.00    -0.501 S  
HETATM    5  O   UNL     1     -14.289  15.577  72.012  1.00  0.00    -0.529 OA 
HETATM    6  O   UNL     1     -14.196  13.135  72.644  1.00  0.00    -0.677 OA 
BRANCH   4   7
HETATM    7  C   UNL     1     -12.326  14.088  71.052  1.00  0.00    -0.369 C  
BRANCH   7   8
HETATM    8  C   UNL     1     -12.219  15.276  70.107  1.00  0.00    -0.402 C  
BRANCH   8   9
HETATM    9  C   UNL     1     -11.651  14.923  68.746  1.00  0.00    -0.348 A  
HETATM   10  C   UNL     1     -11.619  13.571  68.345  1.00  0.00    -0.378 A  
HETATM   11  C   UNL     1     -11.047  13.201  67.105  1.00  0.00    -0.305 A  
HETATM   12  C   UNL     1     -10.558  14.222  66.290  1.00  0.00    -0.291 A  
HETATM   13  C   UNL     1     -10.562  15.567  66.656  1.00  0.00    -0.307 A  
HETATM   14  N   UNL     1     -10.094  13.644  65.140  1.00  0.00    -0.530 NA 
HETATM   15  C   UNL     1     -11.100  15.895  67.901  1.00  0.00    -0.317 A  
HETATM   16  H   UNL     1      -9.673  14.148  64.359  1.00  0.00     0.000 HD 
HETATM   17  C   UNL     1     -10.276  12.292  65.192  1.00  0.00    -0.279 A  
HETATM   18  C   UNL     1     -10.800  11.951  66.428  1.00  0.00    -0.318 A  
BRANCH  18  19
HETATM   19  C   UNL     1     -11.064  10.540  66.938  1.00  0.00    -0.124 C  
HETATM   20  C   UNL     1     -10.074   9.489  66.394  1.00  0.00    -0.328 C  
HETATM   21  C   UNL     1      -8.677   9.623  67.021  1.00  0.00    -0.128 C  
HETATM   22  N   UNL     1      -8.665   9.618  68.488  1.00  0.00    -0.119 NA 
HETATM   23  C   UNL     1      -9.633  10.576  69.039  1.00  0.00    -0.202 C  
HETATM   24  C   UNL     1      -8.826   8.276  69.034  1.00  0.00    -0.143 C  
HETATM   25  C   UNL     1     -11.048  10.429  68.473  1.00  0.00    -0.318 C  
ENDBRANCH  18  19
ENDBRANCH   8   9
ENDBRANCH   7   8
ENDBRANCH   4   7
ENDBRANCH   2   4
TORSDOF 5
ENDMDL
MODEL       32
REMARK 921   NORMALIZED FREE ENERGY PREDICTED BY IDOCK:   -5.98 KCAL/MOL
REMARK 922        TOTAL FREE ENERGY PREDICTED BY IDOCK:   -8.07 KCAL/MOL
REMARK 923 INTER-LIGAND FREE ENERGY PREDICTED BY IDOCK:   -7.74 KCAL/MOL
REMARK 924 INTRA-LIGAND FREE ENERGY PREDICTED BY IDOCK:   -0.33 KCAL/MOL
REMARK 927      BINDING AFFINITY PREDICTED BY RF-SCORE:    0.00 PKD
ROOT
HETATM    1  C   UNL     1     -11.400  15.406  67.739  1.00  0.00    -0.306 C  
HETATM    2  N   UNL     1     -12.240  14.224  67.531  1.00  0.00    -0.598 N  
HETATM    3  H   UNL     1     -13.187  14.174  67.910  1.00  0.00     0.000 HD 
ENDROOT
BRANCH   2   4
HETATM    4  S   UNL     1     -11.584  12.947  66.643  1.00  0.00    -0.391 S  
HETATM    5  O   UNL     1     -10.204  13.280  66.366  1.00  0.00    -0.278 OA 
HETATM    6  O   UNL     1     -12.527  12.678  65.583  1.00  0.00    -0.622 OA 
BRANCH   4   7
HETATM    7  C   UNL     1     -11.650  11.619  67.830  1.00  0.00    -0.298 C  
BRANCH   7   8
HETATM    8  C   UNL     1     -11.785  12.152  69.249  1.00  0.00    -0.386 C  
BRANCH   8   9
HETATM    9  C   UNL     1     -11.920  11.067  70.299  1.00  0.00    -0.452 A  
HETATM   10  C   UNL     1     -10.986  10.010  70.317  1.00  0.00    -0.377 A  
HETATM   11  C   UNL     1     -11.113   8.952  71.248  1.00  0.00    -0.367 A  
HETATM   12  C   UNL     1     -12.166   9.019  72.160  1.00  0.00    -0.357 A  
HETATM   13  C   UNL     1     -13.114  10.041  72.166  1.00  0.00    -0.482 A  
HETATM   14  N   UNL     1     -12.072   7.926  72.978  1.00  0.00    -0.642 NA 
HETATM   15  C   UNL     1     -12.982  11.050  71.212  1.00  0.00    -0.472 A  
HETATM   16  H   UNL     1     -12.713   7.709  73.741  1.00  0.00     0.000 HD 
HETATM   17  C   UNL     1     -10.993   7.170  72.623  1.00  0.00    -0.288 A  
HETATM   18  C   UNL     1     -10.400   7.724  71.500  1.00  0.00    -0.227 A  
BRANCH  18  19
HETATM   19  C   UNL     1      -9.229   7.142  70.719  1.00  0.00    -0.157 C  
HETATM   20  C   UNL     1      -8.708   5.805  71.286  1.00  0.00    -0.132 C  
HETATM   21  C   UNL     1      -9.673   4.640  71.010  1.00  0.00    -0.188 C  
HETATM   22  N   UNL     1     -10.049   4.481  69.601  1.00  0.00    -0.183 NA 
HETATM   23  C   UNL     1     -10.504   5.750  69.018  1.00  0.00    -0.266 C  
HETATM   24  C   UNL     1      -8.995   3.846  68.819  1.00  0.00    -0.120 C  
HETATM   25  C   UNL     1      -9.536   6.917  69.228  1.00  0.00    -0.147 C  
ENDBRANCH  18  19
ENDBRANCH   8   9
ENDBRANCH   7   8
ENDBRANCH   4   7
ENDBRANCH   2   4
TORSDOF 5
ENDMDL
MODEL       33
REMARK 921   NORMALIZED FREE ENERGY PREDICTED BY IDOCK:   -5.95 KCAL/MOL
REMARK 922        TOTAL FREE ENERGY PREDICTED BY IDOCK:   -8.03 KCAL/MOL
REMARK 923 INTER-LIGAND FREE ENERGY PREDICTED BY IDOCK:   -7.87 KCAL/MOL
REMARK 924 INTRA-LIGAND FREE ENERGY PREDICTED BY IDOCK:   -0.16 KCAL/MOL
REMARK 927      BINDING AFFINITY PREDICTED BY RF-SCORE:    0.00 PKD
ROOT
HETATM    1  C   UNL     1     -11.157  16.304  64.796  1.00  0.00    -0.281 C  
HETATM    2  N   UNL     1     -12.008  15.471  63.942  1.00  0.00    -0.986 N  
HETATM    3  H   UNL     1     -12.390  15.828  63.066  1.00  0.00     0.000 HD 
ENDROOT
BRANCH   2   4
HETATM    4  S   UNL     1     -12.332  13.898  64.464  1.00  0.00    -0.333 S  
HETATM    5  O   UNL     1     -12.457  13.071  63.284  1.00  0.00    -0.699 OA 
HETATM    6  O   UNL     1     -13.403  14.014  65.426  1.00  0.00    -0.721 OA 
BRANCH   4   7
HETATM    7  C   UNL     1     -10.824  13.492  65.321  1.00  0.00    -0.310 C  
BRANCH   7   8
HETATM    8  C   UNL     1     -10.771  12.012  65.676  1.00  0.00    -0.313 C  
BRANCH   8   9
HETATM    9  C   UNL     1     -11.043  11.726  67.140  1.00  0.00    -0.350 A  
HETATM   10  C   UNL     1     -10.792  10.432  67.644  1.00  0.00    -0.361 A  
HETATM   11  C   UNL     1     -11.084  10.115  68.991  1.00  0.00    -0.249 A  
HETATM   12  C   UNL     1     -11.591  11.133  69.798  1.00  0.00    -0.334 A  
HETATM   13  C   UNL     1     -11.862  12.419  69.334  1.00  0.00    -0.365 A  
HETATM   14  N   UNL     1     -11.761  10.617  71.054  1.00  0.00    -0.298 NA 
HETATM   15  C   UNL     1     -11.597  12.690  67.991  1.00  0.00    -0.394 A  
HETATM   16  H   UNL     1     -12.122  11.134  71.855  1.00  0.00     0.000 HD 
HETATM   17  C   UNL     1     -11.375   9.309  71.076  1.00  0.00    -0.320 A  
HETATM   18  C   UNL     1     -11.013   8.920  69.796  1.00  0.00    -0.164 A  
BRANCH  18  19
HETATM   19  C   UNL     1     -10.614   7.517  69.358  1.00  0.00    -0.225 C  
HETATM   20  C   UNL     1      -9.089   7.316  69.236  1.00  0.00    -0.138 C  
HETATM   21  C   UNL     1      -8.397   7.253  70.608  1.00  0.00    -0.128 C  
HETATM   22  N   UNL     1      -8.966   6.267  71.532  1.00  0.00    -0.142 NA 
HETATM   23  C   UNL     1     -10.426   6.401  71.634  1.00  0.00    -0.217 C  
HETATM   24  C   UNL     1      -8.545   4.908  71.214  1.00  0.00    -0.123 C  
HETATM   25  C   UNL     1     -11.147   6.409  70.283  1.00  0.00    -0.416 C  
ENDBRANCH  18  19
ENDBRANCH   8   9
ENDBRANCH   7   8
ENDBRANCH   4   7
ENDBRANCH   2   4
TORSDOF 5
ENDMDL
MODEL       34
REMARK 921   NORMALIZED FREE ENERGY PREDICTED BY IDOCK:   -5.94 KCAL/MOL
REMARK 922        TOTAL FREE ENERGY PREDICTED BY IDOCK:   -8.02 KCAL/MOL
REMARK 923 INTER-LIGAND FREE ENERGY PREDICTED BY IDOCK:   -7.67 KCAL/MOL
REMARK 924 INTRA-LIGAND FREE ENERGY PREDICTED BY IDOCK:   -0.34 KCAL/MOL
REMARK 927      BINDING AFFINITY PREDICTED BY RF-SCORE:    0.00 PKD
ROOT
HETATM    1  C   UNL     1     -10.982   6.529  70.414  1.00  0.00    -0.298 C  
HETATM    2  N   UNL     1      -9.902   7.492  70.646  1.00  0.00    -0.179 N  
HETATM    3  H   UNL     1      -9.048   7.222  71.136  1.00  0.00     0.000 HD 
ENDROOT
BRANCH   2   4
HETATM    4  S   UNL     1     -10.124   9.064  70.071  1.00  0.00    -0.208 S  
HETATM    5  O   UNL     1     -10.895   8.971  68.851  1.00  0.00    -0.163 OA 
HETATM    6  O   UNL     1      -8.819   9.682  70.099  1.00  0.00    -0.213 OA 
BRANCH   4   7
HETATM    7  C   UNL     1     -11.130   9.773  71.360  1.00  0.00    -0.247 C  
BRANCH   7   8
HETATM    8  C   UNL     1     -12.397  10.397  70.793  1.00  0.00    -0.463 C  
BRANCH   8   9
HETATM    9  C   UNL     1     -12.259  11.871  70.468  1.00  0.00    -0.426 A  
HETATM   10  C   UNL     1     -11.739  12.252  69.213  1.00  0.00    -0.388 A  
HETATM   11  C   UNL     1     -11.547  13.617  68.897  1.00  0.00    -0.362 A  
HETATM   12  C   UNL     1     -11.923  14.559  69.854  1.00  0.00    -0.328 A  
HETATM   13  C   UNL     1     -12.430  14.222  71.108  1.00  0.00    -0.433 A  
HETATM   14  N   UNL     1     -11.687  15.799  69.326  1.00  0.00    -0.373 NA 
HETATM   15  C   UNL     1     -12.574  12.865  71.403  1.00  0.00    -0.319 A  
HETATM   16  H   UNL     1     -11.865  16.683  69.803  1.00  0.00     0.000 HD 
HETATM   17  C   UNL     1     -11.179  15.679  68.065  1.00  0.00    -0.339 A  
HETATM   18  C   UNL     1     -11.000  14.337  67.773  1.00  0.00    -0.275 A  
BRANCH  18  19
HETATM   19  C   UNL     1     -10.366  13.764  66.512  1.00  0.00    -0.286 C  
HETATM   20  C   UNL     1     -10.894  12.364  66.133  1.00  0.00    -0.308 C  
HETATM   21  C   UNL     1     -12.327  12.411  65.580  1.00  0.00    -0.176 C  
HETATM   22  N   UNL     1     -12.519  13.344  64.464  1.00  0.00    -0.605 NA 
HETATM   23  C   UNL     1     -11.983  14.676  64.775  1.00  0.00    -0.433 C  
HETATM   24  C   UNL     1     -12.008  12.809  63.207  1.00  0.00    -0.443 C  
HETATM   25  C   UNL     1     -10.536  14.664  65.276  1.00  0.00    -0.409 C  
ENDBRANCH  18  19
ENDBRANCH   8   9
ENDBRANCH   7   8
ENDBRANCH   4   7
ENDBRANCH   2   4
TORSDOF 5
ENDMDL
MODEL       35
REMARK 921   NORMALIZED FREE ENERGY PREDICTED BY IDOCK:   -5.91 KCAL/MOL
REMARK 922        TOTAL FREE ENERGY PREDICTED BY IDOCK:   -7.98 KCAL/MOL
REMARK 923 INTER-LIGAND FREE ENERGY PREDICTED BY IDOCK:   -7.78 KCAL/MOL
REMARK 924 INTRA-LIGAND FREE ENERGY PREDICTED BY IDOCK:   -0.21 KCAL/MOL
REMARK 927      BINDING AFFINITY PREDICTED BY RF-SCORE:    0.00 PKD
ROOT
HETATM    1  C   UNL     1      -7.936   6.758  65.651  1.00  0.00    -0.116 C  
HETATM    2  N   UNL     1      -9.095   7.652  65.565  1.00  0.00    -0.387 N  
HETATM    3  H   UNL     1      -9.419   8.012  64.667  1.00  0.00     0.000 HD 
ENDROOT
BRANCH   2   4
HETATM    4  S   UNL     1      -9.871   8.062  67.007  1.00  0.00    -0.253 S  
HETATM    5  O   UNL     1      -8.851   8.193  68.023  1.00  0.00    -0.131 OA 
HETATM    6  O   UNL     1     -10.965   7.129  67.145  1.00  0.00    -0.342 OA 
BRANCH   4   7
HETATM    7  C   UNL     1     -10.528   9.671  66.610  1.00  0.00    -0.163 C  
BRANCH   7   8
HETATM    8  C   UNL     1     -10.001  10.168  65.271  1.00  0.00    -0.381 C  
BRANCH   8   9
HETATM    9  C   UNL     1     -10.586  11.499  64.841  1.00  0.00    -0.360 A  
HETATM   10  C   UNL     1     -10.008  12.691  65.325  1.00  0.00    -0.215 A  
HETATM   11  C   UNL     1     -10.561  13.948  64.987  1.00  0.00    -0.418 A  
HETATM   12  C   UNL     1     -11.666  13.959  64.136  1.00  0.00    -0.340 A  
HETATM   13  C   UNL     1     -12.270  12.803  63.646  1.00  0.00    -0.597 A  
HETATM   14  N   UNL     1     -12.004  15.267  63.917  1.00  0.00    -0.953 NA 
HETATM   15  C   UNL     1     -11.723  11.577  64.027  1.00  0.00    -0.226 A  
HETATM   16  H   UNL     1     -12.779  15.582  63.334  1.00  0.00     0.000 HD 
HETATM   17  C   UNL     1     -11.150  16.088  64.594  1.00  0.00    -0.332 A  
HETATM   18  C   UNL     1     -10.274  15.317  65.341  1.00  0.00    -0.414 A  
BRANCH  18  19
HETATM   19  C   UNL     1      -9.223  15.833  66.316  1.00  0.00    -0.368 C  
HETATM   20  C   UNL     1      -8.840  17.311  66.090  1.00  0.00    -0.195 C  
HETATM   21  C   UNL     1      -9.952  18.276  66.533  1.00  0.00    -0.373 C  
HETATM   22  N   UNL     1     -10.417  18.078  67.910  1.00  0.00    -0.395 NA 
HETATM   23  C   UNL     1     -10.744  16.670  68.172  1.00  0.00    -0.349 C  
HETATM   24  C   UNL     1      -9.490  18.633  68.888  1.00  0.00    -0.260 C  
HETATM   25  C   UNL     1      -9.632  15.689  67.792  1.00  0.00    -0.209 C  
ENDBRANCH  18  19
ENDBRANCH   8   9
ENDBRANCH   7   8
ENDBRANCH   4   7
ENDBRANCH   2   4
TORSDOF 5
ENDMDL
MODEL       36
REMARK 921   NORMALIZED FREE ENERGY PREDICTED BY IDOCK:   -5.89 KCAL/MOL
REMARK 922        TOTAL FREE ENERGY PREDICTED BY IDOCK:   -7.95 KCAL/MOL
REMARK 923 INTER-LIGAND FREE ENERGY PREDICTED BY IDOCK:   -7.62 KCAL/MOL
REMARK 924 INTRA-LIGAND FREE ENERGY PREDICTED BY IDOCK:   -0.33 KCAL/MOL
REMARK 927      BINDING AFFINITY PREDICTED BY RF-SCORE:    0.00 PKD
ROOT
HETATM    1  C   UNL     1     -12.033  12.888  63.882  1.00  0.00    -0.480 C  
HETATM    2  N   UNL     1     -12.474  12.624  65.254  1.00  0.00    -0.482 N  
HETATM    3  H   UNL     1     -13.308  12.068  65.444  1.00  0.00     0.000 HD 
ENDROOT
BRANCH   2   4
HETATM    4  S   UNL     1     -11.549  13.274  66.508  1.00  0.00    -0.369 S  
HETATM    5  O   UNL     1     -12.267  14.418  67.024  1.00  0.00    -0.400 OA 
HETATM    6  O   UNL     1     -10.207  13.391  65.989  1.00  0.00    -0.288 OA 
BRANCH   4   7
HETATM    7  C   UNL     1     -11.595  11.952  67.704  1.00  0.00    -0.312 C  
BRANCH   7   8
HETATM    8  C   UNL     1     -11.673  12.494  69.124  1.00  0.00    -0.375 C  
BRANCH   8   9
HETATM    9  C   UNL     1     -11.918  11.426  70.172  1.00  0.00    -0.460 A  
HETATM   10  C   UNL     1     -11.036  10.328  70.252  1.00  0.00    -0.388 A  
HETATM   11  C   UNL     1     -11.265   9.287  71.182  1.00  0.00    -0.413 A  
HETATM   12  C   UNL     1     -12.366   9.410  72.029  1.00  0.00    -0.345 A  
HETATM   13  C   UNL     1     -13.265  10.473  71.973  1.00  0.00    -0.483 A  
HETATM   14  N   UNL     1     -12.369   8.322  72.860  1.00  0.00    -0.631 NA 
HETATM   15  C   UNL     1     -13.032  11.466  71.020  1.00  0.00    -0.280 A  
HETATM   16  H   UNL     1     -13.063   8.141  73.585  1.00  0.00     0.000 HD 
HETATM   17  C   UNL     1     -11.307   7.515  72.575  1.00  0.00    -0.334 A  
HETATM   18  C   UNL     1     -10.624   8.030  71.485  1.00  0.00    -0.273 A  
BRANCH  18  19
HETATM   19  C   UNL     1      -9.436   7.390  70.779  1.00  0.00    -0.167 C  
HETATM   20  C   UNL     1      -9.074   5.991  71.320  1.00  0.00    -0.149 C  
HETATM   21  C   UNL     1     -10.098   4.922  70.904  1.00  0.00    -0.222 C  
HETATM   22  N   UNL     1     -10.357   4.856  69.461  1.00  0.00    -0.180 NA 
HETATM   23  C   UNL     1     -10.658   6.182  68.906  1.00  0.00    -0.276 C  
HETATM   24  C   UNL     1      -9.290   4.171  68.742  1.00  0.00    -0.159 C  
HETATM   25  C   UNL     1      -9.625   7.255  69.258  1.00  0.00    -0.156 C  
ENDBRANCH  18  19
ENDBRANCH   8   9
ENDBRANCH   7   8
ENDBRANCH   4   7
ENDBRANCH   2   4
TORSDOF 5
ENDMDL
MODEL       37
REMARK 921   NORMALIZED FREE ENERGY PREDICTED BY IDOCK:   -5.88 KCAL/MOL
REMARK 922        TOTAL FREE ENERGY PREDICTED BY IDOCK:   -7.94 KCAL/MOL
REMARK 923 INTER-LIGAND FREE ENERGY PREDICTED BY IDOCK:   -7.66 KCAL/MOL
REMARK 924 INTRA-LIGAND FREE ENERGY PREDICTED BY IDOCK:   -0.27 KCAL/MOL
REMARK 927      BINDING AFFINITY PREDICTED BY RF-SCORE:    0.00 PKD
ROOT
HETATM    1  C   UNL     1     -12.182  12.107  63.886  1.00  0.00    -0.489 C  
HETATM    2  N   UNL     1     -12.604  12.903  65.042  1.00  0.00    -0.604 N  
HETATM    3  H   UNL     1     -13.584  13.148  65.186  1.00  0.00     0.000 HD 
ENDROOT
BRANCH   2   4
HETATM    4  S   UNL     1     -11.407  13.398  66.125  1.00  0.00    -0.311 S  
HETATM    5  O   UNL     1     -11.815  14.678  66.661  1.00  0.00    -0.375 OA 
HETATM    6  O   UNL     1     -10.152  13.231  65.430  1.00  0.00    -0.295 OA 
BRANCH   4   7
HETATM    7  C   UNL     1     -11.540  12.151  67.392  1.00  0.00    -0.340 C  
BRANCH   7   8
HETATM    8  C   UNL     1     -11.328  12.746  68.777  1.00  0.00    -0.332 C  
BRANCH   8   9
HETATM    9  C   UNL     1     -11.883  11.892  69.900  1.00  0.00    -0.418 A  
HETATM   10  C   UNL     1     -11.588  10.512  69.922  1.00  0.00    -0.384 A  
HETATM   11  C   UNL     1     -12.133   9.676  70.925  1.00  0.00    -0.383 A  
HETATM   12  C   UNL     1     -12.934  10.273  71.898  1.00  0.00    -0.449 A  
HETATM   13  C   UNL     1     -13.256  11.629  71.902  1.00  0.00    -0.475 A  
HETATM   14  N   UNL     1     -13.314   9.294  72.776  1.00  0.00    -0.664 NA 
HETATM   15  C   UNL     1     -12.732  12.421  70.880  1.00  0.00    -0.273 A  
HETATM   16  H   UNL     1     -13.910   9.438  73.591  1.00  0.00     0.000 HD 
HETATM   17  C   UNL     1     -12.779   8.097  72.398  1.00  0.00    -0.196 A  
HETATM   18  C   UNL     1     -12.093   8.261  71.206  1.00  0.00    -0.307 A  
BRANCH  18  19
HETATM   19  C   UNL     1     -11.430   7.161  70.388  1.00  0.00    -0.317 C  
HETATM   20  C   UNL     1     -10.080   7.578  69.766  1.00  0.00    -0.194 C  
HETATM   21  C   UNL     1      -8.963   7.686  70.817  1.00  0.00    -0.149 C  
HETATM   22  N   UNL     1      -8.790   6.489  71.647  1.00  0.00    -0.135 NA 
HETATM   23  C   UNL     1     -10.067   6.038  72.215  1.00  0.00    -0.180 C  
HETATM   24  C   UNL     1      -8.079   5.429  70.941  1.00  0.00    -0.112 C  
HETATM   25  C   UNL     1     -11.184   5.867  71.183  1.00  0.00    -0.281 C  
ENDBRANCH  18  19
ENDBRANCH   8   9
ENDBRANCH   7   8
ENDBRANCH   4   7
ENDBRANCH   2   4
TORSDOF 5
ENDMDL
MODEL       38
REMARK 921   NORMALIZED FREE ENERGY PREDICTED BY IDOCK:   -5.87 KCAL/MOL
REMARK 922        TOTAL FREE ENERGY PREDICTED BY IDOCK:   -7.92 KCAL/MOL
REMARK 923 INTER-LIGAND FREE ENERGY PREDICTED BY IDOCK:   -7.35 KCAL/MOL
REMARK 924 INTRA-LIGAND FREE ENERGY PREDICTED BY IDOCK:   -0.58 KCAL/MOL
REMARK 927      BINDING AFFINITY PREDICTED BY RF-SCORE:    0.00 PKD
ROOT
HETATM    1  C   UNL     1     -11.428  12.331  63.479  1.00  0.00    -0.476 C  
HETATM    2  N   UNL     1     -11.005  10.969  63.140  1.00  0.00    -0.765 N  
HETATM    3  H   UNL     1     -11.687  10.239  62.936  1.00  0.00     0.000 HD 
ENDROOT
BRANCH   2   4
HETATM    4  S   UNL     1      -9.347  10.656  63.101  1.00  0.00    -0.347 S  
HETATM    5  O   UNL     1      -8.708  11.796  62.482  1.00  0.00    -0.163 OA 
HETATM    6  O   UNL     1      -9.210   9.323  62.562  1.00  0.00    -0.195 OA 
BRANCH   4   7
HETATM    7  C   UNL     1      -8.952  10.622  64.839  1.00  0.00    -0.199 C  
BRANCH   7   8
HETATM    8  C   UNL     1      -9.762   9.561  65.570  1.00  0.00    -0.344 C  
BRANCH   8   9
HETATM    9  C   UNL     1     -10.311  10.023  66.905  1.00  0.00    -0.297 A  
HETATM   10  C   UNL     1     -10.745  11.358  67.043  1.00  0.00    -0.304 A  
HETATM   11  C   UNL     1     -11.213  11.838  68.289  1.00  0.00    -0.313 A  
HETATM   12  C   UNL     1     -11.259  10.936  69.351  1.00  0.00    -0.272 A  
HETATM   13  C   UNL     1     -10.829   9.614  69.257  1.00  0.00    -0.227 A  
HETATM   14  N   UNL     1     -11.774  11.599  70.432  1.00  0.00    -0.507 NA 
HETATM   15  C   UNL     1     -10.339   9.181  68.024  1.00  0.00    -0.272 A  
HETATM   16  H   UNL     1     -11.921  11.190  71.355  1.00  0.00     0.000 HD 
HETATM   17  C   UNL     1     -12.062  12.889  70.094  1.00  0.00    -0.302 A  
HETATM   18  C   UNL     1     -11.662  13.116  68.786  1.00  0.00    -0.363 A  
BRANCH  18  19
HETATM   19  C   UNL     1     -11.710  14.446  68.046  1.00  0.00    -0.374 C  
HETATM   20  C   UNL     1     -11.820  15.671  68.978  1.00  0.00    -0.379 C  
HETATM   21  C   UNL     1     -10.507  15.956  69.725  1.00  0.00    -0.311 C  
HETATM   22  N   UNL     1      -9.329  16.082  68.860  1.00  0.00    -0.218 NA 
HETATM   23  C   UNL     1      -9.222  14.953  67.926  1.00  0.00    -0.183 C  
HETATM   24  C   UNL     1      -9.275  17.376  68.191  1.00  0.00    -0.270 C  
HETATM   25  C   UNL     1     -10.499  14.681  67.126  1.00  0.00    -0.268 C  
ENDBRANCH  18  19
ENDBRANCH   8   9
ENDBRANCH   7   8
ENDBRANCH   4   7
ENDBRANCH   2   4
TORSDOF 5
ENDMDL
MODEL       39
REMARK 921   NORMALIZED FREE ENERGY PREDICTED BY IDOCK:   -5.87 KCAL/MOL
REMARK 922        TOTAL FREE ENERGY PREDICTED BY IDOCK:   -7.92 KCAL/MOL
REMARK 923 INTER-LIGAND FREE ENERGY PREDICTED BY IDOCK:   -7.53 KCAL/MOL
REMARK 924 INTRA-LIGAND FREE ENERGY PREDICTED BY IDOCK:   -0.39 KCAL/MOL
REMARK 927      BINDING AFFINITY PREDICTED BY RF-SCORE:    0.00 PKD
ROOT
HETATM    1  C   UNL     1     -10.667  11.597  63.504  1.00  0.00    -0.428 C  
HETATM    2  N   UNL     1     -10.822  13.017  63.829  1.00  0.00    -0.533 N  
HETATM    3  H   UNL     1     -10.090  13.693  63.607  1.00  0.00     0.000 HD 
ENDROOT
BRANCH   2   4
HETATM    4  S   UNL     1     -12.254  13.492  64.586  1.00  0.00    -0.399 S  
HETATM    5  O   UNL     1     -13.170  12.376  64.511  1.00  0.00    -0.834 OA 
HETATM    6  O   UNL     1     -12.585  14.783  64.029  1.00  0.00    -0.822 OA 
BRANCH   4   7
HETATM    7  C   UNL     1     -11.711  13.707  66.269  1.00  0.00    -0.367 C  
BRANCH   7   8
HETATM    8  C   UNL     1     -12.026  12.480  67.113  1.00  0.00    -0.285 C  
BRANCH   8   9
HETATM    9  C   UNL     1     -10.797  11.804  67.689  1.00  0.00    -0.263 A  
HETATM   10  C   UNL     1     -10.941  10.960  68.810  1.00  0.00    -0.285 A  
HETATM   11  C   UNL     1      -9.809  10.355  69.406  1.00  0.00    -0.235 A  
HETATM   12  C   UNL     1      -8.566  10.597  68.822  1.00  0.00    -0.150 A  
HETATM   13  C   UNL     1      -8.383  11.433  67.721  1.00  0.00    -0.127 A  
HETATM   14  N   UNL     1      -7.634   9.889  69.530  1.00  0.00    -0.109 NA 
HETATM   15  C   UNL     1      -9.515  12.043  67.179  1.00  0.00    -0.187 A  
HETATM   16  H   UNL     1      -6.633   9.877  69.333  1.00  0.00     0.000 HD 
HETATM   17  C   UNL     1      -8.240   9.201  70.541  1.00  0.00    -0.180 A  
HETATM   18  C   UNL     1      -9.590   9.513  70.557  1.00  0.00    -0.312 A  
BRANCH  18  19
HETATM   19  C   UNL     1     -10.613   9.042  71.582  1.00  0.00    -0.434 C  
HETATM   20  C   UNL     1     -11.737   8.172  70.982  1.00  0.00    -0.295 C  
HETATM   21  C   UNL     1     -11.246   6.768  70.595  1.00  0.00    -0.312 C  
HETATM   22  N   UNL     1     -10.565   6.043  71.674  1.00  0.00    -0.228 NA 
HETATM   23  C   UNL     1      -9.519   6.863  72.300  1.00  0.00    -0.140 C  
HETATM   24  C   UNL     1     -11.505   5.491  72.642  1.00  0.00    -0.272 C  
HETATM   25  C   UNL     1      -9.995   8.248  72.746  1.00  0.00    -0.333 C  
ENDBRANCH  18  19
ENDBRANCH   8   9
ENDBRANCH   7   8
ENDBRANCH   4   7
ENDBRANCH   2   4
TORSDOF 5
ENDMDL
MODEL       40
REMARK 921   NORMALIZED FREE ENERGY PREDICTED BY IDOCK:   -5.86 KCAL/MOL
REMARK 922        TOTAL FREE ENERGY PREDICTED BY IDOCK:   -7.92 KCAL/MOL
REMARK 923 INTER-LIGAND FREE ENERGY PREDICTED BY IDOCK:   -7.65 KCAL/MOL
REMARK 924 INTRA-LIGAND FREE ENERGY PREDICTED BY IDOCK:   -0.27 KCAL/MOL
REMARK 927      BINDING AFFINITY PREDICTED BY RF-SCORE:    0.00 PKD
ROOT
HETATM    1  C   UNL     1     -10.195   8.114  67.190  1.00  0.00    -0.296 C  
HETATM    2  N   UNL     1     -11.030   8.496  68.332  1.00  0.00    -0.439 N  
HETATM    3  H   UNL     1     -11.840   9.105  68.214  1.00  0.00     0.000 HD 
ENDROOT
BRANCH   2   4
HETATM    4  S   UNL     1     -10.600   7.892  69.848  1.00  0.00    -0.240 S  
HETATM    5  O   UNL     1      -9.232   7.433  69.757  1.00  0.00    -0.142 OA 
HETATM    6  O   UNL     1     -11.673   7.007  70.238  1.00  0.00    -0.295 OA 
BRANCH   4   7
HETATM    7  C   UNL     1     -10.670   9.365  70.849  1.00  0.00    -0.323 C  
BRANCH   7   8
HETATM    8  C   UNL     1     -12.104   9.717  71.216  1.00  0.00    -0.457 C  
BRANCH   8   9
HETATM    9  C   UNL     1     -12.409  11.200  71.134  1.00  0.00    -0.451 A  
HETATM   10  C   UNL     1     -11.799  11.971  70.123  1.00  0.00    -0.383 A  
HETATM   11  C   UNL     1     -12.018  13.366  70.049  1.00  0.00    -0.407 A  
HETATM   12  C   UNL     1     -12.883  13.933  70.985  1.00  0.00    -0.324 A  
HETATM   13  C   UNL     1     -13.496  13.206  72.005  1.00  0.00    -0.598 A  
HETATM   14  N   UNL     1     -12.976  15.269  70.704  1.00  0.00    -0.589 NA 
HETATM   15  C   UNL     1     -13.230  11.838  72.072  1.00  0.00    -0.460 A  
HETATM   16  H   UNL     1     -13.538  15.940  71.228  1.00  0.00     0.000 HD 
HETATM   17  C   UNL     1     -12.206  15.571  69.619  1.00  0.00    -0.270 A  
HETATM   18  C   UNL     1     -11.525  14.434  69.213  1.00  0.00    -0.323 A  
BRANCH  18  19
HETATM   19  C   UNL     1     -10.486  14.352  68.103  1.00  0.00    -0.237 C  
HETATM   20  C   UNL     1     -10.623  15.464  67.042  1.00  0.00    -0.309 C  
HETATM   21  C   UNL     1     -10.175  16.835  67.573  1.00  0.00    -0.289 C  
HETATM   22  N   UNL     1      -8.829  16.853  68.155  1.00  0.00    -0.217 NA 
HETATM   23  C   UNL     1      -8.650  15.774  69.136  1.00  0.00    -0.256 C  
HETATM   24  C   UNL     1      -7.789  16.865  67.133  1.00  0.00    -0.177 C  
HETATM   25  C   UNL     1      -9.036  14.387  68.615  1.00  0.00    -0.172 C  
ENDBRANCH  18  19
ENDBRANCH   8   9
ENDBRANCH   7   8
ENDBRANCH   4   7
ENDBRANCH   2   4
TORSDOF 5
ENDMDL
MODEL       41
REMARK 921   NORMALIZED FREE ENERGY PREDICTED BY IDOCK:   -5.84 KCAL/MOL
REMARK 922        TOTAL FREE ENERGY PREDICTED BY IDOCK:   -7.89 KCAL/MOL
REMARK 923 INTER-LIGAND FREE ENERGY PREDICTED BY IDOCK:   -7.52 KCAL/MOL
REMARK 924 INTRA-LIGAND FREE ENERGY PREDICTED BY IDOCK:   -0.37 KCAL/MOL
REMARK 927      BINDING AFFINITY PREDICTED BY RF-SCORE:    0.00 PKD
ROOT
HETATM    1  C   UNL     1     -11.725  15.510  64.205  1.00  0.00    -0.190 C  
HETATM    2  N   UNL     1     -12.163  14.255  63.589  1.00  0.00    -1.064 N  
HETATM    3  H   UNL     1     -12.176  14.139  62.575  1.00  0.00     0.000 HD 
ENDROOT
BRANCH   2   4
HETATM    4  S   UNL     1     -12.644  13.007  64.620  1.00  0.00    -0.314 S  
HETATM    5  O   UNL     1     -13.230  11.972  63.797  1.00  0.00    -0.723 OA 
HETATM    6  O   UNL     1     -13.385  13.639  65.686  1.00  0.00    -0.480 OA 
BRANCH   4   7
HETATM    7  C   UNL     1     -11.075  12.448  65.255  1.00  0.00    -0.303 C  
BRANCH   7   8
HETATM    8  C   UNL     1     -11.066  12.441  66.777  1.00  0.00    -0.333 C  
BRANCH   8   9
HETATM    9  C   UNL     1      -9.862  13.134  67.384  1.00  0.00    -0.226 A  
HETATM   10  C   UNL     1      -9.974  14.483  67.780  1.00  0.00    -0.225 A  
HETATM   11  C   UNL     1      -8.857  15.177  68.300  1.00  0.00    -0.173 A  
HETATM   12  C   UNL     1      -7.664  14.467  68.437  1.00  0.00    -0.128 A  
HETATM   13  C   UNL     1      -7.511  13.138  68.047  1.00  0.00    -0.132 A  
HETATM   14  N   UNL     1      -6.742  15.314  68.988  1.00  0.00    -0.114 NA 
HETATM   15  C   UNL     1      -8.623  12.492  67.504  1.00  0.00    -0.183 A  
HETATM   16  H   UNL     1      -5.774  15.069  69.200  1.00  0.00     0.000 HD 
HETATM   17  C   UNL     1      -7.307  16.536  69.212  1.00  0.00    -0.201 A  
HETATM   18  C   UNL     1      -8.607  16.531  68.732  1.00  0.00    -0.262 A  
BRANCH  18  19
HETATM   19  C   UNL     1      -9.559  17.718  68.693  1.00  0.00    -0.322 C  
HETATM   20  C   UNL     1      -8.850  19.075  68.500  1.00  0.00    -0.398 C  
HETATM   21  C   UNL     1      -8.317  19.256  67.069  1.00  0.00    -0.278 C  
HETATM   22  N   UNL     1      -9.317  19.052  66.016  1.00  0.00    -0.458 NA 
HETATM   23  C   UNL     1     -10.044  17.789  66.199  1.00  0.00    -0.304 C  
HETATM   24  C   UNL     1     -10.205  20.200  65.873  1.00  0.00    -0.343 C  
HETATM   25  C   UNL     1     -10.635  17.607  67.600  1.00  0.00    -0.364 C  
ENDBRANCH  18  19
ENDBRANCH   8   9
ENDBRANCH   7   8
ENDBRANCH   4   7
ENDBRANCH   2   4
TORSDOF 5
ENDMDL
MODEL       42
REMARK 921   NORMALIZED FREE ENERGY PREDICTED BY IDOCK:   -5.81 KCAL/MOL
REMARK 922        TOTAL FREE ENERGY PREDICTED BY IDOCK:   -7.86 KCAL/MOL
REMARK 923 INTER-LIGAND FREE ENERGY PREDICTED BY IDOCK:   -7.63 KCAL/MOL
REMARK 924 INTRA-LIGAND FREE ENERGY PREDICTED BY IDOCK:   -0.23 KCAL/MOL
REMARK 927      BINDING AFFINITY PREDICTED BY RF-SCORE:    0.00 PKD
ROOT
HETATM    1  C   UNL     1     -12.930  12.232  71.853  1.00  0.00    -0.305 C  
HETATM    2  N   UNL     1     -13.859  13.273  72.303  1.00  0.00    -0.566 N  
HETATM    3  H   UNL     1     -14.867  13.118  72.302  1.00  0.00     0.000 HD 
ENDROOT
BRANCH   2   4
HETATM    4  S   UNL     1     -13.196  14.735  72.824  1.00  0.00    -0.507 S  
HETATM    5  O   UNL     1     -12.501  14.475  74.066  1.00  0.00    -0.403 OA 
HETATM    6  O   UNL     1     -14.264  15.704  72.741  1.00  0.00    -0.506 OA 
BRANCH   4   7
HETATM    7  C   UNL     1     -12.011  15.066  71.535  1.00  0.00    -0.357 C  
BRANCH   7   8
HETATM    8  C   UNL     1     -12.702  15.369  70.213  1.00  0.00    -0.338 C  
BRANCH   8   9
HETATM    9  C   UNL     1     -11.783  15.281  69.010  1.00  0.00    -0.368 A  
HETATM   10  C   UNL     1     -11.059  16.425  68.615  1.00  0.00    -0.352 A  
HETATM   11  C   UNL     1     -10.234  16.394  67.466  1.00  0.00    -0.273 A  
HETATM   12  C   UNL     1     -10.142  15.188  66.771  1.00  0.00    -0.258 A  
HETATM   13  C   UNL     1     -10.850  14.041  67.124  1.00  0.00    -0.288 A  
HETATM   14  N   UNL     1      -9.271  15.377  65.733  1.00  0.00    -0.404 NA 
HETATM   15  C   UNL     1     -11.683  14.115  68.241  1.00  0.00    -0.383 A  
HETATM   16  H   UNL     1      -9.011  14.666  65.050  1.00  0.00     0.000 HD 
HETATM   17  C   UNL     1      -8.802  16.658  65.745  1.00  0.00     0.097 A  
HETATM   18  C   UNL     1      -9.427  17.361  66.763  1.00  0.00    -0.282 A  
BRANCH  18  19
HETATM   19  C   UNL     1      -9.268  18.846  67.064  1.00  0.00    -0.325 C  
HETATM   20  C   UNL     1      -8.870  19.143  68.525  1.00  0.00    -0.406 C  
HETATM   21  C   UNL     1      -7.408  18.766  68.820  1.00  0.00    -0.312 C  
HETATM   22  N   UNL     1      -6.430  19.355  67.898  1.00  0.00    -0.224 NA 
HETATM   23  C   UNL     1      -6.807  19.131  66.496  1.00  0.00    -0.200 C  
HETATM   24  C   UNL     1      -6.171  20.759  68.196  1.00  0.00    -0.328 C  
HETATM   25  C   UNL     1      -8.241  19.549  66.160  1.00  0.00    -0.336 C  
ENDBRANCH  18  19
ENDBRANCH   8   9
ENDBRANCH   7   8
ENDBRANCH   4   7
ENDBRANCH   2   4
TORSDOF 5
ENDMDL
MODEL       43
REMARK 921   NORMALIZED FREE ENERGY PREDICTED BY IDOCK:   -5.81 KCAL/MOL
REMARK 922        TOTAL FREE ENERGY PREDICTED BY IDOCK:   -7.86 KCAL/MOL
REMARK 923 INTER-LIGAND FREE ENERGY PREDICTED BY IDOCK:   -7.42 KCAL/MOL
REMARK 924 INTRA-LIGAND FREE ENERGY PREDICTED BY IDOCK:   -0.44 KCAL/MOL
REMARK 927      BINDING AFFINITY PREDICTED BY RF-SCORE:    0.00 PKD
ROOT
HETATM    1  C   UNL     1     -13.815  15.132  71.594  1.00  0.00    -0.503 C  
HETATM    2  N   UNL     1     -13.250  15.197  70.243  1.00  0.00    -0.660 N  
HETATM    3  H   UNL     1     -13.825  15.020  69.420  1.00  0.00     0.000 HD 
ENDROOT
BRANCH   2   4
HETATM    4  S   UNL     1     -11.611  15.576  70.103  1.00  0.00    -0.371 S  
HETATM    5  O   UNL     1     -11.102  15.788  71.440  1.00  0.00    -0.315 OA 
HETATM    6  O   UNL     1     -11.528  16.600  69.088  1.00  0.00    -0.165 OA 
BRANCH   4   7
HETATM    7  C   UNL     1     -10.951  14.055  69.448  1.00  0.00    -0.155 C  
BRANCH   7   8
HETATM    8  C   UNL     1     -12.033  13.232  68.764  1.00  0.00    -0.335 C  
BRANCH   8   9
HETATM    9  C   UNL     1     -11.846  13.103  67.265  1.00  0.00    -0.420 A  
HETATM   10  C   UNL     1     -11.203  11.957  66.750  1.00  0.00    -0.384 A  
HETATM   11  C   UNL     1     -10.964  11.828  65.362  1.00  0.00    -0.352 A  
HETATM   12  C   UNL     1     -11.419  12.852  64.532  1.00  0.00    -0.344 A  
HETATM   13  C   UNL     1     -12.048  14.003  65.004  1.00  0.00    -0.427 A  
HETATM   14  N   UNL     1     -11.117  12.502  63.244  1.00  0.00    -0.701 NA 
HETATM   15  C   UNL     1     -12.236  14.117  66.382  1.00  0.00    -0.473 A  
HETATM   16  H   UNL     1     -11.329  13.065  62.419  1.00  0.00     0.000 HD 
HETATM   17  C   UNL     1     -10.492  11.290  63.225  1.00  0.00    -0.305 A  
HETATM   18  C   UNL     1     -10.302  10.855  64.527  1.00  0.00    -0.417 A  
BRANCH  18  19
HETATM   19  C   UNL     1      -9.557   9.600  64.960  1.00  0.00    -0.284 C  
HETATM   20  C   UNL     1      -8.533   9.098  63.921  1.00  0.00    -0.189 C  
HETATM   21  C   UNL     1      -7.289   9.998  63.846  1.00  0.00    -0.131 C  
HETATM   22  N   UNL     1      -6.630  10.235  65.135  1.00  0.00    -0.128 NA 
HETATM   23  C   UNL     1      -7.589  10.669  66.160  1.00  0.00    -0.138 C  
HETATM   24  C   UNL     1      -5.827   9.094  65.559  1.00  0.00    -0.054 C  
HETATM   25  C   UNL     1      -8.811   9.758  66.296  1.00  0.00    -0.165 C  
ENDBRANCH  18  19
ENDBRANCH   8   9
ENDBRANCH   7   8
ENDBRANCH   4   7
ENDBRANCH   2   4
TORSDOF 5
ENDMDL
MODEL       44
REMARK 921   NORMALIZED FREE ENERGY PREDICTED BY IDOCK:   -5.79 KCAL/MOL
REMARK 922        TOTAL FREE ENERGY PREDICTED BY IDOCK:   -7.83 KCAL/MOL
REMARK 923 INTER-LIGAND FREE ENERGY PREDICTED BY IDOCK:   -7.50 KCAL/MOL
REMARK 924 INTRA-LIGAND FREE ENERGY PREDICTED BY IDOCK:   -0.32 KCAL/MOL
REMARK 927      BINDING AFFINITY PREDICTED BY RF-SCORE:    0.00 PKD
ROOT
HETATM    1  C   UNL     1     -11.923   8.928  71.775  1.00  0.00    -0.359 C  
HETATM    2  N   UNL     1     -11.248  10.013  71.059  1.00  0.00    -0.346 N  
HETATM    3  H   UNL     1     -11.279  10.974  71.404  1.00  0.00     0.000 HD 
ENDROOT
BRANCH   2   4
HETATM    4  S   UNL     1     -10.417   9.615  69.645  1.00  0.00    -0.245 S  
HETATM    5  O   UNL     1     -10.665   8.215  69.380  1.00  0.00    -0.224 OA 
HETATM    6  O   UNL     1      -9.078  10.130  69.816  1.00  0.00    -0.203 OA 
BRANCH   4   7
HETATM    7  C   UNL     1     -11.272  10.612  68.440  1.00  0.00    -0.288 C  
BRANCH   7   8
HETATM    8  C   UNL     1     -10.436  10.798  67.182  1.00  0.00    -0.285 C  
BRANCH   8   9
HETATM    9  C   UNL     1     -10.886  11.957  66.315  1.00  0.00    -0.323 A  
HETATM   10  C   UNL     1     -10.227  13.198  66.432  1.00  0.00    -0.286 A  
HETATM   11  C   UNL     1     -10.655  14.315  65.677  1.00  0.00    -0.328 A  
HETATM   12  C   UNL     1     -11.721  14.128  64.797  1.00  0.00    -0.410 A  
HETATM   13  C   UNL     1     -12.404  12.921  64.662  1.00  0.00    -0.501 A  
HETATM   14  N   UNL     1     -11.936  15.316  64.153  1.00  0.00    -0.864 NA 
HETATM   15  C   UNL     1     -11.980  11.848  65.447  1.00  0.00    -0.054 A  
HETATM   16  H   UNL     1     -12.658  15.480  63.452  1.00  0.00     0.000 HD 
HETATM   17  C   UNL     1     -11.042  16.251  64.588  1.00  0.00    -0.246 A  
HETATM   18  C   UNL     1     -10.264  15.702  65.595  1.00  0.00    -0.402 A  
BRANCH  18  19
HETATM   19  C   UNL     1      -9.212  16.429  66.421  1.00  0.00    -0.335 C  
HETATM   20  C   UNL     1      -9.167  17.951  66.166  1.00  0.00    -0.135 C  
HETATM   21  C   UNL     1     -10.375  18.680  66.776  1.00  0.00    -0.407 C  
HETATM   22  N   UNL     1     -10.593  18.411  68.201  1.00  0.00    -0.324 NA 
HETATM   23  C   UNL     1     -10.593  16.970  68.485  1.00  0.00    -0.370 C  
HETATM   24  C   UNL     1      -9.667  19.153  69.048  1.00  0.00    -0.361 C  
HETATM   25  C   UNL     1      -9.372  16.226  67.937  1.00  0.00    -0.209 C  
ENDBRANCH  18  19
ENDBRANCH   8   9
ENDBRANCH   7   8
ENDBRANCH   4   7
ENDBRANCH   2   4
TORSDOF 5
ENDMDL
MODEL       45
REMARK 921   NORMALIZED FREE ENERGY PREDICTED BY IDOCK:   -5.78 KCAL/MOL
REMARK 922        TOTAL FREE ENERGY PREDICTED BY IDOCK:   -7.81 KCAL/MOL
REMARK 923 INTER-LIGAND FREE ENERGY PREDICTED BY IDOCK:   -7.34 KCAL/MOL
REMARK 924 INTRA-LIGAND FREE ENERGY PREDICTED BY IDOCK:   -0.48 KCAL/MOL
REMARK 927      BINDING AFFINITY PREDICTED BY RF-SCORE:    0.00 PKD
ROOT
HETATM    1  C   UNL     1      -6.750  20.344  65.182  1.00  0.00    -0.278 C  
HETATM    2  N   UNL     1      -7.809  20.245  66.191  1.00  0.00    -0.509 N  
HETATM    3  H   UNL     1      -8.058  21.042  66.776  1.00  0.00     0.000 HD 
ENDROOT
BRANCH   2   4
HETATM    4  S   UNL     1      -8.600  18.762  66.347  1.00  0.00    -0.249 S  
HETATM    5  O   UNL     1      -7.797  17.772  65.664  1.00  0.00    -0.538 OA 
HETATM    6  O   UNL     1      -9.975  19.007  65.981  1.00  0.00    -0.433 OA 
BRANCH   4   7
HETATM    7  C   UNL     1      -8.506  18.495  68.107  1.00  0.00    -0.296 C  
BRANCH   7   8
HETATM    8  C   UNL     1      -9.893  18.408  68.728  1.00  0.00    -0.388 C  
BRANCH   8   9
HETATM    9  C   UNL     1     -10.318  16.996  69.079  1.00  0.00    -0.330 A  
HETATM   10  C   UNL     1     -10.119  15.965  68.136  1.00  0.00    -0.229 A  
HETATM   11  C   UNL     1     -10.552  14.646  68.408  1.00  0.00    -0.241 A  
HETATM   12  C   UNL     1     -11.143  14.405  69.648  1.00  0.00    -0.202 A  
HETATM   13  C   UNL     1     -11.366  15.398  70.600  1.00  0.00    -0.360 A  
HETATM   14  N   UNL     1     -11.444  13.071  69.709  1.00  0.00    -0.496 NA 
HETATM   15  C   UNL     1     -10.960  16.696  70.287  1.00  0.00    -0.066 A  
HETATM   16  H   UNL     1     -11.889  12.606  70.500  1.00  0.00     0.000 HD 
HETATM   17  C   UNL     1     -11.060  12.455  68.553  1.00  0.00    -0.258 A  
HETATM   18  C   UNL     1     -10.564  13.404  67.674  1.00  0.00    -0.249 A  
BRANCH  18  19
HETATM   19  C   UNL     1     -10.118  13.160  66.238  1.00  0.00    -0.285 C  
HETATM   20  C   UNL     1     -10.650  11.840  65.641  1.00  0.00    -0.314 C  
HETATM   21  C   UNL     1     -12.154  11.905  65.328  1.00  0.00     0.098 C  
HETATM   22  N   UNL     1     -12.552  13.039  64.487  1.00  0.00    -0.659 NA 
HETATM   23  C   UNL     1     -12.020  14.307  65.004  1.00  0.00    -0.410 C  
HETATM   24  C   UNL     1     -12.229  12.821  63.082  1.00  0.00    -0.237 C  
HETATM   25  C   UNL     1     -10.513  14.289  65.272  1.00  0.00    -0.408 C  
ENDBRANCH  18  19
ENDBRANCH   8   9
ENDBRANCH   7   8
ENDBRANCH   4   7
ENDBRANCH   2   4
TORSDOF 5
ENDMDL
MODEL       46
REMARK 921   NORMALIZED FREE ENERGY PREDICTED BY IDOCK:   -5.77 KCAL/MOL
REMARK 922        TOTAL FREE ENERGY PREDICTED BY IDOCK:   -7.80 KCAL/MOL
REMARK 923 INTER-LIGAND FREE ENERGY PREDICTED BY IDOCK:   -7.54 KCAL/MOL
REMARK 924 INTRA-LIGAND FREE ENERGY PREDICTED BY IDOCK:   -0.27 KCAL/MOL
REMARK 927      BINDING AFFINITY PREDICTED BY RF-SCORE:    0.00 PKD
ROOT
HETATM    1  C   UNL     1     -11.515  15.799  68.359  1.00  0.00    -0.365 C  
HETATM    2  N   UNL     1     -12.313  14.636  67.963  1.00  0.00    -0.589 N  
HETATM    3  H   UNL     1     -13.232  14.462  68.371  1.00  0.00     0.000 HD 
ENDROOT
BRANCH   2   4
HETATM    4  S   UNL     1     -11.655  13.594  66.809  1.00  0.00    -0.386 S  
HETATM    5  O   UNL     1     -10.297  14.027  66.564  1.00  0.00    -0.276 OA 
HETATM    6  O   UNL     1     -12.630  13.516  65.747  1.00  0.00    -0.464 OA 
BRANCH   4   7
HETATM    7  C   UNL     1     -11.638  12.049  67.696  1.00  0.00    -0.321 C  
BRANCH   7   8
HETATM    8  C   UNL     1     -11.217  12.247  69.145  1.00  0.00    -0.300 C  
BRANCH   8   9
HETATM    9  C   UNL     1     -11.712  11.160  70.079  1.00  0.00    -0.438 A  
HETATM   10  C   UNL     1     -11.261   9.837  69.891  1.00  0.00    -0.271 A  
HETATM   11  C   UNL     1     -11.742   8.788  70.709  1.00  0.00    -0.253 A  
HETATM   12  C   UNL     1     -12.643   9.122  71.720  1.00  0.00    -0.370 A  
HETATM   13  C   UNL     1     -13.120  10.414  71.930  1.00  0.00    -0.563 A  
HETATM   14  N   UNL     1     -12.940   7.973  72.402  1.00  0.00    -0.548 NA 
HETATM   15  C   UNL     1     -12.653  11.420  71.082  1.00  0.00    -0.490 A  
HETATM   16  H   UNL     1     -13.579   7.911  73.195  1.00  0.00     0.000 HD 
HETATM   17  C   UNL     1     -12.256   6.922  71.864  1.00  0.00    -0.332 A  
HETATM   18  C   UNL     1     -11.549   7.359  70.756  1.00  0.00    -0.317 A  
BRANCH  18  19
HETATM   19  C   UNL     1     -10.732   6.492  69.806  1.00  0.00    -0.322 C  
HETATM   20  C   UNL     1      -9.440   7.170  69.304  1.00  0.00    -0.152 C  
HETATM   21  C   UNL     1      -8.364   7.259  70.398  1.00  0.00    -0.130 C  
HETATM   22  N   UNL     1      -8.047   5.982  71.045  1.00  0.00    -0.119 NA 
HETATM   23  C   UNL     1      -9.262   5.288  71.493  1.00  0.00    -0.146 C  
HETATM   24  C   UNL     1      -7.190   5.143  70.215  1.00  0.00    -0.058 C  
HETATM   25  C   UNL     1     -10.330   5.134  70.407  1.00  0.00    -0.326 C  
ENDBRANCH  18  19
ENDBRANCH   8   9
ENDBRANCH   7   8
ENDBRANCH   4   7
ENDBRANCH   2   4
TORSDOF 5
ENDMDL
MODEL       47
REMARK 921   NORMALIZED FREE ENERGY PREDICTED BY IDOCK:   -5.77 KCAL/MOL
REMARK 922        TOTAL FREE ENERGY PREDICTED BY IDOCK:   -7.80 KCAL/MOL
REMARK 923 INTER-LIGAND FREE ENERGY PREDICTED BY IDOCK:   -7.34 KCAL/MOL
REMARK 924 INTRA-LIGAND FREE ENERGY PREDICTED BY IDOCK:   -0.46 KCAL/MOL
REMARK 927      BINDING AFFINITY PREDICTED BY RF-SCORE:    0.00 PKD
ROOT
HETATM    1  C   UNL     1     -13.104  10.648  71.586  1.00  0.00    -0.450 C  
HETATM    2  N   UNL     1     -12.866   9.544  70.653  1.00  0.00    -0.527 N  
HETATM    3  H   UNL     1     -13.303   9.526  69.731  1.00  0.00     0.000 HD 
ENDROOT
BRANCH   2   4
HETATM    4  S   UNL     1     -11.841   8.302  71.160  1.00  0.00    -0.252 S  
HETATM    5  O   UNL     1     -12.457   7.051  70.775  1.00  0.00    -0.338 OA 
HETATM    6  O   UNL     1     -11.517   8.595  72.536  1.00  0.00    -0.348 OA 
BRANCH   4   7
HETATM    7  C   UNL     1     -10.403   8.595  70.149  1.00  0.00    -0.207 C  
BRANCH   7   8
HETATM    8  C   UNL     1     -10.498   7.853  68.823  1.00  0.00    -0.198 C  
BRANCH   8   9
HETATM    9  C   UNL     1     -10.174   8.714  67.618  1.00  0.00    -0.300 A  
HETATM   10  C   UNL     1     -10.766   9.989  67.506  1.00  0.00    -0.339 A  
HETATM   11  C   UNL     1     -10.528  10.797  66.369  1.00  0.00    -0.293 A  
HETATM   12  C   UNL     1      -9.664  10.298  65.394  1.00  0.00    -0.278 A  
HETATM   13  C   UNL     1      -9.070   9.040  65.464  1.00  0.00    -0.271 A  
HETATM   14  N   UNL     1      -9.552  11.251  64.418  1.00  0.00    -0.284 NA 
HETATM   15  C   UNL     1      -9.354   8.252  66.581  1.00  0.00    -0.246 A  
HETATM   16  H   UNL     1      -8.987  11.161  63.574  1.00  0.00     0.000 HD 
HETATM   17  C   UNL     1     -10.309  12.340  64.741  1.00  0.00    -0.291 A  
HETATM   18  C   UNL     1     -11.000  12.082  65.914  1.00  0.00    -0.342 A  
BRANCH  18  19
HETATM   19  C   UNL     1     -12.030  12.990  66.573  1.00  0.00    -0.457 C  
HETATM   20  C   UNL     1     -11.905  13.056  68.109  1.00  0.00    -0.381 C  
HETATM   21  C   UNL     1     -10.676  13.862  68.560  1.00  0.00    -0.257 C  
HETATM   22  N   UNL     1     -10.587  15.209  67.985  1.00  0.00    -0.253 NA 
HETATM   23  C   UNL     1     -10.750  15.185  66.526  1.00  0.00    -0.310 C  
HETATM   24  C   UNL     1     -11.491  16.147  68.640  1.00  0.00    -0.340 C  
HETATM   25  C   UNL     1     -11.998  14.436  66.050  1.00  0.00    -0.377 C  
ENDBRANCH  18  19
ENDBRANCH   8   9
ENDBRANCH   7   8
ENDBRANCH   4   7
ENDBRANCH   2   4
TORSDOF 5
ENDMDL
MODEL       48
REMARK 921   NORMALIZED FREE ENERGY PREDICTED BY IDOCK:   -5.76 KCAL/MOL
REMARK 922        TOTAL FREE ENERGY PREDICTED BY IDOCK:   -7.78 KCAL/MOL
REMARK 923 INTER-LIGAND FREE ENERGY PREDICTED BY IDOCK:   -7.46 KCAL/MOL
REMARK 924 INTRA-LIGAND FREE ENERGY PREDICTED BY IDOCK:   -0.32 KCAL/MOL
REMARK 927      BINDING AFFINITY PREDICTED BY RF-SCORE:    0.00 PKD
ROOT
HETATM    1  C   UNL     1     -11.857  15.954  64.245  1.00  0.00    -0.071 C  
HETATM    2  N   UNL     1     -12.379  14.680  63.743  1.00  0.00    -1.092 N  
HETATM    3  H   UNL     1     -13.133  14.651  63.056  1.00  0.00     0.000 HD 
ENDROOT
BRANCH   2   4
HETATM    4  S   UNL     1     -11.686  13.263  64.343  1.00  0.00    -0.410 S  
HETATM    5  O   UNL     1     -11.622  12.319  63.249  1.00  0.00    -0.424 OA 
HETATM    6  O   UNL     1     -12.395  12.962  65.564  1.00  0.00    -0.460 OA 
BRANCH   4   7
HETATM    7  C   UNL     1     -10.041  13.818  64.748  1.00  0.00    -0.228 C  
BRANCH   7   8
HETATM    8  C   UNL     1      -9.768  13.694  66.241  1.00  0.00    -0.295 C  
BRANCH   8   9
HETATM    9  C   UNL     1      -9.994  14.981  67.011  1.00  0.00    -0.242 A  
HETATM   10  C   UNL     1      -8.943  15.917  67.106  1.00  0.00    -0.226 A  
HETATM   11  C   UNL     1      -9.100  17.102  67.861  1.00  0.00    -0.230 A  
HETATM   12  C   UNL     1     -10.336  17.320  68.469  1.00  0.00    -0.371 A  
HETATM   13  C   UNL     1     -11.394  16.414  68.408  1.00  0.00    -0.268 A  
HETATM   14  N   UNL     1     -10.275  18.530  69.105  1.00  0.00    -0.448 NA 
HETATM   15  C   UNL     1     -11.194  15.237  67.685  1.00  0.00    -0.320 A  
HETATM   16  H   UNL     1     -11.035  18.950  69.640  1.00  0.00     0.000 HD 
HETATM   17  C   UNL     1      -9.046  19.093  68.918  1.00  0.00    -0.306 A  
HETATM   18  C   UNL     1      -8.245  18.211  68.210  1.00  0.00    -0.300 A  
BRANCH  18  19
HETATM   19  C   UNL     1      -6.772  18.402  67.872  1.00  0.00    -0.216 C  
HETATM   20  C   UNL     1      -6.441  18.156  66.385  1.00  0.00    -0.248 C  
HETATM   21  C   UNL     1      -6.956  19.285  65.478  1.00  0.00    -0.232 C  
HETATM   22  N   UNL     1      -6.528  20.630  65.877  1.00  0.00    -0.233 NA 
HETATM   23  C   UNL     1      -6.787  20.878  67.302  1.00  0.00    -0.365 C  
HETATM   24  C   UNL     1      -5.147  20.902  65.498  1.00  0.00    -0.192 C  
HETATM   25  C   UNL     1      -6.235  19.797  68.234  1.00  0.00    -0.281 C  
ENDBRANCH  18  19
ENDBRANCH   8   9
ENDBRANCH   7   8
ENDBRANCH   4   7
ENDBRANCH   2   4
TORSDOF 5
ENDMDL
MODEL       49
REMARK 921   NORMALIZED FREE ENERGY PREDICTED BY IDOCK:   -5.75 KCAL/MOL
REMARK 922        TOTAL FREE ENERGY PREDICTED BY IDOCK:   -7.77 KCAL/MOL
REMARK 923 INTER-LIGAND FREE ENERGY PREDICTED BY IDOCK:   -7.26 KCAL/MOL
REMARK 924 INTRA-LIGAND FREE ENERGY PREDICTED BY IDOCK:   -0.51 KCAL/MOL
REMARK 927      BINDING AFFINITY PREDICTED BY RF-SCORE:    0.00 PKD
ROOT
HETATM    1  C   UNL     1     -11.563  10.207  70.770  1.00  0.00    -0.357 C  
HETATM    2  N   UNL     1     -11.170   9.562  69.515  1.00  0.00    -0.422 N  
HETATM    3  H   UNL     1     -11.517   9.898  68.616  1.00  0.00     0.000 HD 
ENDROOT
BRANCH   2   4
HETATM    4  S   UNL     1     -10.122   8.242  69.612  1.00  0.00    -0.204 S  
HETATM    5  O   UNL     1     -10.818   7.099  69.065  1.00  0.00    -0.209 OA 
HETATM    6  O   UNL     1      -9.609   8.244  70.962  1.00  0.00    -0.152 OA 
BRANCH   4   7
HETATM    7  C   UNL     1      -8.823   8.739  68.497  1.00  0.00    -0.138 C  
BRANCH   7   8
HETATM    8  C   UNL     1      -8.896   7.970  67.185  1.00  0.00    -0.138 C  
BRANCH   8   9
HETATM    9  C   UNL     1      -9.104   8.852  65.970  1.00  0.00    -0.265 A  
HETATM   10  C   UNL     1      -9.963   9.967  66.071  1.00  0.00    -0.338 A  
HETATM   11  C   UNL     1     -10.223  10.780  64.944  1.00  0.00    -0.388 A  
HETATM   12  C   UNL     1      -9.572  10.458  63.753  1.00  0.00    -0.310 A  
HETATM   13  C   UNL     1      -8.726   9.360  63.612  1.00  0.00    -0.222 A  
HETATM   14  N   UNL     1      -9.937  11.390  62.819  1.00  0.00    -0.620 NA 
HETATM   15  C   UNL     1      -8.519   8.556  64.733  1.00  0.00    -0.146 A  
HETATM   16  H   UNL     1      -9.618  11.405  61.851  1.00  0.00     0.000 HD 
HETATM   17  C   UNL     1     -10.792  12.297  63.376  1.00  0.00    -0.403 A  
HETATM   18  C   UNL     1     -11.065  11.922  64.682  1.00  0.00    -0.373 A  
BRANCH  18  19
HETATM   19  C   UNL     1     -12.045  12.601  65.629  1.00  0.00    -0.502 C  
HETATM   20  C   UNL     1     -11.594  12.586  67.104  1.00  0.00    -0.437 C  
HETATM   21  C   UNL     1     -10.428  13.553  67.368  1.00  0.00    -0.247 C  
HETATM   22  N   UNL     1     -10.669  14.931  66.925  1.00  0.00    -0.302 NA 
HETATM   23  C   UNL     1     -11.147  14.977  65.537  1.00  0.00    -0.357 C  
HETATM   24  C   UNL     1     -11.534  15.660  67.845  1.00  0.00    -0.251 C  
HETATM   25  C   UNL     1     -12.344  14.064  65.259  1.00  0.00    -0.480 C  
ENDBRANCH  18  19
ENDBRANCH   8   9
ENDBRANCH   7   8
ENDBRANCH   4   7
ENDBRANCH   2   4
TORSDOF 5
ENDMDL
MODEL       50
REMARK 921   NORMALIZED FREE ENERGY PREDICTED BY IDOCK:   -5.69 KCAL/MOL
REMARK 922        TOTAL FREE ENERGY PREDICTED BY IDOCK:   -7.70 KCAL/MOL
REMARK 923 INTER-LIGAND FREE ENERGY PREDICTED BY IDOCK:   -7.37 KCAL/MOL
REMARK 924 INTRA-LIGAND FREE ENERGY PREDICTED BY IDOCK:   -0.33 KCAL/MOL
REMARK 927      BINDING AFFINITY PREDICTED BY RF-SCORE:    0.00 PKD
ROOT
HETATM    1  C   UNL     1      -7.745  16.965  66.250  1.00  0.00    -0.297 C  
HETATM    2  N   UNL     1      -8.761  16.153  66.924  1.00  0.00    -0.203 N  
HETATM    3  H   UNL     1      -8.499  15.373  67.529  1.00  0.00     0.000 HD 
ENDROOT
BRANCH   2   4
HETATM    4  S   UNL     1     -10.379  16.555  66.664  1.00  0.00    -0.280 S  
HETATM    5  O   UNL     1     -10.493  17.018  65.299  1.00  0.00    -0.649 OA 
HETATM    6  O   UNL     1     -10.764  17.385  67.782  1.00  0.00    -0.373 OA 
BRANCH   4   7
HETATM    7  C   UNL     1     -11.169  14.965  66.823  1.00  0.00    -0.338 C  
BRANCH   7   8
HETATM    8  C   UNL     1     -10.416  14.068  67.795  1.00  0.00    -0.236 C  
BRANCH   8   9
HETATM    9  C   UNL     1     -11.238  13.640  68.994  1.00  0.00    -0.316 A  
HETATM   10  C   UNL     1     -11.315  12.270  69.320  1.00  0.00    -0.317 A  
HETATM   11  C   UNL     1     -12.116  11.830  70.400  1.00  0.00    -0.440 A  
HETATM   12  C   UNL     1     -12.789  12.801  71.141  1.00  0.00    -0.226 A  
HETATM   13  C   UNL     1     -12.747  14.162  70.843  1.00  0.00    -0.432 A  
HETATM   14  N   UNL     1     -13.461  12.160  72.146  1.00  0.00    -0.510 NA 
HETATM   15  C   UNL     1     -11.976  14.560  69.749  1.00  0.00    -0.383 A  
HETATM   16  H   UNL     1     -14.045  12.619  72.845  1.00  0.00     0.000 HD 
HETATM   17  C   UNL     1     -13.235  10.817  72.074  1.00  0.00    -0.361 A  
HETATM   18  C   UNL     1     -12.461  10.545  70.957  1.00  0.00    -0.501 A  
BRANCH  18  19
HETATM   19  C   UNL     1     -12.060   9.165  70.450  1.00  0.00     0.095 C  
HETATM   20  C   UNL     1     -10.637   9.113  69.856  1.00  0.00    -0.246 C  
HETATM   21  C   UNL     1      -9.549   9.203  70.938  1.00  0.00    -0.279 C  
HETATM   22  N   UNL     1      -9.683   8.222  72.020  1.00  0.00    -0.225 NA 
HETATM   23  C   UNL     1     -11.042   8.214  72.576  1.00  0.00    -0.377 C  
HETATM   24  C   UNL     1      -9.229   6.896  71.618  1.00  0.00    -0.146 C  
HETATM   25  C   UNL     1     -12.146   8.068  71.525  1.00  0.00    -0.330 C  
ENDBRANCH  18  19
ENDBRANCH   8   9
ENDBRANCH   7   8
ENDBRANCH   4   7
ENDBRANCH   2   4
TORSDOF 5
ENDMDL
MODEL       51
REMARK 921   NORMALIZED FREE ENERGY PREDICTED BY IDOCK:   -5.67 KCAL/MOL
REMARK 922        TOTAL FREE ENERGY PREDICTED BY IDOCK:   -7.66 KCAL/MOL
REMARK 923 INTER-LIGAND FREE ENERGY PREDICTED BY IDOCK:   -7.34 KCAL/MOL
REMARK 924 INTRA-LIGAND FREE ENERGY PREDICTED BY IDOCK:   -0.32 KCAL/MOL
REMARK 927      BINDING AFFINITY PREDICTED BY RF-SCORE:    0.00 PKD
ROOT
HETATM    1  C   UNL     1     -10.467  19.831  65.783  1.00  0.00    -0.445 C  
HETATM    2  N   UNL     1     -10.697  18.639  66.605  1.00  0.00    -0.334 N  
HETATM    3  H   UNL     1     -11.372  18.646  67.370  1.00  0.00     0.000 HD 
ENDROOT
BRANCH   2   4
HETATM    4  S   UNL     1      -9.802  17.255  66.238  1.00  0.00    -0.264 S  
HETATM    5  O   UNL     1      -8.458  17.683  65.920  1.00  0.00    -0.531 OA 
HETATM    6  O   UNL     1     -10.602  16.506  65.297  1.00  0.00    -0.575 OA 
BRANCH   4   7
HETATM    7  C   UNL     1      -9.804  16.407  67.806  1.00  0.00    -0.239 C  
BRANCH   7   8
HETATM    8  C   UNL     1     -11.158  16.514  68.491  1.00  0.00    -0.335 C  
BRANCH   8   9
HETATM    9  C   UNL     1     -11.575  15.252  69.220  1.00  0.00    -0.350 A  
HETATM   10  C   UNL     1     -11.304  13.999  68.633  1.00  0.00    -0.307 A  
HETATM   11  C   UNL     1     -11.726  12.803  69.259  1.00  0.00    -0.376 A  
HETATM   12  C   UNL     1     -12.381  12.914  70.485  1.00  0.00    -0.283 A  
HETATM   13  C   UNL     1     -12.677  14.134  71.091  1.00  0.00    -0.431 A  
HETATM   14  N   UNL     1     -12.659  11.647  70.920  1.00  0.00    -0.348 NA 
HETATM   15  C   UNL     1     -12.279  15.297  70.430  1.00  0.00    -0.404 A  
HETATM   16  H   UNL     1     -13.140  11.418  71.790  1.00  0.00     0.000 HD 
HETATM   17  C   UNL     1     -12.200  10.733  70.016  1.00  0.00    -0.334 A  
HETATM   18  C   UNL     1     -11.673  11.401  68.922  1.00  0.00    -0.409 A  
BRANCH  18  19
HETATM   19  C   UNL     1     -11.143  10.763  67.645  1.00  0.00    -0.384 C  
HETATM   20  C   UNL     1     -10.001  11.562  66.981  1.00  0.00    -0.225 C  
HETATM   21  C   UNL     1      -8.683  11.458  67.766  1.00  0.00    -0.136 C  
HETATM   22  N   UNL     1      -8.247  10.086  68.044  1.00  0.00    -0.115 NA 
HETATM   23  C   UNL     1      -9.328   9.284  68.634  1.00  0.00    -0.139 C  
HETATM   24  C   UNL     1      -7.647   9.452  66.876  1.00  0.00    -0.091 C  
HETATM   25  C   UNL     1     -10.637   9.324  67.842  1.00  0.00    -0.288 C  
ENDBRANCH  18  19
ENDBRANCH   8   9
ENDBRANCH   7   8
ENDBRANCH   4   7
ENDBRANCH   2   4
TORSDOF 5
ENDMDL
MODEL       52
REMARK 921   NORMALIZED FREE ENERGY PREDICTED BY IDOCK:   -5.66 KCAL/MOL
REMARK 922        TOTAL FREE ENERGY PREDICTED BY IDOCK:   -7.66 KCAL/MOL
REMARK 923 INTER-LIGAND FREE ENERGY PREDICTED BY IDOCK:   -7.29 KCAL/MOL
REMARK 924 INTRA-LIGAND FREE ENERGY PREDICTED BY IDOCK:   -0.36 KCAL/MOL
REMARK 927      BINDING AFFINITY PREDICTED BY RF-SCORE:    0.00 PKD
ROOT
HETATM    1  C   UNL     1     -12.503  12.459  63.453  1.00  0.00    -0.446 C  
HETATM    2  N   UNL     1     -12.562  13.920  63.351  1.00  0.00    -1.018 N  
HETATM    3  H   UNL     1     -13.034  14.377  62.570  1.00  0.00     0.000 HD 
ENDROOT
BRANCH   2   4
HETATM    4  S   UNL     1     -11.821  14.817  64.574  1.00  0.00    -0.371 S  
HETATM    5  O   UNL     1     -12.245  16.190  64.417  1.00  0.00    -0.311 OA 
HETATM    6  O   UNL     1     -10.426  14.445  64.546  1.00  0.00    -0.349 OA 
BRANCH   4   7
HETATM    7  C   UNL     1     -12.578  14.121  66.031  1.00  0.00    -0.375 C  
BRANCH   7   8
HETATM    8  C   UNL     1     -11.868  14.582  67.296  1.00  0.00    -0.419 C  
BRANCH   8   9
HETATM    9  C   UNL     1     -11.792  13.519  68.375  1.00  0.00    -0.408 A  
HETATM   10  C   UNL     1     -11.309  12.236  68.041  1.00  0.00    -0.348 A  
HETATM   11  C   UNL     1     -11.275  11.205  69.009  1.00  0.00    -0.318 A  
HETATM   12  C   UNL     1     -11.699  11.519  70.300  1.00  0.00    -0.289 A  
HETATM   13  C   UNL     1     -12.192  12.771  70.665  1.00  0.00    -0.374 A  
HETATM   14  N   UNL     1     -11.545  10.397  71.068  1.00  0.00    -0.337 NA 
HETATM   15  C   UNL     1     -12.247  13.756  69.678  1.00  0.00    -0.359 A  
HETATM   16  H   UNL     1     -11.778  10.329  72.059  1.00  0.00     0.000 HD 
HETATM   17  C   UNL     1     -11.032   9.383  70.313  1.00  0.00    -0.262 A  
HETATM   18  C   UNL     1     -10.913   9.809  69.000  1.00  0.00    -0.193 A  
BRANCH  18  19
HETATM   19  C   UNL     1     -10.476   8.961  67.812  1.00  0.00    -0.300 C  
HETATM   20  C   UNL     1      -9.327   9.587  66.994  1.00  0.00    -0.183 C  
HETATM   21  C   UNL     1      -7.982   9.523  67.734  1.00  0.00    -0.099 C  
HETATM   22  N   UNL     1      -7.604   8.183  68.196  1.00  0.00    -0.103 NA 
HETATM   23  C   UNL     1      -8.696   7.540  68.939  1.00  0.00    -0.132 C  
HETATM   24  C   UNL     1      -7.092   7.352  67.113  1.00  0.00    -0.084 C  
HETATM   25  C   UNL     1     -10.037   7.539  68.201  1.00  0.00    -0.215 C  
ENDBRANCH  18  19
ENDBRANCH   8   9
ENDBRANCH   7   8
ENDBRANCH   4   7
ENDBRANCH   2   4
TORSDOF 5
ENDMDL
MODEL       53
REMARK 921   NORMALIZED FREE ENERGY PREDICTED BY IDOCK:   -5.64 KCAL/MOL
REMARK 922        TOTAL FREE ENERGY PREDICTED BY IDOCK:   -7.63 KCAL/MOL
REMARK 923 INTER-LIGAND FREE ENERGY PREDICTED BY IDOCK:   -7.28 KCAL/MOL
REMARK 924 INTRA-LIGAND FREE ENERGY PREDICTED BY IDOCK:   -0.34 KCAL/MOL
REMARK 927      BINDING AFFINITY PREDICTED BY RF-SCORE:    0.00 PKD
ROOT
HETATM    1  C   UNL     1     -11.729  15.690  71.709  1.00  0.00    -0.454 C  
HETATM    2  N   UNL     1     -11.210  14.601  70.878  1.00  0.00    -0.517 N  
HETATM    3  H   UNL     1     -11.093  13.659  71.252  1.00  0.00     0.000 HD 
ENDROOT
BRANCH   2   4
HETATM    4  S   UNL     1     -10.812  14.963  69.278  1.00  0.00    -0.274 S  
HETATM    5  O   UNL     1      -9.377  14.837  69.152  1.00  0.00    -0.180 OA 
HETATM    6  O   UNL     1     -11.495  16.198  68.972  1.00  0.00    -0.347 OA 
BRANCH   4   7
HETATM    7  C   UNL     1     -11.607  13.628  68.405  1.00  0.00    -0.342 C  
BRANCH   7   8
HETATM    8  C   UNL     1     -12.271  14.121  67.127  1.00  0.00    -0.348 C  
BRANCH   8   9
HETATM    9  C   UNL     1     -11.840  13.366  65.884  1.00  0.00    -0.414 A  
HETATM   10  C   UNL     1     -10.797  12.422  65.983  1.00  0.00    -0.308 A  
HETATM   11  C   UNL     1     -10.333  11.738  64.835  1.00  0.00    -0.334 A  
HETATM   12  C   UNL     1     -10.969  12.008  63.623  1.00  0.00    -0.448 A  
HETATM   13  C   UNL     1     -11.995  12.942  63.484  1.00  0.00    -0.629 A  
HETATM   14  N   UNL     1     -10.391  11.216  62.669  1.00  0.00    -0.678 NA 
HETATM   15  C   UNL     1     -12.405  13.626  64.629  1.00  0.00    -0.413 A  
HETATM   16  H   UNL     1     -10.651  11.202  61.683  1.00  0.00     0.000 HD 
HETATM   17  C   UNL     1      -9.413  10.448  63.232  1.00  0.00    -0.323 A  
HETATM   18  C   UNL     1      -9.283  10.786  64.569  1.00  0.00    -0.250 A  
BRANCH  18  19
HETATM   19  C   UNL     1      -8.244  10.240  65.541  1.00  0.00    -0.158 C  
HETATM   20  C   UNL     1      -8.850   9.673  66.841  1.00  0.00    -0.143 C  
HETATM   21  C   UNL     1      -9.569   8.333  66.614  1.00  0.00    -0.233 C  
HETATM   22  N   UNL     1      -8.756   7.311  65.946  1.00  0.00    -0.149 NA 
HETATM   23  C   UNL     1      -8.126   7.836  64.727  1.00  0.00    -0.131 C  
HETATM   24  C   UNL     1      -7.800   6.689  66.853  1.00  0.00    -0.108 C  
HETATM   25  C   UNL     1      -7.354   9.141  64.935  1.00  0.00    -0.101 C  
ENDBRANCH  18  19
ENDBRANCH   8   9
ENDBRANCH   7   8
ENDBRANCH   4   7
ENDBRANCH   2   4
TORSDOF 5
ENDMDL
MODEL       54
REMARK 921   NORMALIZED FREE ENERGY PREDICTED BY IDOCK:   -5.63 KCAL/MOL
REMARK 922        TOTAL FREE ENERGY PREDICTED BY IDOCK:   -7.62 KCAL/MOL
REMARK 923 INTER-LIGAND FREE ENERGY PREDICTED BY IDOCK:   -7.47 KCAL/MOL
REMARK 924 INTRA-LIGAND FREE ENERGY PREDICTED BY IDOCK:   -0.15 KCAL/MOL
REMARK 927      BINDING AFFINITY PREDICTED BY RF-SCORE:    0.00 PKD
ROOT
HETATM    1  C   UNL     1      -7.696   7.668  63.282  1.00  0.00    -0.131 C  
HETATM    2  N   UNL     1      -8.439   8.391  64.317  1.00  0.00    -0.373 N  
HETATM    3  H   UNL     1      -9.454   8.308  64.396  1.00  0.00     0.000 HD 
ENDROOT
BRANCH   2   4
HETATM    4  S   UNL     1      -7.555   9.367  65.374  1.00  0.00    -0.102 S  
HETATM    5  O   UNL     1      -6.732  10.240  64.566  1.00  0.00    -0.128 OA 
HETATM    6  O   UNL     1      -6.981   8.472  66.350  1.00  0.00    -0.075 OA 
BRANCH   4   7
HETATM    7  C   UNL     1      -8.851  10.316  66.147  1.00  0.00    -0.151 C  
BRANCH   7   8
HETATM    8  C   UNL     1     -10.129  10.282  65.321  1.00  0.00    -0.359 C  
BRANCH   8   9
HETATM    9  C   UNL     1     -10.626  11.654  64.910  1.00  0.00    -0.349 A  
HETATM   10  C   UNL     1     -10.055  12.798  65.506  1.00  0.00    -0.278 A  
HETATM   11  C   UNL     1     -10.531  14.091  65.185  1.00  0.00    -0.415 A  
HETATM   12  C   UNL     1     -11.552  14.186  64.240  1.00  0.00    -0.309 A  
HETATM   13  C   UNL     1     -12.148  13.079  63.639  1.00  0.00    -0.604 A  
HETATM   14  N   UNL     1     -11.823  15.515  64.060  1.00  0.00    -0.954 NA 
HETATM   15  C   UNL     1     -11.681  11.816  64.003  1.00  0.00    -0.421 A  
HETATM   16  H   UNL     1     -12.531  15.888  63.427  1.00  0.00     0.000 HD 
HETATM   17  C   UNL     1     -11.008  16.269  64.853  1.00  0.00    -0.307 A  
HETATM   18  C   UNL     1     -10.230  15.429  65.634  1.00  0.00    -0.403 A  
BRANCH  18  19
HETATM   19  C   UNL     1      -9.257  15.856  66.724  1.00  0.00    -0.264 C  
HETATM   20  C   UNL     1      -8.449  17.124  66.374  1.00  0.00    -0.307 C  
HETATM   21  C   UNL     1      -9.310  18.396  66.426  1.00  0.00    -0.283 C  
HETATM   22  N   UNL     1     -10.035  18.590  67.687  1.00  0.00    -0.323 NA 
HETATM   23  C   UNL     1     -10.776  17.382  68.074  1.00  0.00    -0.359 C  
HETATM   24  C   UNL     1      -9.167  19.084  68.749  1.00  0.00    -0.343 C  
HETATM   25  C   UNL     1      -9.929  16.106  68.085  1.00  0.00    -0.230 C  
ENDBRANCH  18  19
ENDBRANCH   8   9
ENDBRANCH   7   8
ENDBRANCH   4   7
ENDBRANCH   2   4
TORSDOF 5
ENDMDL
MODEL       55
REMARK 921   NORMALIZED FREE ENERGY PREDICTED BY IDOCK:   -5.61 KCAL/MOL
REMARK 922        TOTAL FREE ENERGY PREDICTED BY IDOCK:   -7.60 KCAL/MOL
REMARK 923 INTER-LIGAND FREE ENERGY PREDICTED BY IDOCK:   -7.20 KCAL/MOL
REMARK 924 INTRA-LIGAND FREE ENERGY PREDICTED BY IDOCK:   -0.39 KCAL/MOL
REMARK 927      BINDING AFFINITY PREDICTED BY RF-SCORE:    0.00 PKD
ROOT
HETATM    1  C   UNL     1      -9.697  11.188  63.116  1.00  0.00    -0.376 C  
HETATM    2  N   UNL     1     -10.002  10.050  63.987  1.00  0.00    -0.474 N  
HETATM    3  H   UNL     1     -10.398   9.188  63.611  1.00  0.00     0.000 HD 
ENDROOT
BRANCH   2   4
HETATM    4  S   UNL     1      -9.672  10.218  65.634  1.00  0.00    -0.267 S  
HETATM    5  O   UNL     1      -8.556  11.130  65.758  1.00  0.00    -0.176 OA 
HETATM    6  O   UNL     1      -9.619   8.877  66.165  1.00  0.00    -0.234 OA 
BRANCH   4   7
HETATM    7  C   UNL     1     -11.159  11.013  66.212  1.00  0.00    -0.037 C  
BRANCH   7   8
HETATM    8  C   UNL     1     -10.839  12.177  67.140  1.00  0.00    -0.286 C  
BRANCH   8   9
HETATM    9  C   UNL     1     -10.922  13.533  66.469  1.00  0.00    -0.295 A  
HETATM   10  C   UNL     1     -10.486  14.675  67.173  1.00  0.00    -0.268 A  
HETATM   11  C   UNL     1     -10.598  15.963  66.598  1.00  0.00    -0.305 A  
HETATM   12  C   UNL     1     -11.118  16.049  65.307  1.00  0.00    -0.213 A  
HETATM   13  C   UNL     1     -11.570  14.946  64.584  1.00  0.00    -0.395 A  
HETATM   14  N   UNL     1     -11.098  17.368  64.943  1.00  0.00    -0.810 NA 
HETATM   15  C   UNL     1     -11.479  13.694  65.194  1.00  0.00    -0.328 A  
HETATM   16  H   UNL     1     -11.424  17.733  64.048  1.00  0.00     0.000 HD 
HETATM   17  C   UNL     1     -10.579  18.123  65.954  1.00  0.00    -0.234 A  
HETATM   18  C   UNL     1     -10.318  17.306  67.043  1.00  0.00    -0.318 A  
BRANCH  18  19
HETATM   19  C   UNL     1      -9.825  17.758  68.411  1.00  0.00    -0.347 C  
HETATM   20  C   UNL     1      -8.462  17.153  68.809  1.00  0.00    -0.225 C  
HETATM   21  C   UNL     1      -7.297  17.766  68.014  1.00  0.00    -0.220 C  
HETATM   22  N   UNL     1      -7.235  19.231  68.058  1.00  0.00    -0.252 NA 
HETATM   23  C   UNL     1      -8.532  19.837  67.730  1.00  0.00    -0.317 C  
HETATM   24  C   UNL     1      -6.685  19.720  69.317  1.00  0.00    -0.348 C  
HETATM   25  C   UNL     1      -9.703  19.285  68.548  1.00  0.00    -0.481 C  
ENDBRANCH  18  19
ENDBRANCH   8   9
ENDBRANCH   7   8
ENDBRANCH   4   7
ENDBRANCH   2   4
TORSDOF 5
ENDMDL
MODEL       56
REMARK 921   NORMALIZED FREE ENERGY PREDICTED BY IDOCK:   -5.61 KCAL/MOL
REMARK 922        TOTAL FREE ENERGY PREDICTED BY IDOCK:   -7.59 KCAL/MOL
REMARK 923 INTER-LIGAND FREE ENERGY PREDICTED BY IDOCK:   -7.07 KCAL/MOL
REMARK 924 INTRA-LIGAND FREE ENERGY PREDICTED BY IDOCK:   -0.52 KCAL/MOL
REMARK 927      BINDING AFFINITY PREDICTED BY RF-SCORE:    0.00 PKD
ROOT
HETATM    1  C   UNL     1      -8.925   7.169  68.941  1.00  0.00    -0.129 C  
HETATM    2  N   UNL     1      -9.392   8.552  68.811  1.00  0.00    -0.143 N  
HETATM    3  H   UNL     1      -9.130   9.265  69.493  1.00  0.00     0.000 HD 
ENDROOT
BRANCH   2   4
HETATM    4  S   UNL     1     -10.379   8.921  67.492  1.00  0.00    -0.269 S  
HETATM    5  O   UNL     1     -11.354   9.890  67.942  1.00  0.00    -0.158 OA 
HETATM    6  O   UNL     1     -10.776   7.651  66.929  1.00  0.00    -0.351 OA 
BRANCH   4   7
HETATM    7  C   UNL     1      -9.219   9.708  66.392  1.00  0.00    -0.163 C  
BRANCH   7   8
HETATM    8  C   UNL     1      -9.800   9.860  64.993  1.00  0.00    -0.323 C  
BRANCH   8   9
HETATM    9  C   UNL     1     -10.325  11.251  64.698  1.00  0.00    -0.373 A  
HETATM   10  C   UNL     1      -9.969  12.315  65.553  1.00  0.00    -0.264 A  
HETATM   11  C   UNL     1     -10.484  13.615  65.339  1.00  0.00    -0.333 A  
HETATM   12  C   UNL     1     -11.318  13.804  64.238  1.00  0.00    -0.326 A  
HETATM   13  C   UNL     1     -11.702  12.777  63.378  1.00  0.00    -0.556 A  
HETATM   14  N   UNL     1     -11.662  15.129  64.205  1.00  0.00    -0.780 NA 
HETATM   15  C   UNL     1     -11.206  11.498  63.638  1.00  0.00    -0.451 A  
HETATM   16  H   UNL     1     -12.270  15.559  63.508  1.00  0.00     0.000 HD 
HETATM   17  C   UNL     1     -11.070  15.789  65.242  1.00  0.00    -0.273 A  
HETATM   18  C   UNL     1     -10.381  14.879  66.027  1.00  0.00    -0.313 A  
BRANCH  18  19
HETATM   19  C   UNL     1      -9.662  15.178  67.336  1.00  0.00    -0.209 C  
HETATM   20  C   UNL     1     -10.101  16.502  67.996  1.00  0.00    -0.255 C  
HETATM   21  C   UNL     1     -11.508  16.410  68.609  1.00  0.00    -0.224 C  
HETATM   22  N   UNL     1     -11.694  15.293  69.541  1.00  0.00    -0.318 NA 
HETATM   23  C   UNL     1     -11.239  14.023  68.959  1.00  0.00    -0.276 C  
HETATM   24  C   UNL     1     -11.099  15.562  70.845  1.00  0.00    -0.348 C  
HETATM   25  C   UNL     1      -9.819  14.070  68.391  1.00  0.00    -0.232 C  
ENDBRANCH  18  19
ENDBRANCH   8   9
ENDBRANCH   7   8
ENDBRANCH   4   7
ENDBRANCH   2   4
TORSDOF 5
ENDMDL
MODEL       57
REMARK 921   NORMALIZED FREE ENERGY PREDICTED BY IDOCK:   -5.60 KCAL/MOL
REMARK 922        TOTAL FREE ENERGY PREDICTED BY IDOCK:   -7.58 KCAL/MOL
REMARK 923 INTER-LIGAND FREE ENERGY PREDICTED BY IDOCK:   -7.09 KCAL/MOL
REMARK 924 INTRA-LIGAND FREE ENERGY PREDICTED BY IDOCK:   -0.48 KCAL/MOL
REMARK 927      BINDING AFFINITY PREDICTED BY RF-SCORE:    0.00 PKD
ROOT
HETATM    1  C   UNL     1     -10.648  18.869  66.035  1.00  0.00    -0.403 C  
HETATM    2  N   UNL     1     -10.754  17.520  66.599  1.00  0.00    -0.175 N  
HETATM    3  H   UNL     1     -10.941  17.376  67.591  1.00  0.00     0.000 HD 
ENDROOT
BRANCH   2   4
HETATM    4  S   UNL     1     -10.553  16.217  65.545  1.00  0.00    -0.334 S  
HETATM    5  O   UNL     1      -9.154  15.851  65.574  1.00  0.00    -0.286 OA 
HETATM    6  O   UNL     1     -11.213  16.597  64.318  1.00  0.00    -1.098 OA 
BRANCH   4   7
HETATM    7  C   UNL     1     -11.517  14.955  66.356  1.00  0.00    -0.280 C  
BRANCH   7   8
HETATM    8  C   UNL     1     -12.238  14.075  65.345  1.00  0.00    -0.453 C  
BRANCH   8   9
HETATM    9  C   UNL     1     -11.464  12.831  64.957  1.00  0.00    -0.356 A  
HETATM   10  C   UNL     1     -11.147  11.882  65.952  1.00  0.00    -0.365 A  
HETATM   11  C   UNL     1     -10.381  10.736  65.636  1.00  0.00    -0.297 A  
HETATM   12  C   UNL     1      -9.988  10.569  64.309  1.00  0.00    -0.331 A  
HETATM   13  C   UNL     1     -10.271  11.489  63.301  1.00  0.00    -0.432 A  
HETATM   14  N   UNL     1      -9.299   9.388  64.229  1.00  0.00    -0.415 NA 
HETATM   15  C   UNL     1     -10.998  12.627  63.652  1.00  0.00    -0.464 A  
HETATM   16  H   UNL     1      -8.887   9.007  63.377  1.00  0.00     0.000 HD 
HETATM   17  C   UNL     1      -9.246   8.796  65.457  1.00  0.00    -0.137 A  
HETATM   18  C   UNL     1      -9.841   9.630  66.390  1.00  0.00    -0.309 A  
BRANCH  18  19
HETATM   19  C   UNL     1      -9.909   9.398  67.894  1.00  0.00    -0.197 C  
HETATM   20  C   UNL     1      -8.966   8.283  68.393  1.00  0.00    -0.136 C  
HETATM   21  C   UNL     1      -7.490   8.713  68.368  1.00  0.00    -0.095 C  
HETATM   22  N   UNL     1      -7.210   9.968  69.075  1.00  0.00    -0.072 NA 
HETATM   23  C   UNL     1      -8.124  11.039  68.656  1.00  0.00    -0.149 C  
HETATM   24  C   UNL     1      -7.175   9.788  70.521  1.00  0.00    -0.120 C  
HETATM   25  C   UNL     1      -9.605  10.657  68.724  1.00  0.00    -0.190 C  
ENDBRANCH  18  19
ENDBRANCH   8   9
ENDBRANCH   7   8
ENDBRANCH   4   7
ENDBRANCH   2   4
TORSDOF 5
ENDMDL
MODEL       58
REMARK 921   NORMALIZED FREE ENERGY PREDICTED BY IDOCK:   -5.59 KCAL/MOL
REMARK 922        TOTAL FREE ENERGY PREDICTED BY IDOCK:   -7.57 KCAL/MOL
REMARK 923 INTER-LIGAND FREE ENERGY PREDICTED BY IDOCK:   -7.04 KCAL/MOL
REMARK 924 INTRA-LIGAND FREE ENERGY PREDICTED BY IDOCK:   -0.53 KCAL/MOL
REMARK 927      BINDING AFFINITY PREDICTED BY RF-SCORE:    0.00 PKD
ROOT
HETATM    1  C   UNL     1     -11.408   6.312  70.110  1.00  0.00    -0.406 C  
HETATM    2  N   UNL     1     -11.871   7.690  70.297  1.00  0.00    -0.490 N  
HETATM    3  H   UNL     1     -11.655   8.417  69.615  1.00  0.00     0.000 HD 
ENDROOT
BRANCH   2   4
HETATM    4  S   UNL     1     -12.774   8.027  71.682  1.00  0.00    -0.324 S  
HETATM    5  O   UNL     1     -11.838   8.314  72.747  1.00  0.00    -0.388 OA 
HETATM    6  O   UNL     1     -13.743   6.963  71.791  1.00  0.00    -0.303 OA 
BRANCH   4   7
HETATM    7  C   UNL     1     -13.610   9.527  71.203  1.00  0.00    -0.169 C  
BRANCH   7   8
HETATM    8  C   UNL     1     -12.823  10.759  71.627  1.00  0.00    -0.562 C  
BRANCH   8   9
HETATM    9  C   UNL     1     -12.400  11.642  70.470  1.00  0.00    -0.410 A  
HETATM   10  C   UNL     1     -12.017  11.041  69.253  1.00  0.00    -0.410 A  
HETATM   11  C   UNL     1     -11.566  11.831  68.170  1.00  0.00    -0.391 A  
HETATM   12  C   UNL     1     -11.552  13.215  68.343  1.00  0.00    -0.337 A  
HETATM   13  C   UNL     1     -11.913  13.844  69.533  1.00  0.00    -0.396 A  
HETATM   14  N   UNL     1     -11.124  13.773  67.169  1.00  0.00    -0.296 NA 
HETATM   15  C   UNL     1     -12.318  13.034  70.595  1.00  0.00    -0.391 A  
HETATM   16  H   UNL     1     -11.010  14.773  67.003  1.00  0.00     0.000 HD 
HETATM   17  C   UNL     1     -10.870  12.794  66.254  1.00  0.00    -0.275 A  
HETATM   18  C   UNL     1     -11.058  11.556  66.848  1.00  0.00    -0.366 A  
BRANCH  18  19
HETATM   19  C   UNL     1     -10.788  10.199  66.211  1.00  0.00     0.050 C  
HETATM   20  C   UNL     1      -9.698  10.232  65.119  1.00  0.00    -0.364 C  
HETATM   21  C   UNL     1      -8.289  10.411  65.707  1.00  0.00    -0.158 C  
HETATM   22  N   UNL     1      -7.935   9.438  66.747  1.00  0.00    -0.108 NA 
HETATM   23  C   UNL     1      -8.978   9.348  67.778  1.00  0.00    -0.122 C  
HETATM   24  C   UNL     1      -7.580   8.140  66.187  1.00  0.00    -0.089 C  
HETATM   25  C   UNL     1     -10.385   9.114  67.224  1.00  0.00    -0.338 C  
ENDBRANCH  18  19
ENDBRANCH   8   9
ENDBRANCH   7   8
ENDBRANCH   4   7
ENDBRANCH   2   4
TORSDOF 5
ENDMDL
MODEL       59
REMARK 921   NORMALIZED FREE ENERGY PREDICTED BY IDOCK:   -5.56 KCAL/MOL
REMARK 922        TOTAL FREE ENERGY PREDICTED BY IDOCK:   -7.52 KCAL/MOL
REMARK 923 INTER-LIGAND FREE ENERGY PREDICTED BY IDOCK:   -7.17 KCAL/MOL
REMARK 924 INTRA-LIGAND FREE ENERGY PREDICTED BY IDOCK:   -0.35 KCAL/MOL
REMARK 927      BINDING AFFINITY PREDICTED BY RF-SCORE:    0.00 PKD
ROOT
HETATM    1  C   UNL     1     -10.427   6.720  68.993  1.00  0.00    -0.206 C  
HETATM    2  N   UNL     1     -11.291   7.748  69.580  1.00  0.00    -0.446 N  
HETATM    3  H   UNL     1     -11.604   8.551  69.034  1.00  0.00     0.000 HD 
ENDROOT
BRANCH   2   4
HETATM    4  S   UNL     1     -11.747   7.552  71.194  1.00  0.00    -0.296 S  
HETATM    5  O   UNL     1     -10.717   6.770  71.841  1.00  0.00    -0.219 OA 
HETATM    6  O   UNL     1     -13.124   7.117  71.164  1.00  0.00    -0.361 OA 
BRANCH   4   7
HETATM    7  C   UNL     1     -11.682   9.232  71.786  1.00  0.00    -0.386 C  
BRANCH   7   8
HETATM    8  C   UNL     1     -13.021   9.934  71.608  1.00  0.00    -0.536 C  
BRANCH   8   9
HETATM    9  C   UNL     1     -12.898  11.377  71.161  1.00  0.00    -0.440 A  
HETATM   10  C   UNL     1     -12.258  11.665  69.937  1.00  0.00    -0.310 A  
HETATM   11  C   UNL     1     -12.079  13.003  69.515  1.00  0.00    -0.289 A  
HETATM   12  C   UNL     1     -12.589  14.011  70.333  1.00  0.00    -0.308 A  
HETATM   13  C   UNL     1     -13.217  13.767  71.553  1.00  0.00    -0.417 A  
HETATM   14  N   UNL     1     -12.339  15.207  69.717  1.00  0.00    -0.523 NA 
HETATM   15  C   UNL     1     -13.346  12.438  71.959  1.00  0.00    -0.511 A  
HETATM   16  H   UNL     1     -12.597  16.122  70.087  1.00  0.00     0.000 HD 
HETATM   17  C   UNL     1     -11.694  14.996  68.533  1.00  0.00    -0.320 A  
HETATM   18  C   UNL     1     -11.439  13.641  68.390  1.00  0.00    -0.346 A  
BRANCH  18  19
HETATM   19  C   UNL     1     -10.653  12.985  67.263  1.00  0.00    -0.247 C  
HETATM   20  C   UNL     1      -9.517  13.867  66.704  1.00  0.00    -0.296 C  
HETATM   21  C   UNL     1      -8.331  13.977  67.676  1.00  0.00    -0.187 C  
HETATM   22  N   UNL     1      -7.796  12.690  68.132  1.00  0.00    -0.135 NA 
HETATM   23  C   UNL     1      -8.861  11.807  68.626  1.00  0.00    -0.060 C  
HETATM   24  C   UNL     1      -6.959  12.055  67.121  1.00  0.00    -0.134 C  
HETATM   25  C   UNL     1     -10.030  11.634  67.653  1.00  0.00    -0.201 C  
ENDBRANCH  18  19
ENDBRANCH   8   9
ENDBRANCH   7   8
ENDBRANCH   4   7
ENDBRANCH   2   4
TORSDOF 5
ENDMDL
MODEL       60
REMARK 921   NORMALIZED FREE ENERGY PREDICTED BY IDOCK:   -5.55 KCAL/MOL
REMARK 922        TOTAL FREE ENERGY PREDICTED BY IDOCK:   -7.52 KCAL/MOL
REMARK 923 INTER-LIGAND FREE ENERGY PREDICTED BY IDOCK:   -7.10 KCAL/MOL
REMARK 924 INTRA-LIGAND FREE ENERGY PREDICTED BY IDOCK:   -0.42 KCAL/MOL
REMARK 927      BINDING AFFINITY PREDICTED BY RF-SCORE:    0.00 PKD
ROOT
HETATM    1  C   UNL     1     -10.346  18.743  67.436  1.00  0.00    -0.418 C  
HETATM    2  N   UNL     1     -10.404  17.279  67.429  1.00  0.00    -0.330 N  
HETATM    3  H   UNL     1     -10.481  16.749  68.298  1.00  0.00     0.000 HD 
ENDROOT
BRANCH   2   4
HETATM    4  S   UNL     1     -10.340  16.503  65.931  1.00  0.00    -0.314 S  
HETATM    5  O   UNL     1      -9.044  15.870  65.830  1.00  0.00    -0.336 OA 
HETATM    6  O   UNL     1     -10.787  17.477  64.963  1.00  0.00    -0.727 OA 
BRANCH   4   7
HETATM    7  C   UNL     1     -11.599  15.256  66.125  1.00  0.00     0.008 C  
BRANCH   7   8
HETATM    8  C   UNL     1     -11.870  14.535  64.812  1.00  0.00    -0.446 C  
BRANCH   8   9
HETATM    9  C   UNL     1     -11.278  13.141  64.747  1.00  0.00    -0.347 A  
HETATM   10  C   UNL     1     -10.774  12.554  65.926  1.00  0.00    -0.294 A  
HETATM   11  C   UNL     1     -10.166  11.277  65.893  1.00  0.00    -0.298 A  
HETATM   12  C   UNL     1     -10.121  10.617  64.665  1.00  0.00    -0.349 A  
HETATM   13  C   UNL     1     -10.598  11.169  63.477  1.00  0.00    -0.393 A  
HETATM   14  N   UNL     1      -9.533   9.399  64.874  1.00  0.00    -0.451 NA 
HETATM   15  C   UNL     1     -11.159  12.445  63.538  1.00  0.00    -0.521 A  
HETATM   16  H   UNL     1      -9.363   8.699  64.152  1.00  0.00     0.000 HD 
HETATM   17  C   UNL     1      -9.208   9.259  66.192  1.00  0.00    -0.196 A  
HETATM   18  C   UNL     1      -9.513  10.433  66.863  1.00  0.00    -0.196 A  
BRANCH  18  19
HETATM   19  C   UNL     1      -9.220  10.738  68.326  1.00  0.00    -0.157 C  
HETATM   20  C   UNL     1     -10.387  11.431  69.060  1.00  0.00    -0.166 C  
HETATM   21  C   UNL     1     -11.556  10.471  69.333  1.00  0.00    -0.246 C  
HETATM   22  N   UNL     1     -11.181   9.236  70.030  1.00  0.00    -0.210 NA 
HETATM   23  C   UNL     1     -10.039   8.576  69.381  1.00  0.00    -0.205 C  
HETATM   24  C   UNL     1     -10.973   9.451  71.456  1.00  0.00    -0.359 C  
HETATM   25  C   UNL     1      -8.838   9.495  69.148  1.00  0.00    -0.147 C  
ENDBRANCH  18  19
ENDBRANCH   8   9
ENDBRANCH   7   8
ENDBRANCH   4   7
ENDBRANCH   2   4
TORSDOF 5
ENDMDL
MODEL       61
REMARK 921   NORMALIZED FREE ENERGY PREDICTED BY IDOCK:   -5.49 KCAL/MOL
REMARK 922        TOTAL FREE ENERGY PREDICTED BY IDOCK:   -7.44 KCAL/MOL
REMARK 923 INTER-LIGAND FREE ENERGY PREDICTED BY IDOCK:   -7.44 KCAL/MOL
REMARK 924 INTRA-LIGAND FREE ENERGY PREDICTED BY IDOCK:    0.01 KCAL/MOL
REMARK 927      BINDING AFFINITY PREDICTED BY RF-SCORE:    0.00 PKD
ROOT
HETATM    1  C   UNL     1     -14.346   7.123  71.676  1.00  0.00    -0.365 C  
HETATM    2  N   UNL     1     -13.206   7.334  70.779  1.00  0.00    -0.556 N  
HETATM    3  H   UNL     1     -13.317   7.296  69.765  1.00  0.00     0.000 HD 
ENDROOT
BRANCH   2   4
HETATM    4  S   UNL     1     -11.705   7.644  71.486  1.00  0.00    -0.292 S  
HETATM    5  O   UNL     1     -10.723   6.858  70.771  1.00  0.00    -0.223 OA 
HETATM    6  O   UNL     1     -11.902   7.501  72.909  1.00  0.00    -0.186 OA 
BRANCH   4   7
HETATM    7  C   UNL     1     -11.482   9.370  71.101  1.00  0.00    -0.352 C  
BRANCH   7   8
HETATM    8  C   UNL     1     -12.666  10.200  71.575  1.00  0.00    -0.541 C  
BRANCH   8   9
HETATM    9  C   UNL     1     -12.649  11.631  71.074  1.00  0.00    -0.431 A  
HETATM   10  C   UNL     1     -12.032  11.918  69.839  1.00  0.00    -0.398 A  
HETATM   11  C   UNL     1     -11.950  13.248  69.366  1.00  0.00    -0.356 A  
HETATM   12  C   UNL     1     -12.532  14.247  70.147  1.00  0.00    -0.335 A  
HETATM   13  C   UNL     1     -13.140  14.004  71.378  1.00  0.00    -0.423 A  
HETATM   14  N   UNL     1     -12.369  15.434  69.486  1.00  0.00    -0.586 NA 
HETATM   15  C   UNL     1     -13.172  12.685  71.833  1.00  0.00    -0.504 A  
HETATM   16  H   UNL     1     -12.693  16.341  69.823  1.00  0.00     0.000 HD 
HETATM   17  C   UNL     1     -11.710  15.225  68.310  1.00  0.00    -0.301 A  
HETATM   18  C   UNL     1     -11.357  13.888  68.217  1.00  0.00    -0.325 A  
BRANCH  18  19
HETATM   19  C   UNL     1     -10.526  13.249  67.113  1.00  0.00    -0.248 C  
HETATM   20  C   UNL     1      -9.309  14.096  66.683  1.00  0.00    -0.299 C  
HETATM   21  C   UNL     1      -8.193  14.092  67.740  1.00  0.00    -0.169 C  
HETATM   22  N   UNL     1      -7.758  12.756  68.161  1.00  0.00    -0.126 NA 
HETATM   23  C   UNL     1      -8.899  11.908  68.531  1.00  0.00    -0.108 C  
HETATM   24  C   UNL     1      -6.883  12.128  67.178  1.00  0.00    -0.119 C  
HETATM   25  C   UNL     1     -10.002  11.848  67.471  1.00  0.00    -0.197 C  
ENDBRANCH  18  19
ENDBRANCH   8   9
ENDBRANCH   7   8
ENDBRANCH   4   7
ENDBRANCH   2   4
TORSDOF 5
ENDMDL
MODEL       62
REMARK 921   NORMALIZED FREE ENERGY PREDICTED BY IDOCK:   -5.49 KCAL/MOL
REMARK 922        TOTAL FREE ENERGY PREDICTED BY IDOCK:   -7.43 KCAL/MOL
REMARK 923 INTER-LIGAND FREE ENERGY PREDICTED BY IDOCK:   -7.02 KCAL/MOL
REMARK 924 INTRA-LIGAND FREE ENERGY PREDICTED BY IDOCK:   -0.41 KCAL/MOL
REMARK 927      BINDING AFFINITY PREDICTED BY RF-SCORE:    0.00 PKD
ROOT
HETATM    1  C   UNL     1     -10.507  18.943  66.348  1.00  0.00    -0.439 C  
HETATM    2  N   UNL     1      -9.360  19.542  67.037  1.00  0.00    -0.322 N  
HETATM    3  H   UNL     1      -9.461  20.395  67.588  1.00  0.00     0.000 HD 
ENDROOT
BRANCH   2   4
HETATM    4  S   UNL     1      -7.868  18.768  66.883  1.00  0.00    -0.250 S  
HETATM    5  O   UNL     1      -6.904  19.539  67.637  1.00  0.00    -0.225 OA 
HETATM    6  O   UNL     1      -7.699  18.513  65.472  1.00  0.00    -0.472 OA 
BRANCH   4   7
HETATM    7  C   UNL     1      -8.182  17.225  67.718  1.00  0.00    -0.203 C  
BRANCH   7   8
HETATM    8  C   UNL     1      -8.393  16.092  66.725  1.00  0.00    -0.305 C  
BRANCH   8   9
HETATM    9  C   UNL     1      -9.188  14.929  67.285  1.00  0.00    -0.212 A  
HETATM   10  C   UNL     1     -10.276  15.192  68.144  1.00  0.00    -0.227 A  
HETATM   11  C   UNL     1     -11.006  14.130  68.727  1.00  0.00    -0.275 A  
HETATM   12  C   UNL     1     -10.632  12.829  68.392  1.00  0.00    -0.248 A  
HETATM   13  C   UNL     1      -9.557  12.530  67.556  1.00  0.00    -0.187 A  
HETATM   14  N   UNL     1     -11.489  11.976  69.032  1.00  0.00    -0.276 NA 
HETATM   15  C   UNL     1      -8.834  13.599  67.026  1.00  0.00    -0.233 A  
HETATM   16  H   UNL     1     -11.454  10.958  68.975  1.00  0.00     0.000 HD 
HETATM   17  C   UNL     1     -12.398  12.688  69.759  1.00  0.00    -0.025 A  
HETATM   18  C   UNL     1     -12.099  14.038  69.665  1.00  0.00    -0.408 A  
BRANCH  18  19
HETATM   19  C   UNL     1     -12.801  15.171  70.401  1.00  0.00    -0.346 C  
HETATM   20  C   UNL     1     -13.903  14.693  71.369  1.00  0.00    -0.473 C  
HETATM   21  C   UNL     1     -13.325  14.026  72.628  1.00  0.00    -0.543 C  
HETATM   22  N   UNL     1     -12.335  14.836  73.346  1.00  0.00    -0.362 NA 
HETATM   23  C   UNL     1     -11.297  15.348  72.441  1.00  0.00    -0.277 C  
HETATM   24  C   UNL     1     -12.959  15.887  74.142  1.00  0.00    -0.209 C  
HETATM   25  C   UNL     1     -11.845  16.067  71.206  1.00  0.00    -0.502 C  
ENDBRANCH  18  19
ENDBRANCH   8   9
ENDBRANCH   7   8
ENDBRANCH   4   7
ENDBRANCH   2   4
TORSDOF 5
ENDMDL
MODEL       63
REMARK 921   NORMALIZED FREE ENERGY PREDICTED BY IDOCK:   -5.48 KCAL/MOL
REMARK 922        TOTAL FREE ENERGY PREDICTED BY IDOCK:   -7.43 KCAL/MOL
REMARK 923 INTER-LIGAND FREE ENERGY PREDICTED BY IDOCK:   -7.23 KCAL/MOL
REMARK 924 INTRA-LIGAND FREE ENERGY PREDICTED BY IDOCK:   -0.19 KCAL/MOL
REMARK 927      BINDING AFFINITY PREDICTED BY RF-SCORE:    0.00 PKD
ROOT
HETATM    1  C   UNL     1     -12.120  15.937  73.556  1.00  0.00    -0.469 C  
HETATM    2  N   UNL     1     -12.083  16.269  72.129  1.00  0.00    -0.588 N  
HETATM    3  H   UNL     1     -11.533  17.056  71.784  1.00  0.00     0.000 HD 
ENDROOT
BRANCH   2   4
HETATM    4  S   UNL     1     -12.982  15.300  71.080  1.00  0.00    -0.477 S  
HETATM    5  O   UNL     1     -12.380  15.411  69.770  1.00  0.00    -0.324 OA 
HETATM    6  O   UNL     1     -14.365  15.646  71.311  1.00  0.00    -0.521 OA 
BRANCH   4   7
HETATM    7  C   UNL     1     -12.671  13.676  71.744  1.00  0.00    -0.265 C  
BRANCH   7   8
HETATM    8  C   UNL     1     -12.309  12.688  70.644  1.00  0.00    -0.375 C  
BRANCH   8   9
HETATM    9  C   UNL     1     -12.379  11.238  71.078  1.00  0.00    -0.472 A  
HETATM   10  C   UNL     1     -11.478  10.309  70.516  1.00  0.00    -0.427 A  
HETATM   11  C   UNL     1     -11.550   8.938  70.857  1.00  0.00    -0.331 A  
HETATM   12  C   UNL     1     -12.514   8.556  71.790  1.00  0.00    -0.342 A  
HETATM   13  C   UNL     1     -13.428   9.441  72.358  1.00  0.00    -0.506 A  
HETATM   14  N   UNL     1     -12.377   7.210  71.995  1.00  0.00    -0.440 NA 
HETATM   15  C   UNL     1     -13.354  10.781  71.973  1.00  0.00    -0.403 A  
HETATM   16  H   UNL     1     -12.952   6.652  72.626  1.00  0.00     0.000 HD 
HETATM   17  C   UNL     1     -11.356   6.723  71.231  1.00  0.00    -0.289 A  
HETATM   18  C   UNL     1     -10.851   7.746  70.443  1.00  0.00    -0.248 A  
BRANCH  18  19
HETATM   19  C   UNL     1      -9.773   7.614  69.376  1.00  0.00    -0.165 C  
HETATM   20  C   UNL     1      -8.922   8.888  69.194  1.00  0.00    -0.140 C  
HETATM   21  C   UNL     1      -7.954   9.116  70.367  1.00  0.00    -0.145 C  
HETATM   22  N   UNL     1      -7.091   7.971  70.676  1.00  0.00    -0.044 NA 
HETATM   23  C   UNL     1      -7.868   6.731  70.808  1.00  0.00    -0.101 C  
HETATM   24  C   UNL     1      -5.985   7.847  69.735  1.00  0.00    -0.023 C  
HETATM   25  C   UNL     1      -8.800   6.449  69.627  1.00  0.00    -0.137 C  
ENDBRANCH  18  19
ENDBRANCH   8   9
ENDBRANCH   7   8
ENDBRANCH   4   7
ENDBRANCH   2   4
TORSDOF 5
ENDMDL
MODEL       64
REMARK 921   NORMALIZED FREE ENERGY PREDICTED BY IDOCK:   -5.44 KCAL/MOL
REMARK 922        TOTAL FREE ENERGY PREDICTED BY IDOCK:   -7.37 KCAL/MOL
REMARK 923 INTER-LIGAND FREE ENERGY PREDICTED BY IDOCK:   -6.92 KCAL/MOL
REMARK 924 INTRA-LIGAND FREE ENERGY PREDICTED BY IDOCK:   -0.45 KCAL/MOL
REMARK 927      BINDING AFFINITY PREDICTED BY RF-SCORE:    0.00 PKD
ROOT
HETATM    1  C   UNL     1     -10.450  17.757  67.455  1.00  0.00    -0.372 C  
HETATM    2  N   UNL     1     -10.490  16.305  67.264  1.00  0.00    -0.298 N  
HETATM    3  H   UNL     1     -10.483  15.893  66.330  1.00  0.00     0.000 HD 
ENDROOT
BRANCH   2   4
HETATM    4  S   UNL     1     -10.549  15.338  68.647  1.00  0.00    -0.244 S  
HETATM    5  O   UNL     1     -11.050  16.161  69.726  1.00  0.00    -0.311 OA 
HETATM    6  O   UNL     1      -9.265  14.683  68.726  1.00  0.00    -0.195 OA 
BRANCH   4   7
HETATM    7  C   UNL     1     -11.785  14.139  68.188  1.00  0.00    -0.355 C  
BRANCH   7   8
HETATM    8  C   UNL     1     -12.371  14.445  66.817  1.00  0.00    -0.204 C  
BRANCH   8   9
HETATM    9  C   UNL     1     -11.880  13.519  65.723  1.00  0.00    -0.403 A  
HETATM   10  C   UNL     1     -10.971  12.491  66.050  1.00  0.00    -0.318 A  
HETATM   11  C   UNL     1     -10.451  11.642  65.045  1.00  0.00    -0.336 A  
HETATM   12  C   UNL     1     -10.899  11.839  63.740  1.00  0.00    -0.424 A  
HETATM   13  C   UNL     1     -11.787  12.850  63.375  1.00  0.00    -0.576 A  
HETATM   14  N   UNL     1     -10.302  10.892  62.952  1.00  0.00    -0.782 NA 
HETATM   15  C   UNL     1     -12.253  13.694  64.384  1.00  0.00    -0.436 A  
HETATM   16  H   UNL     1     -10.439  10.796  61.946  1.00  0.00     0.000 HD 
HETATM   17  C   UNL     1      -9.495  10.096  63.712  1.00  0.00    -0.275 A  
HETATM   18  C   UNL     1      -9.491  10.565  65.016  1.00  0.00    -0.296 A  
BRANCH  18  19
HETATM   19  C   UNL     1      -8.649  10.028  66.165  1.00  0.00    -0.142 C  
HETATM   20  C   UNL     1      -9.450   9.787  67.462  1.00  0.00    -0.170 C  
HETATM   21  C   UNL     1     -10.372   8.560  67.358  1.00  0.00    -0.286 C  
HETATM   22  N   UNL     1      -9.698   7.326  66.942  1.00  0.00    -0.182 NA 
HETATM   23  C   UNL     1      -8.886   7.534  65.735  1.00  0.00    -0.090 C  
HETATM   24  C   UNL     1      -8.944   6.717  68.031  1.00  0.00    -0.117 C  
HETATM   25  C   UNL     1      -7.918   8.716  65.831  1.00  0.00    -0.105 C  
ENDBRANCH  18  19
ENDBRANCH   8   9
ENDBRANCH   7   8
ENDBRANCH   4   7
ENDBRANCH   2   4
TORSDOF 5
ENDMDL
MODEL       65
REMARK 921   NORMALIZED FREE ENERGY PREDICTED BY IDOCK:   -5.44 KCAL/MOL
REMARK 922        TOTAL FREE ENERGY PREDICTED BY IDOCK:   -7.37 KCAL/MOL
REMARK 923 INTER-LIGAND FREE ENERGY PREDICTED BY IDOCK:   -7.16 KCAL/MOL
REMARK 924 INTRA-LIGAND FREE ENERGY PREDICTED BY IDOCK:   -0.21 KCAL/MOL
REMARK 927      BINDING AFFINITY PREDICTED BY RF-SCORE:    0.00 PKD
ROOT
HETATM    1  C   UNL     1      -8.524  20.301  67.339  1.00  0.00    -0.339 C  
HETATM    2  N   UNL     1      -8.968  19.628  66.115  1.00  0.00    -0.367 N  
HETATM    3  H   UNL     1      -8.481  19.767  65.229  1.00  0.00     0.000 HD 
ENDROOT
BRANCH   2   4
HETATM    4  S   UNL     1     -10.314  18.615  66.227  1.00  0.00    -0.428 S  
HETATM    5  O   UNL     1     -10.982  18.645  64.945  1.00  0.00    -0.494 OA 
HETATM    6  O   UNL     1     -10.991  18.992  67.445  1.00  0.00    -0.459 OA 
BRANCH   4   7
HETATM    7  C   UNL     1      -9.541  17.025  66.459  1.00  0.00    -0.278 C  
BRANCH   7   8
HETATM    8  C   UNL     1     -10.544  15.990  66.950  1.00  0.00    -0.300 C  
BRANCH   8   9
HETATM    9  C   UNL     1     -10.888  14.936  65.916  1.00  0.00    -0.336 A  
HETATM   10  C   UNL     1     -10.175  13.718  65.915  1.00  0.00    -0.322 A  
HETATM   11  C   UNL     1     -10.433  12.734  64.932  1.00  0.00    -0.342 A  
HETATM   12  C   UNL     1     -11.434  13.001  64.000  1.00  0.00    -0.421 A  
HETATM   13  C   UNL     1     -12.152  14.196  63.962  1.00  0.00    -0.382 A  
HETATM   14  N   UNL     1     -11.537  11.909  63.181  1.00  0.00    -0.745 NA 
HETATM   15  C   UNL     1     -11.848  15.161  64.923  1.00  0.00    -0.239 A  
HETATM   16  H   UNL     1     -12.187  11.821  62.400  1.00  0.00     0.000 HD 
HETATM   17  C   UNL     1     -10.640  10.955  63.564  1.00  0.00    -0.111 A  
HETATM   18  C   UNL     1      -9.871  11.445  64.607  1.00  0.00    -0.302 A  
BRANCH  18  19
HETATM   19  C   UNL     1      -8.691  10.744  65.267  1.00  0.00    -0.183 C  
HETATM   20  C   UNL     1      -8.441  11.187  66.723  1.00  0.00    -0.153 C  
HETATM   21  C   UNL     1      -9.505  10.643  67.690  1.00  0.00    -0.153 C  
HETATM   22  N   UNL     1      -9.697   9.190  67.629  1.00  0.00    -0.153 NA 
HETATM   23  C   UNL     1      -9.891   8.729  66.247  1.00  0.00    -0.272 C  
HETATM   24  C   UNL     1      -8.639   8.466  68.323  1.00  0.00    -0.139 C  
HETATM   25  C   UNL     1      -8.813   9.210  65.272  1.00  0.00    -0.240 C  
ENDBRANCH  18  19
ENDBRANCH   8   9
ENDBRANCH   7   8
ENDBRANCH   4   7
ENDBRANCH   2   4
TORSDOF 5
ENDMDL
MODEL       66
REMARK 921   NORMALIZED FREE ENERGY PREDICTED BY IDOCK:   -5.42 KCAL/MOL
REMARK 922        TOTAL FREE ENERGY PREDICTED BY IDOCK:   -7.35 KCAL/MOL
REMARK 923 INTER-LIGAND FREE ENERGY PREDICTED BY IDOCK:   -7.15 KCAL/MOL
REMARK 924 INTRA-LIGAND FREE ENERGY PREDICTED BY IDOCK:   -0.20 KCAL/MOL
REMARK 927      BINDING AFFINITY PREDICTED BY RF-SCORE:    0.00 PKD
ROOT
HETATM    1  C   UNL     1      -8.170   8.809  64.287  1.00  0.00    -0.163 C  
HETATM    2  N   UNL     1      -8.889   8.014  65.287  1.00  0.00    -0.383 N  
HETATM    3  H   UNL     1      -8.998   7.005  65.181  1.00  0.00     0.000 HD 
ENDROOT
BRANCH   2   4
HETATM    4  S   UNL     1      -9.527   8.830  66.619  1.00  0.00    -0.223 S  
HETATM    5  O   UNL     1      -8.591   8.669  67.710  1.00  0.00    -0.134 OA 
HETATM    6  O   UNL     1     -10.900   8.396  66.728  1.00  0.00    -0.172 OA 
BRANCH   4   7
HETATM    7  C   UNL     1      -9.495  10.518  66.049  1.00  0.00    -0.183 C  
BRANCH   7   8
HETATM    8  C   UNL     1     -10.615  11.335  66.677  1.00  0.00    -0.309 C  
BRANCH   8   9
HETATM    9  C   UNL     1     -10.926  12.618  65.932  1.00  0.00    -0.310 A  
HETATM   10  C   UNL     1     -10.448  13.842  66.444  1.00  0.00    -0.284 A  
HETATM   11  C   UNL     1     -10.764  15.064  65.804  1.00  0.00    -0.351 A  
HETATM   12  C   UNL     1     -11.529  15.003  64.640  1.00  0.00    -0.381 A  
HETATM   13  C   UNL     1     -12.028  13.814  64.110  1.00  0.00    -0.473 A  
HETATM   14  N   UNL     1     -11.677  16.282  64.177  1.00  0.00    -1.267 NA 
HETATM   15  C   UNL     1     -11.729  12.630  64.784  1.00  0.00    -0.402 A  
HETATM   16  H   UNL     1     -12.195  16.545  63.339  1.00  0.00     0.000 HD 
HETATM   17  C   UNL     1     -11.029  17.154  65.003  1.00  0.00     0.103 A  
HETATM   18  C   UNL     1     -10.503  16.456  66.078  1.00  0.00    -0.333 A  
BRANCH  18  19
HETATM   19  C   UNL     1      -9.789  17.057  67.282  1.00  0.00    -0.260 C  
HETATM   20  C   UNL     1      -8.305  16.649  67.390  1.00  0.00    -0.190 C  
HETATM   21  C   UNL     1      -7.431  17.339  66.330  1.00  0.00    -0.301 C  
HETATM   22  N   UNL     1      -7.553  18.800  66.297  1.00  0.00    -0.256 NA 
HETATM   23  C   UNL     1      -8.959  19.223  66.243  1.00  0.00    -0.328 C  
HETATM   24  C   UNL     1      -6.813  19.438  67.380  1.00  0.00    -0.205 C  
HETATM   25  C   UNL     1      -9.842  18.594  67.323  1.00  0.00    -0.345 C  
ENDBRANCH  18  19
ENDBRANCH   8   9
ENDBRANCH   7   8
ENDBRANCH   4   7
ENDBRANCH   2   4
TORSDOF 5
ENDMDL
MODEL       67
REMARK 921   NORMALIZED FREE ENERGY PREDICTED BY IDOCK:   -5.42 KCAL/MOL
REMARK 922        TOTAL FREE ENERGY PREDICTED BY IDOCK:   -7.35 KCAL/MOL
REMARK 923 INTER-LIGAND FREE ENERGY PREDICTED BY IDOCK:   -7.04 KCAL/MOL
REMARK 924 INTRA-LIGAND FREE ENERGY PREDICTED BY IDOCK:   -0.31 KCAL/MOL
REMARK 927      BINDING AFFINITY PREDICTED BY RF-SCORE:    0.00 PKD
ROOT
HETATM    1  C   UNL     1      -8.032  18.622  68.238  1.00  0.00    -0.312 C  
HETATM    2  N   UNL     1      -8.433  17.234  67.995  1.00  0.00    -0.223 N  
HETATM    3  H   UNL     1      -7.846  16.454  68.293  1.00  0.00     0.000 HD 
ENDROOT
BRANCH   2   4
HETATM    4  S   UNL     1      -9.901  16.974  67.203  1.00  0.00    -0.278 S  
HETATM    5  O   UNL     1      -9.637  17.021  65.782  1.00  0.00    -0.525 OA 
HETATM    6  O   UNL     1     -10.850  17.865  67.829  1.00  0.00    -0.374 OA 
BRANCH   4   7
HETATM    7  C   UNL     1     -10.271  15.299  67.686  1.00  0.00    -0.242 C  
BRANCH   7   8
HETATM    8  C   UNL     1     -11.580  14.823  67.070  1.00  0.00    -0.352 C  
BRANCH   8   9
HETATM    9  C   UNL     1     -11.395  13.875  65.902  1.00  0.00    -0.314 A  
HETATM   10  C   UNL     1     -10.451  12.832  66.007  1.00  0.00    -0.291 A  
HETATM   11  C   UNL     1     -10.215  11.962  64.917  1.00  0.00    -0.310 A  
HETATM   12  C   UNL     1     -10.973  12.154  63.762  1.00  0.00    -0.431 A  
HETATM   13  C   UNL     1     -11.906  13.179  63.617  1.00  0.00    -0.549 A  
HETATM   14  N   UNL     1     -10.609  11.187  62.865  1.00  0.00    -0.800 NA 
HETATM   15  C   UNL     1     -12.090  14.043  64.698  1.00  0.00    -0.462 A  
HETATM   16  H   UNL     1     -10.997  11.083  61.927  1.00  0.00     0.000 HD 
HETATM   17  C   UNL     1      -9.651  10.383  63.410  1.00  0.00    -0.312 A  
HETATM   18  C   UNL     1      -9.312  10.865  64.664  1.00  0.00    -0.256 A  
BRANCH  18  19
HETATM   19  C   UNL     1      -8.217  10.324  65.573  1.00  0.00    -0.158 C  
HETATM   20  C   UNL     1      -8.746   9.738  66.899  1.00  0.00    -0.143 C  
HETATM   21  C   UNL     1      -9.461   8.392  66.699  1.00  0.00    -0.205 C  
HETATM   22  N   UNL     1      -8.674   7.386  65.978  1.00  0.00    -0.154 NA 
HETATM   23  C   UNL     1      -8.115   7.928  64.732  1.00  0.00    -0.141 C  
HETATM   24  C   UNL     1      -7.663   6.767  66.828  1.00  0.00    -0.106 C  
HETATM   25  C   UNL     1      -7.348   9.240  64.911  1.00  0.00    -0.103 C  
ENDBRANCH  18  19
ENDBRANCH   8   9
ENDBRANCH   7   8
ENDBRANCH   4   7
ENDBRANCH   2   4
TORSDOF 5
ENDMDL
MODEL       68
REMARK 921   NORMALIZED FREE ENERGY PREDICTED BY IDOCK:   -5.42 KCAL/MOL
REMARK 922        TOTAL FREE ENERGY PREDICTED BY IDOCK:   -7.34 KCAL/MOL
REMARK 923 INTER-LIGAND FREE ENERGY PREDICTED BY IDOCK:   -6.92 KCAL/MOL
REMARK 924 INTRA-LIGAND FREE ENERGY PREDICTED BY IDOCK:   -0.43 KCAL/MOL
REMARK 927      BINDING AFFINITY PREDICTED BY RF-SCORE:    0.00 PKD
ROOT
HETATM    1  C   UNL     1     -12.360  12.147  63.382  1.00  0.00    -0.538 C  
HETATM    2  N   UNL     1     -12.409  13.583  63.095  1.00  0.00    -1.024 N  
HETATM    3  H   UNL     1     -12.532  13.929  62.143  1.00  0.00     0.000 HD 
ENDROOT
BRANCH   2   4
HETATM    4  S   UNL     1     -12.256  14.644  64.400  1.00  0.00    -0.342 S  
HETATM    5  O   UNL     1     -13.101  14.144  65.462  1.00  0.00    -0.691 OA 
HETATM    6  O   UNL     1     -12.429  15.969  63.853  1.00  0.00    -0.806 OA 
BRANCH   4   7
HETATM    7  C   UNL     1     -10.544  14.417  64.841  1.00  0.00    -0.434 C  
BRANCH   7   8
HETATM    8  C   UNL     1     -10.294  14.791  66.295  1.00  0.00    -0.305 C  
BRANCH   8   9
HETATM    9  C   UNL     1      -9.224  13.951  66.966  1.00  0.00    -0.257 A  
HETATM   10  C   UNL     1      -9.073  12.601  66.586  1.00  0.00    -0.193 A  
HETATM   11  C   UNL     1      -8.122  11.775  67.229  1.00  0.00    -0.164 A  
HETATM   12  C   UNL     1      -7.326  12.355  68.216  1.00  0.00    -0.113 A  
HETATM   13  C   UNL     1      -7.453  13.681  68.626  1.00  0.00    -0.113 A  
HETATM   14  N   UNL     1      -6.462  11.393  68.666  1.00  0.00    -0.056 NA 
HETATM   15  C   UNL     1      -8.425  14.460  67.998  1.00  0.00    -0.164 A  
HETATM   16  H   UNL     1      -5.762  11.530  69.395  1.00  0.00     0.000 HD 
HETATM   17  C   UNL     1      -6.678  10.224  67.997  1.00  0.00    -0.066 A  
HETATM   18  C   UNL     1      -7.754  10.382  67.138  1.00  0.00    -0.100 A  
BRANCH  18  19
HETATM   19  C   UNL     1      -8.389   9.298  66.277  1.00  0.00    -0.124 C  
HETATM   20  C   UNL     1      -8.117   7.866  66.783  1.00  0.00    -0.108 C  
HETATM   21  C   UNL     1      -8.910   7.537  68.059  1.00  0.00    -0.127 C  
HETATM   22  N   UNL     1     -10.354   7.772  67.955  1.00  0.00    -0.211 NA 
HETATM   23  C   UNL     1     -10.647   9.113  67.430  1.00  0.00    -0.244 C  
HETATM   24  C   UNL     1     -11.031   6.715  67.213  1.00  0.00    -0.385 C  
HETATM   25  C   UNL     1      -9.913   9.447  66.128  1.00  0.00    -0.351 C  
ENDBRANCH  18  19
ENDBRANCH   8   9
ENDBRANCH   7   8
ENDBRANCH   4   7
ENDBRANCH   2   4
TORSDOF 5
ENDMDL
MODEL       69
REMARK 921   NORMALIZED FREE ENERGY PREDICTED BY IDOCK:   -5.41 KCAL/MOL
REMARK 922        TOTAL FREE ENERGY PREDICTED BY IDOCK:   -7.33 KCAL/MOL
REMARK 923 INTER-LIGAND FREE ENERGY PREDICTED BY IDOCK:   -7.06 KCAL/MOL
REMARK 924 INTRA-LIGAND FREE ENERGY PREDICTED BY IDOCK:   -0.27 KCAL/MOL
REMARK 927      BINDING AFFINITY PREDICTED BY RF-SCORE:    0.00 PKD
ROOT
HETATM    1  C   UNL     1     -11.640  15.527  67.775  1.00  0.00    -0.187 C  
HETATM    2  N   UNL     1     -12.386  14.285  67.560  1.00  0.00    -0.587 N  
HETATM    3  H   UNL     1     -13.314  14.148  67.961  1.00  0.00     0.000 HD 
ENDROOT
BRANCH   2   4
HETATM    4  S   UNL     1     -11.652  13.088  66.623  1.00  0.00    -0.377 S  
HETATM    5  O   UNL     1     -10.319  13.549  66.302  1.00  0.00    -0.281 OA 
HETATM    6  O   UNL     1     -12.607  12.752  65.593  1.00  0.00    -0.596 OA 
BRANCH   4   7
HETATM    7  C   UNL     1     -11.553  11.740  67.785  1.00  0.00    -0.304 C  
BRANCH   7   8
HETATM    8  C   UNL     1     -11.670  12.236  69.219  1.00  0.00    -0.388 C  
BRANCH   8   9
HETATM    9  C   UNL     1     -11.875  11.128  70.233  1.00  0.00    -0.455 A  
HETATM   10  C   UNL     1     -10.973  10.044  70.257  1.00  0.00    -0.377 A  
HETATM   11  C   UNL     1     -11.165   8.967  71.154  1.00  0.00    -0.375 A  
HETATM   12  C   UNL     1     -12.249   9.041  72.028  1.00  0.00    -0.375 A  
HETATM   13  C   UNL     1     -13.167  10.090  72.027  1.00  0.00    -0.545 A  
HETATM   14  N   UNL     1     -12.217   7.926  72.820  1.00  0.00    -0.606 NA 
HETATM   15  C   UNL     1     -12.971  11.119  71.105  1.00  0.00    -0.393 A  
HETATM   16  H   UNL     1     -12.892   7.707  73.552  1.00  0.00     0.000 HD 
HETATM   17  C   UNL     1     -11.147   7.147  72.484  1.00  0.00    -0.280 A  
HETATM   18  C   UNL     1     -10.496   7.712  71.399  1.00  0.00    -0.230 A  
BRANCH  18  19
HETATM   19  C   UNL     1      -9.313   7.117  70.646  1.00  0.00    -0.158 C  
HETATM   20  C   UNL     1      -8.231   8.153  70.276  1.00  0.00    -0.122 C  
HETATM   21  C   UNL     1      -7.421   8.614  71.498  1.00  0.00    -0.101 C  
HETATM   22  N   UNL     1      -6.833   7.524  72.285  1.00  0.00    -0.058 NA 
HETATM   23  C   UNL     1      -7.829   6.497  72.614  1.00  0.00    -0.103 C  
HETATM   24  C   UNL     1      -5.640   6.973  71.654  1.00  0.00    -0.036 C  
HETATM   25  C   UNL     1      -8.613   5.977  71.406  1.00  0.00    -0.129 C  
ENDBRANCH  18  19
ENDBRANCH   8   9
ENDBRANCH   7   8
ENDBRANCH   4   7
ENDBRANCH   2   4
TORSDOF 5
ENDMDL
MODEL       70
REMARK 921   NORMALIZED FREE ENERGY PREDICTED BY IDOCK:   -5.39 KCAL/MOL
REMARK 922        TOTAL FREE ENERGY PREDICTED BY IDOCK:   -7.31 KCAL/MOL
REMARK 923 INTER-LIGAND FREE ENERGY PREDICTED BY IDOCK:   -7.12 KCAL/MOL
REMARK 924 INTRA-LIGAND FREE ENERGY PREDICTED BY IDOCK:   -0.19 KCAL/MOL
REMARK 927      BINDING AFFINITY PREDICTED BY RF-SCORE:    0.00 PKD
ROOT
HETATM    1  C   UNL     1     -10.334  12.069  63.337  1.00  0.00    -0.434 C  
HETATM    2  N   UNL     1     -10.892  11.021  64.197  1.00  0.00    -0.429 N  
HETATM    3  H   UNL     1     -11.754  10.535  63.948  1.00  0.00     0.000 HD 
ENDROOT
BRANCH   2   4
HETATM    4  S   UNL     1     -10.054  10.650  65.615  1.00  0.00    -0.268 S  
HETATM    5  O   UNL     1      -8.821  11.405  65.596  1.00  0.00    -0.174 OA 
HETATM    6  O   UNL     1     -10.061   9.209  65.711  1.00  0.00    -0.229 OA 
BRANCH   4   7
HETATM    7  C   UNL     1     -11.145  11.319  66.856  1.00  0.00    -0.275 C  
BRANCH   7   8
HETATM    8  C   UNL     1     -11.818  12.595  66.371  1.00  0.00    -0.466 C  
BRANCH   8   9
HETATM    9  C   UNL     1     -11.613  13.781  67.292  1.00  0.00    -0.391 A  
HETATM   10  C   UNL     1     -10.961  14.930  66.797  1.00  0.00    -0.326 A  
HETATM   11  C   UNL     1     -10.706  16.034  67.644  1.00  0.00    -0.320 A  
HETATM   12  C   UNL     1     -11.154  15.953  68.962  1.00  0.00    -0.294 A  
HETATM   13  C   UNL     1     -11.791  14.832  69.490  1.00  0.00    -0.366 A  
HETATM   14  N   UNL     1     -10.837  17.133  69.578  1.00  0.00    -0.345 NA 
HETATM   15  C   UNL     1     -11.996  13.745  68.639  1.00  0.00    -0.401 A  
HETATM   16  H   UNL     1     -11.040  17.359  70.552  1.00  0.00     0.000 HD 
HETATM   17  C   UNL     1     -10.209  17.965  68.697  1.00  0.00    -0.385 A  
HETATM   18  C   UNL     1     -10.033  17.302  67.492  1.00  0.00    -0.296 A  
BRANCH  18  19
HETATM   19  C   UNL     1      -9.290  17.829  66.272  1.00  0.00    -0.219 C  
HETATM   20  C   UNL     1      -9.104  19.361  66.274  1.00  0.00    -0.380 C  
HETATM   21  C   UNL     1      -8.059  19.821  67.303  1.00  0.00    -0.292 C  
HETATM   22  N   UNL     1      -6.758  19.152  67.189  1.00  0.00    -0.197 NA 
HETATM   23  C   UNL     1      -6.904  17.692  67.137  1.00  0.00    -0.165 C  
HETATM   24  C   UNL     1      -5.963  19.681  66.087  1.00  0.00    -0.167 C  
HETATM   25  C   UNL     1      -7.899  17.202  66.081  1.00  0.00    -0.303 C  
ENDBRANCH  18  19
ENDBRANCH   8   9
ENDBRANCH   7   8
ENDBRANCH   4   7
ENDBRANCH   2   4
TORSDOF 5
ENDMDL
MODEL       71
REMARK 921   NORMALIZED FREE ENERGY PREDICTED BY IDOCK:   -5.37 KCAL/MOL
REMARK 922        TOTAL FREE ENERGY PREDICTED BY IDOCK:   -7.28 KCAL/MOL
REMARK 923 INTER-LIGAND FREE ENERGY PREDICTED BY IDOCK:   -6.94 KCAL/MOL
REMARK 924 INTRA-LIGAND FREE ENERGY PREDICTED BY IDOCK:   -0.34 KCAL/MOL
REMARK 927      BINDING AFFINITY PREDICTED BY RF-SCORE:    0.00 PKD
ROOT
HETATM    1  C   UNL     1     -11.528  16.209  69.049  1.00  0.00    -0.323 C  
HETATM    2  N   UNL     1     -11.659  16.544  70.469  1.00  0.00    -0.455 N  
HETATM    3  H   UNL     1     -11.216  17.376  70.859  1.00  0.00     0.000 HD 
ENDROOT
BRANCH   2   4
HETATM    4  S   UNL     1     -12.569  15.501  71.435  1.00  0.00    -0.461 S  
HETATM    5  O   UNL     1     -13.962  15.833  71.232  1.00  0.00    -0.526 OA 
HETATM    6  O   UNL     1     -11.962  15.544  72.744  1.00  0.00    -0.397 OA 
BRANCH   4   7
HETATM    7  C   UNL     1     -12.217  13.924  70.683  1.00  0.00    -0.373 C  
BRANCH   7   8
HETATM    8  C   UNL     1     -12.988  12.802  71.364  1.00  0.00    -0.359 C  
BRANCH   8   9
HETATM    9  C   UNL     1     -12.503  11.414  70.991  1.00  0.00    -0.486 A  
HETATM   10  C   UNL     1     -11.666  11.259  69.866  1.00  0.00    -0.430 A  
HETATM   11  C   UNL     1     -11.239   9.974  69.458  1.00  0.00    -0.254 A  
HETATM   12  C   UNL     1     -11.646   8.885  70.228  1.00  0.00    -0.033 A  
HETATM   13  C   UNL     1     -12.481   8.997  71.338  1.00  0.00    -0.378 A  
HETATM   14  N   UNL     1     -11.091   7.761  69.678  1.00  0.00    -0.439 NA 
HETATM   15  C   UNL     1     -12.915  10.275  71.694  1.00  0.00    -0.570 A  
HETATM   16  H   UNL     1     -11.219   6.812  70.029  1.00  0.00     0.000 HD 
HETATM   17  C   UNL     1     -10.341   8.098  68.589  1.00  0.00    -0.200 A  
HETATM   18  C   UNL     1     -10.457   9.460  68.360  1.00  0.00    -0.256 A  
BRANCH  18  19
HETATM   19  C   UNL     1      -9.862  10.232  67.190  1.00  0.00    -0.228 C  
HETATM   20  C   UNL     1      -9.221  11.576  67.597  1.00  0.00    -0.171 C  
HETATM   21  C   UNL     1      -7.894  11.386  68.350  1.00  0.00    -0.135 C  
HETATM   22  N   UNL     1      -6.913  10.548  67.652  1.00  0.00    -0.078 NA 
HETATM   23  C   UNL     1      -7.506   9.278  67.209  1.00  0.00    -0.091 C  
HETATM   24  C   UNL     1      -6.245  11.266  66.574  1.00  0.00    -0.130 C  
HETATM   25  C   UNL     1      -8.800   9.440  66.408  1.00  0.00    -0.167 C  
ENDBRANCH  18  19
ENDBRANCH   8   9
ENDBRANCH   7   8
ENDBRANCH   4   7
ENDBRANCH   2   4
TORSDOF 5
ENDMDL
MODEL       72
REMARK 921   NORMALIZED FREE ENERGY PREDICTED BY IDOCK:   -5.34 KCAL/MOL
REMARK 922        TOTAL FREE ENERGY PREDICTED BY IDOCK:   -7.24 KCAL/MOL
REMARK 923 INTER-LIGAND FREE ENERGY PREDICTED BY IDOCK:   -6.98 KCAL/MOL
REMARK 924 INTRA-LIGAND FREE ENERGY PREDICTED BY IDOCK:   -0.26 KCAL/MOL
REMARK 927      BINDING AFFINITY PREDICTED BY RF-SCORE:    0.00 PKD
ROOT
HETATM    1  C   UNL     1      -8.752  18.941  67.723  1.00  0.00    -0.292 C  
HETATM    2  N   UNL     1      -8.645  17.652  67.035  1.00  0.00    -0.231 N  
HETATM    3  H   UNL     1      -7.739  17.208  66.880  1.00  0.00     0.000 HD 
ENDROOT
BRANCH   2   4
HETATM    4  S   UNL     1     -10.077  16.928  66.508  1.00  0.00    -0.325 S  
HETATM    5  O   UNL     1     -10.597  17.739  65.429  1.00  0.00    -0.659 OA 
HETATM    6  O   UNL     1     -10.848  16.667  67.701  1.00  0.00    -0.324 OA 
BRANCH   4   7
HETATM    7  C   UNL     1      -9.474  15.383  65.856  1.00  0.00    -0.334 C  
BRANCH   7   8
HETATM    8  C   UNL     1     -10.571  14.627  65.121  1.00  0.00    -0.441 C  
BRANCH   8   9
HETATM    9  C   UNL     1     -10.456  13.120  65.235  1.00  0.00    -0.319 A  
HETATM   10  C   UNL     1     -10.394  12.532  66.516  1.00  0.00    -0.254 A  
HETATM   11  C   UNL     1     -10.233  11.134  66.659  1.00  0.00    -0.274 A  
HETATM   12  C   UNL     1     -10.176  10.369  65.495  1.00  0.00    -0.246 A  
HETATM   13  C   UNL     1     -10.223  10.914  64.213  1.00  0.00    -0.430 A  
HETATM   14  N   UNL     1     -10.059   9.057  65.869  1.00  0.00    -0.394 NA 
HETATM   15  C   UNL     1     -10.346  12.300  64.105  1.00  0.00    -0.396 A  
HETATM   16  H   UNL     1      -9.991   8.269  65.226  1.00  0.00     0.000 HD 
HETATM   17  C   UNL     1     -10.045   8.961  67.230  1.00  0.00    -0.239 A  
HETATM   18  C   UNL     1     -10.076  10.234  67.776  1.00  0.00    -0.213 A  
BRANCH  18  19
HETATM   19  C   UNL     1      -9.976  10.584  69.255  1.00  0.00    -0.233 C  
HETATM   20  C   UNL     1     -11.249  11.247  69.823  1.00  0.00    -0.294 C  
HETATM   21  C   UNL     1     -12.408  10.248  69.977  1.00  0.00    -0.090 C  
HETATM   22  N   UNL     1     -12.076   9.045  70.748  1.00  0.00    -0.191 NA 
HETATM   23  C   UNL     1     -10.840   8.416  70.262  1.00  0.00    -0.239 C  
HETATM   24  C   UNL     1     -12.053   9.301  72.183  1.00  0.00    -0.283 C  
HETATM   25  C   UNL     1      -9.653   9.377  70.152  1.00  0.00    -0.275 C  
ENDBRANCH  18  19
ENDBRANCH   8   9
ENDBRANCH   7   8
ENDBRANCH   4   7
ENDBRANCH   2   4
TORSDOF 5
ENDMDL
MODEL       73
REMARK 921   NORMALIZED FREE ENERGY PREDICTED BY IDOCK:   -5.33 KCAL/MOL
REMARK 922        TOTAL FREE ENERGY PREDICTED BY IDOCK:   -7.23 KCAL/MOL
REMARK 923 INTER-LIGAND FREE ENERGY PREDICTED BY IDOCK:   -6.81 KCAL/MOL
REMARK 924 INTRA-LIGAND FREE ENERGY PREDICTED BY IDOCK:   -0.42 KCAL/MOL
REMARK 927      BINDING AFFINITY PREDICTED BY RF-SCORE:    0.00 PKD
ROOT
HETATM    1  C   UNL     1     -10.701  19.411  67.029  1.00  0.00    -0.474 C  
HETATM    2  N   UNL     1      -9.727  20.505  67.068  1.00  0.00    -0.574 N  
HETATM    3  H   UNL     1     -10.026  21.477  67.152  1.00  0.00     0.000 HD 
ENDROOT
BRANCH   2   4
HETATM    4  S   UNL     1      -8.092  20.097  66.969  1.00  0.00    -0.325 S  
HETATM    5  O   UNL     1      -7.333  21.266  67.352  1.00  0.00    -0.484 OA 
HETATM    6  O   UNL     1      -7.920  19.469  65.680  1.00  0.00    -0.422 OA 
BRANCH   4   7
HETATM    7  C   UNL     1      -7.960  18.856  68.242  1.00  0.00    -0.310 C  
BRANCH   7   8
HETATM    8  C   UNL     1      -6.788  17.920  67.982  1.00  0.00    -0.197 C  
BRANCH   8   9
HETATM    9  C   UNL     1      -7.096  16.463  68.266  1.00  0.00    -0.143 A  
HETATM   10  C   UNL     1      -8.289  15.903  67.763  1.00  0.00    -0.159 A  
HETATM   11  C   UNL     1      -8.634  14.562  68.054  1.00  0.00    -0.162 A  
HETATM   12  C   UNL     1      -7.737  13.817  68.818  1.00  0.00    -0.080 A  
HETATM   13  C   UNL     1      -6.554  14.338  69.342  1.00  0.00    -0.132 A  
HETATM   14  N   UNL     1      -8.249  12.554  68.940  1.00  0.00    -0.340 NA 
HETATM   15  C   UNL     1      -6.261  15.674  69.067  1.00  0.00    -0.113 A  
HETATM   16  H   UNL     1      -7.809  11.790  69.452  1.00  0.00     0.000 HD 
HETATM   17  C   UNL     1      -9.438  12.468  68.275  1.00  0.00    -0.201 A  
HETATM   18  C   UNL     1      -9.765  13.714  67.764  1.00  0.00    -0.225 A  
BRANCH  18  19
HETATM   19  C   UNL     1     -11.052  14.083  67.040  1.00  0.00    -0.312 C  
HETATM   20  C   UNL     1     -10.824  14.879  65.737  1.00  0.00    -0.343 C  
HETATM   21  C   UNL     1     -10.257  14.002  64.609  1.00  0.00    -0.210 C  
HETATM   22  N   UNL     1     -11.033  12.788  64.332  1.00  0.00    -0.338 NA 
HETATM   23  C   UNL     1     -11.308  12.032  65.561  1.00  0.00    -0.328 C  
HETATM   24  C   UNL     1     -12.237  13.070  63.561  1.00  0.00    -0.501 C  
HETATM   25  C   UNL     1     -11.927  12.868  66.684  1.00  0.00    -0.436 C  
ENDBRANCH  18  19
ENDBRANCH   8   9
ENDBRANCH   7   8
ENDBRANCH   4   7
ENDBRANCH   2   4
TORSDOF 5
ENDMDL
MODEL       74
REMARK 921   NORMALIZED FREE ENERGY PREDICTED BY IDOCK:   -5.32 KCAL/MOL
REMARK 922        TOTAL FREE ENERGY PREDICTED BY IDOCK:   -7.22 KCAL/MOL
REMARK 923 INTER-LIGAND FREE ENERGY PREDICTED BY IDOCK:   -6.70 KCAL/MOL
REMARK 924 INTRA-LIGAND FREE ENERGY PREDICTED BY IDOCK:   -0.51 KCAL/MOL
REMARK 927      BINDING AFFINITY PREDICTED BY RF-SCORE:    0.00 PKD
ROOT
HETATM    1  C   UNL     1     -12.204  15.511  71.456  1.00  0.00    -0.397 C  
HETATM    2  N   UNL     1     -11.219  14.669  70.772  1.00  0.00    -0.509 N  
HETATM    3  H   UNL     1     -10.745  13.907  71.258  1.00  0.00     0.000 HD 
ENDROOT
BRANCH   2   4
HETATM    4  S   UNL     1     -10.897  15.008  69.149  1.00  0.00    -0.262 S  
HETATM    5  O   UNL     1      -9.592  14.462  68.847  1.00  0.00    -0.198 OA 
HETATM    6  O   UNL     1     -11.192  16.410  68.972  1.00  0.00    -0.325 OA 
BRANCH   4   7
HETATM    7  C   UNL     1     -12.152  14.042  68.331  1.00  0.00    -0.283 C  
BRANCH   7   8
HETATM    8  C   UNL     1     -11.876  13.927  66.839  1.00  0.00    -0.453 C  
BRANCH   8   9
HETATM    9  C   UNL     1     -11.288  12.591  66.428  1.00  0.00    -0.379 A  
HETATM   10  C   UNL     1     -11.279  11.530  67.358  1.00  0.00    -0.367 A  
HETATM   11  C   UNL     1     -10.691  10.287  67.027  1.00  0.00    -0.281 A  
HETATM   12  C   UNL     1     -10.160  10.146  65.745  1.00  0.00    -0.254 A  
HETATM   13  C   UNL     1     -10.141  11.174  64.803  1.00  0.00    -0.351 A  
HETATM   14  N   UNL     1      -9.686   8.867  65.634  1.00  0.00    -0.470 NA 
HETATM   15  C   UNL     1     -10.696  12.399  65.173  1.00  0.00    -0.327 A  
HETATM   16  H   UNL     1      -9.238   8.479  64.804  1.00  0.00     0.000 HD 
HETATM   17  C   UNL     1      -9.901   8.188  66.798  1.00  0.00    -0.259 A  
HETATM   18  C   UNL     1     -10.460   9.049  67.730  1.00  0.00    -0.305 A  
BRANCH  18  19
HETATM   19  C   UNL     1     -10.767   8.725  69.186  1.00  0.00    -0.150 C  
HETATM   20  C   UNL     1     -10.366   7.295  69.601  1.00  0.00    -0.227 C  
HETATM   21  C   UNL     1      -8.842   7.128  69.724  1.00  0.00    -0.142 C  
HETATM   22  N   UNL     1      -8.191   8.111  70.596  1.00  0.00    -0.110 NA 
HETATM   23  C   UNL     1      -8.591   9.483  70.256  1.00  0.00    -0.226 C  
HETATM   24  C   UNL     1      -8.378   7.801  72.009  1.00  0.00    -0.115 C  
HETATM   25  C   UNL     1     -10.106   9.692  70.183  1.00  0.00    -0.311 C  
ENDBRANCH  18  19
ENDBRANCH   8   9
ENDBRANCH   7   8
ENDBRANCH   4   7
ENDBRANCH   2   4
TORSDOF 5
ENDMDL
MODEL       75
REMARK 921   NORMALIZED FREE ENERGY PREDICTED BY IDOCK:   -5.32 KCAL/MOL
REMARK 922        TOTAL FREE ENERGY PREDICTED BY IDOCK:   -7.21 KCAL/MOL
REMARK 923 INTER-LIGAND FREE ENERGY PREDICTED BY IDOCK:   -6.78 KCAL/MOL
REMARK 924 INTRA-LIGAND FREE ENERGY PREDICTED BY IDOCK:   -0.43 KCAL/MOL
REMARK 927      BINDING AFFINITY PREDICTED BY RF-SCORE:    0.00 PKD
ROOT
HETATM    1  C   UNL     1      -7.861   8.625  71.211  1.00  0.00    -0.128 C  
HETATM    2  N   UNL     1      -8.421   8.853  69.876  1.00  0.00    -0.127 N  
HETATM    3  H   UNL     1      -7.842   9.204  69.113  1.00  0.00     0.000 HD 
ENDROOT
BRANCH   2   4
HETATM    4  S   UNL     1     -10.059   8.514  69.650  1.00  0.00    -0.207 S  
HETATM    5  O   UNL     1     -10.756   9.780  69.590  1.00  0.00    -0.216 OA 
HETATM    6  O   UNL     1     -10.393   7.509  70.632  1.00  0.00    -0.206 OA 
BRANCH   4   7
HETATM    7  C   UNL     1     -10.044   7.764  68.033  1.00  0.00    -0.186 C  
BRANCH   7   8
HETATM    8  C   UNL     1      -8.796   8.154  67.254  1.00  0.00    -0.136 C  
BRANCH   8   9
HETATM    9  C   UNL     1      -9.079   9.018  66.041  1.00  0.00    -0.257 A  
HETATM   10  C   UNL     1      -9.979  10.098  66.163  1.00  0.00    -0.310 A  
HETATM   11  C   UNL     1     -10.307  10.892  65.039  1.00  0.00    -0.356 A  
HETATM   12  C   UNL     1      -9.683  10.588  63.830  1.00  0.00    -0.325 A  
HETATM   13  C   UNL     1      -8.798   9.523  63.668  1.00  0.00    -0.236 A  
HETATM   14  N   UNL     1     -10.115  11.498  62.903  1.00  0.00    -0.636 NA 
HETATM   15  C   UNL     1      -8.523   8.736  64.787  1.00  0.00    -0.179 A  
HETATM   16  H   UNL     1      -9.828  11.518  61.925  1.00  0.00     0.000 HD 
HETATM   17  C   UNL     1     -10.987  12.373  63.482  1.00  0.00    -0.450 A  
HETATM   18  C   UNL     1     -11.203  11.998  64.798  1.00  0.00    -0.373 A  
BRANCH  18  19
HETATM   19  C   UNL     1     -12.179  12.643  65.773  1.00  0.00    -0.427 C  
HETATM   20  C   UNL     1     -11.808  12.429  67.255  1.00  0.00    -0.357 C  
HETATM   21  C   UNL     1     -10.590  13.266  67.678  1.00  0.00    -0.236 C  
HETATM   22  N   UNL     1     -10.704  14.699  67.386  1.00  0.00    -0.276 NA 
HETATM   23  C   UNL     1     -11.103  14.935  65.993  1.00  0.00    -0.334 C  
HETATM   24  C   UNL     1     -11.560  15.388  68.344  1.00  0.00    -0.354 C  
HETATM   25  C   UNL     1     -12.349  14.157  65.560  1.00  0.00    -0.472 C  
ENDBRANCH  18  19
ENDBRANCH   8   9
ENDBRANCH   7   8
ENDBRANCH   4   7
ENDBRANCH   2   4
TORSDOF 5
ENDMDL
MODEL       76
REMARK 921   NORMALIZED FREE ENERGY PREDICTED BY IDOCK:   -5.30 KCAL/MOL
REMARK 922        TOTAL FREE ENERGY PREDICTED BY IDOCK:   -7.19 KCAL/MOL
REMARK 923 INTER-LIGAND FREE ENERGY PREDICTED BY IDOCK:   -6.97 KCAL/MOL
REMARK 924 INTRA-LIGAND FREE ENERGY PREDICTED BY IDOCK:   -0.22 KCAL/MOL
REMARK 927      BINDING AFFINITY PREDICTED BY RF-SCORE:    0.00 PKD
ROOT
HETATM    1  C   UNL     1     -10.185  19.698  68.084  1.00  0.00    -0.461 C  
HETATM    2  N   UNL     1     -10.682  19.393  66.740  1.00  0.00    -0.460 N  
HETATM    3  H   UNL     1     -11.329  20.020  66.260  1.00  0.00     0.000 HD 
ENDROOT
BRANCH   2   4
HETATM    4  S   UNL     1     -10.144  17.967  66.015  1.00  0.00    -0.191 S  
HETATM    5  O   UNL     1      -8.702  18.043  65.933  1.00  0.00    -0.506 OA 
HETATM    6  O   UNL     1     -10.962  17.789  64.838  1.00  0.00    -0.866 OA 
BRANCH   4   7
HETATM    7  C   UNL     1     -10.609  16.753  67.235  1.00  0.00    -0.275 C  
BRANCH   7   8
HETATM    8  C   UNL     1     -10.447  15.338  66.697  1.00  0.00    -0.290 C  
BRANCH   8   9
HETATM    9  C   UNL     1     -10.862  14.260  67.679  1.00  0.00    -0.273 A  
HETATM   10  C   UNL     1     -10.621  12.909  67.356  1.00  0.00    -0.242 A  
HETATM   11  C   UNL     1     -11.043  11.874  68.224  1.00  0.00    -0.289 A  
HETATM   12  C   UNL     1     -11.667  12.247  69.414  1.00  0.00    -0.330 A  
HETATM   13  C   UNL     1     -11.932  13.570  69.763  1.00  0.00    -0.405 A  
HETATM   14  N   UNL     1     -11.950  11.100  70.107  1.00  0.00    -0.334 NA 
HETATM   15  C   UNL     1     -11.536  14.565  68.868  1.00  0.00    -0.327 A  
HETATM   16  H   UNL     1     -12.412  11.064  71.015  1.00  0.00     0.000 HD 
HETATM   17  C   UNL     1     -11.524  10.013  69.401  1.00  0.00    -0.083 A  
HETATM   18  C   UNL     1     -11.016  10.432  68.182  1.00  0.00    -0.334 A  
BRANCH  18  19
HETATM   19  C   UNL     1     -10.524   9.537  67.053  1.00  0.00    -0.302 C  
HETATM   20  C   UNL     1      -9.064   9.811  66.635  1.00  0.00    -0.174 C  
HETATM   21  C   UNL     1      -8.054   9.311  67.681  1.00  0.00    -0.104 C  
HETATM   22  N   UNL     1      -8.217   7.904  68.060  1.00  0.00    -0.125 NA 
HETATM   23  C   UNL     1      -9.609   7.599  68.419  1.00  0.00    -0.151 C  
HETATM   24  C   UNL     1      -7.681   6.997  67.052  1.00  0.00    -0.107 C  
HETATM   25  C   UNL     1     -10.633   8.035  67.368  1.00  0.00    -0.337 C  
ENDBRANCH  18  19
ENDBRANCH   8   9
ENDBRANCH   7   8
ENDBRANCH   4   7
ENDBRANCH   2   4
TORSDOF 5
ENDMDL
MODEL       77
REMARK 921   NORMALIZED FREE ENERGY PREDICTED BY IDOCK:   -5.28 KCAL/MOL
REMARK 922        TOTAL FREE ENERGY PREDICTED BY IDOCK:   -7.16 KCAL/MOL
REMARK 923 INTER-LIGAND FREE ENERGY PREDICTED BY IDOCK:   -6.97 KCAL/MOL
REMARK 924 INTRA-LIGAND FREE ENERGY PREDICTED BY IDOCK:   -0.19 KCAL/MOL
REMARK 927      BINDING AFFINITY PREDICTED BY RF-SCORE:    0.00 PKD
ROOT
HETATM    1  C   UNL     1     -12.670  10.844  71.126  1.00  0.00    -0.429 C  
HETATM    2  N   UNL     1     -12.747   9.523  70.498  1.00  0.00    -0.497 N  
HETATM    3  H   UNL     1     -13.169   9.399  69.577  1.00  0.00     0.000 HD 
ENDROOT
BRANCH   2   4
HETATM    4  S   UNL     1     -12.111   8.214  71.354  1.00  0.00    -0.295 S  
HETATM    5  O   UNL     1     -12.956   7.072  71.084  1.00  0.00    -0.360 OA 
HETATM    6  O   UNL     1     -11.889   8.693  72.699  1.00  0.00    -0.334 OA 
BRANCH   4   7
HETATM    7  C   UNL     1     -10.536   7.996  70.549  1.00  0.00    -0.220 C  
BRANCH   7   8
HETATM    8  C   UNL     1     -10.636   7.003  69.400  1.00  0.00    -0.248 C  
BRANCH   8   9
HETATM    9  C   UNL     1     -10.166   7.559  68.070  1.00  0.00    -0.239 A  
HETATM   10  C   UNL     1     -10.543   8.867  67.701  1.00  0.00    -0.292 A  
HETATM   11  C   UNL     1     -10.168   9.398  66.445  1.00  0.00    -0.300 A  
HETATM   12  C   UNL     1      -9.388   8.595  65.613  1.00  0.00    -0.103 A  
HETATM   13  C   UNL     1      -9.005   7.295  65.937  1.00  0.00    -0.103 A  
HETATM   14  N   UNL     1      -9.115   9.317  64.483  1.00  0.00    -0.421 NA 
HETATM   15  C   UNL     1      -9.422   6.787  67.168  1.00  0.00    -0.167 A  
HETATM   16  H   UNL     1      -8.564   8.982  63.693  1.00  0.00     0.000 HD 
HETATM   17  C   UNL     1      -9.688  10.552  64.569  1.00  0.00    -0.314 A  
HETATM   18  C   UNL     1     -10.422  10.632  65.742  1.00  0.00    -0.235 A  
BRANCH  18  19
HETATM   19  C   UNL     1     -11.298  11.798  66.181  1.00  0.00    -0.342 C  
HETATM   20  C   UNL     1     -10.512  12.944  66.854  1.00  0.00    -0.252 C  
HETATM   21  C   UNL     1      -9.675  13.748  65.847  1.00  0.00    -0.196 C  
HETATM   22  N   UNL     1     -10.431  14.259  64.698  1.00  0.00    -0.388 NA 
HETATM   23  C   UNL     1     -11.228  13.200  64.063  1.00  0.00    -0.379 C  
HETATM   24  C   UNL     1     -11.223  15.434  65.039  1.00  0.00    -0.387 C  
HETATM   25  C   UNL     1     -12.115  12.419  65.035  1.00  0.00    -0.468 C  
ENDBRANCH  18  19
ENDBRANCH   8   9
ENDBRANCH   7   8
ENDBRANCH   4   7
ENDBRANCH   2   4
TORSDOF 5
ENDMDL
MODEL       78
REMARK 921   NORMALIZED FREE ENERGY PREDICTED BY IDOCK:   -5.26 KCAL/MOL
REMARK 922        TOTAL FREE ENERGY PREDICTED BY IDOCK:   -7.15 KCAL/MOL
REMARK 923 INTER-LIGAND FREE ENERGY PREDICTED BY IDOCK:   -6.60 KCAL/MOL
REMARK 924 INTRA-LIGAND FREE ENERGY PREDICTED BY IDOCK:   -0.55 KCAL/MOL
REMARK 927      BINDING AFFINITY PREDICTED BY RF-SCORE:    0.00 PKD
ROOT
HETATM    1  C   UNL     1     -10.197  11.860  63.874  1.00  0.00    -0.389 C  
HETATM    2  N   UNL     1     -10.380  10.431  64.142  1.00  0.00    -0.413 N  
HETATM    3  H   UNL     1     -11.233   9.946  63.862  1.00  0.00     0.000 HD 
ENDROOT
BRANCH   2   4
HETATM    4  S   UNL     1      -9.127   9.619  64.929  1.00  0.00    -0.229 S  
HETATM    5  O   UNL     1      -8.272   9.054  63.907  1.00  0.00    -0.155 OA 
HETATM    6  O   UNL     1      -9.759   8.793  65.931  1.00  0.00    -0.237 OA 
BRANCH   4   7
HETATM    7  C   UNL     1      -8.283  10.966  65.734  1.00  0.00    -0.113 C  
BRANCH   7   8
HETATM    8  C   UNL     1      -8.537  10.959  67.235  1.00  0.00    -0.128 C  
BRANCH   8   9
HETATM    9  C   UNL     1      -9.656  11.886  67.669  1.00  0.00    -0.185 A  
HETATM   10  C   UNL     1      -9.371  13.251  67.885  1.00  0.00    -0.214 A  
HETATM   11  C   UNL     1     -10.378  14.133  68.342  1.00  0.00    -0.249 A  
HETATM   12  C   UNL     1     -11.657  13.609  68.531  1.00  0.00    -0.335 A  
HETATM   13  C   UNL     1     -11.974  12.265  68.339  1.00  0.00    -0.266 A  
HETATM   14  N   UNL     1     -12.468  14.636  68.932  1.00  0.00    -0.574 NA 
HETATM   15  C   UNL     1     -10.949  11.413  67.923  1.00  0.00    -0.295 A  
HETATM   16  H   UNL     1     -13.460  14.548  69.149  1.00  0.00     0.000 HD 
HETATM   17  C   UNL     1     -11.752  15.796  68.998  1.00  0.00    -0.396 A  
HETATM   18  C   UNL     1     -10.423  15.527  68.712  1.00  0.00    -0.234 A  
BRANCH  18  19
HETATM   19  C   UNL     1      -9.268  16.518  68.771  1.00  0.00    -0.252 C  
HETATM   20  C   UNL     1      -8.244  16.346  67.630  1.00  0.00    -0.166 C  
HETATM   21  C   UNL     1      -8.793  16.826  66.276  1.00  0.00    -0.299 C  
HETATM   22  N   UNL     1      -9.318  18.195  66.283  1.00  0.00    -0.457 NA 
HETATM   23  C   UNL     1     -10.261  18.406  67.389  1.00  0.00    -0.372 C  
HETATM   24  C   UNL     1      -8.254  19.192  66.250  1.00  0.00    -0.300 C  
HETATM   25  C   UNL     1      -9.720  17.989  68.759  1.00  0.00    -0.336 C  
ENDBRANCH  18  19
ENDBRANCH   8   9
ENDBRANCH   7   8
ENDBRANCH   4   7
ENDBRANCH   2   4
TORSDOF 5
ENDMDL
MODEL       79
REMARK 921   NORMALIZED FREE ENERGY PREDICTED BY IDOCK:   -5.22 KCAL/MOL
REMARK 922        TOTAL FREE ENERGY PREDICTED BY IDOCK:   -7.08 KCAL/MOL
REMARK 923 INTER-LIGAND FREE ENERGY PREDICTED BY IDOCK:   -6.66 KCAL/MOL
REMARK 924 INTRA-LIGAND FREE ENERGY PREDICTED BY IDOCK:   -0.43 KCAL/MOL
REMARK 927      BINDING AFFINITY PREDICTED BY RF-SCORE:    0.00 PKD
ROOT
HETATM    1  C   UNL     1     -11.919  14.301  64.338  1.00  0.00    -0.456 C  
HETATM    2  N   UNL     1     -10.723  13.475  64.156  1.00  0.00    -0.562 N  
HETATM    3  H   UNL     1      -9.788  13.862  64.286  1.00  0.00     0.000 HD 
ENDROOT
BRANCH   2   4
HETATM    4  S   UNL     1     -10.950  11.858  63.726  1.00  0.00    -0.461 S  
HETATM    5  O   UNL     1      -9.833  11.475  62.890  1.00  0.00    -0.358 OA 
HETATM    6  O   UNL     1     -12.314  11.762  63.261  1.00  0.00    -0.518 OA 
BRANCH   4   7
HETATM    7  C   UNL     1     -10.816  11.048  65.308  1.00  0.00    -0.102 C  
BRANCH   7   8
HETATM    8  C   UNL     1      -9.364  10.767  65.664  1.00  0.00    -0.241 C  
BRANCH   8   9
HETATM    9  C   UNL     1      -8.771  11.764  66.641  1.00  0.00    -0.186 A  
HETATM   10  C   UNL     1      -9.620  12.700  67.266  1.00  0.00    -0.203 A  
HETATM   11  C   UNL     1      -9.093  13.679  68.142  1.00  0.00    -0.195 A  
HETATM   12  C   UNL     1      -7.720  13.654  68.384  1.00  0.00    -0.138 A  
HETATM   13  C   UNL     1      -6.848  12.752  67.777  1.00  0.00    -0.135 A  
HETATM   14  N   UNL     1      -7.442  14.652  69.279  1.00  0.00    -0.211 NA 
HETATM   15  C   UNL     1      -7.394  11.823  66.891  1.00  0.00    -0.104 A  
HETATM   16  H   UNL     1      -6.514  14.874  69.639  1.00  0.00     0.000 HD 
HETATM   17  C   UNL     1      -8.591  15.306  69.618  1.00  0.00    -0.104 A  
HETATM   18  C   UNL     1      -9.644  14.789  68.881  1.00  0.00    -0.210 A  
BRANCH  18  19
HETATM   19  C   UNL     1     -11.080  15.297  68.878  1.00  0.00    -0.269 C  
HETATM   20  C   UNL     1     -12.135  14.171  68.861  1.00  0.00    -0.339 C  
HETATM   21  C   UNL     1     -12.231  13.441  70.211  1.00  0.00    -0.335 C  
HETATM   22  N   UNL     1     -12.445  14.320  71.365  1.00  0.00    -0.344 NA 
HETATM   23  C   UNL     1     -11.484  15.431  71.384  1.00  0.00    -0.406 C  
HETATM   24  C   UNL     1     -13.829  14.768  71.465  1.00  0.00    -0.450 C  
HETATM   25  C   UNL     1     -11.409  16.213  70.070  1.00  0.00    -0.332 C  
ENDBRANCH  18  19
ENDBRANCH   8   9
ENDBRANCH   7   8
ENDBRANCH   4   7
ENDBRANCH   2   4
TORSDOF 5
ENDMDL
MODEL       80
REMARK 921   NORMALIZED FREE ENERGY PREDICTED BY IDOCK:   -5.20 KCAL/MOL
REMARK 922        TOTAL FREE ENERGY PREDICTED BY IDOCK:   -7.06 KCAL/MOL
REMARK 923 INTER-LIGAND FREE ENERGY PREDICTED BY IDOCK:   -6.62 KCAL/MOL
REMARK 924 INTRA-LIGAND FREE ENERGY PREDICTED BY IDOCK:   -0.45 KCAL/MOL
REMARK 927      BINDING AFFINITY PREDICTED BY RF-SCORE:    0.00 PKD
ROOT
HETATM    1  C   UNL     1      -9.663  20.258  66.955  1.00  0.00    -0.444 C  
HETATM    2  N   UNL     1     -10.094  19.524  65.762  1.00  0.00    -0.325 N  
HETATM    3  H   UNL     1     -10.365  20.014  64.909  1.00  0.00     0.000 HD 
ENDROOT
BRANCH   2   4
HETATM    4  S   UNL     1     -10.125  17.839  65.853  1.00  0.00    -0.088 S  
HETATM    5  O   UNL     1      -8.754  17.388  65.940  1.00  0.00    -0.522 OA 
HETATM    6  O   UNL     1     -11.001  17.403  64.791  1.00  0.00    -0.964 OA 
BRANCH   4   7
HETATM    7  C   UNL     1     -10.938  17.584  67.418  1.00  0.00    -0.050 C  
BRANCH   7   8
HETATM    8  C   UNL     1     -10.050  16.812  68.383  1.00  0.00    -0.285 C  
BRANCH   8   9
HETATM    9  C   UNL     1     -10.627  15.477  68.809  1.00  0.00    -0.242 A  
HETATM   10  C   UNL     1      -9.948  14.292  68.454  1.00  0.00    -0.240 A  
HETATM   11  C   UNL     1     -10.485  13.027  68.788  1.00  0.00    -0.186 A  
HETATM   12  C   UNL     1     -11.680  13.003  69.507  1.00  0.00    -0.317 A  
HETATM   13  C   UNL     1     -12.384  14.151  69.867  1.00  0.00    -0.382 A  
HETATM   14  N   UNL     1     -11.988  11.692  69.751  1.00  0.00    -0.327 NA 
HETATM   15  C   UNL     1     -11.847  15.382  69.490  1.00  0.00    -0.370 A  
HETATM   16  H   UNL     1     -12.813  11.368  70.256  1.00  0.00     0.000 HD 
HETATM   17  C   UNL     1     -11.029  10.881  69.217  1.00  0.00    -0.244 A  
HETATM   18  C   UNL     1     -10.103  11.658  68.538  1.00  0.00    -0.210 A  
BRANCH  18  19
HETATM   19  C   UNL     1      -8.927  11.148  67.717  1.00  0.00    -0.139 C  
HETATM   20  C   UNL     1      -8.954   9.624  67.475  1.00  0.00    -0.136 C  
HETATM   21  C   UNL     1     -10.038   9.213  66.465  1.00  0.00    -0.287 C  
HETATM   22  N   UNL     1      -9.982   9.929  65.186  1.00  0.00    -0.292 NA 
HETATM   23  C   UNL     1      -9.907  11.382  65.384  1.00  0.00    -0.236 C  
HETATM   24  C   UNL     1      -8.926   9.421  64.319  1.00  0.00    -0.160 C  
HETATM   25  C   UNL     1      -8.798  11.825  66.342  1.00  0.00    -0.170 C  
ENDBRANCH  18  19
ENDBRANCH   8   9
ENDBRANCH   7   8
ENDBRANCH   4   7
ENDBRANCH   2   4
TORSDOF 5
ENDMDL
MODEL       81
REMARK 921   NORMALIZED FREE ENERGY PREDICTED BY IDOCK:   -5.18 KCAL/MOL
REMARK 922        TOTAL FREE ENERGY PREDICTED BY IDOCK:   -7.04 KCAL/MOL
REMARK 923 INTER-LIGAND FREE ENERGY PREDICTED BY IDOCK:   -6.66 KCAL/MOL
REMARK 924 INTRA-LIGAND FREE ENERGY PREDICTED BY IDOCK:   -0.38 KCAL/MOL
REMARK 927      BINDING AFFINITY PREDICTED BY RF-SCORE:    0.00 PKD
ROOT
HETATM    1  C   UNL     1     -10.871  16.446  68.844  1.00  0.00    -0.334 C  
HETATM    2  N   UNL     1     -10.592  15.229  68.077  1.00  0.00    -0.255 N  
HETATM    3  H   UNL     1      -9.762  15.153  67.488  1.00  0.00     0.000 HD 
ENDROOT
BRANCH   2   4
HETATM    4  S   UNL     1     -11.694  13.956  68.206  1.00  0.00    -0.378 S  
HETATM    5  O   UNL     1     -12.372  13.844  66.933  1.00  0.00    -0.410 OA 
HETATM    6  O   UNL     1     -12.419  14.185  69.434  1.00  0.00    -0.277 OA 
BRANCH   4   7
HETATM    7  C   UNL     1     -10.603  12.564  68.427  1.00  0.00    -0.242 C  
BRANCH   7   8
HETATM    8  C   UNL     1     -11.342  11.247  68.235  1.00  0.00    -0.359 C  
BRANCH   8   9
HETATM    9  C   UNL     1     -11.622  10.510  69.530  1.00  0.00    -0.332 A  
HETATM   10  C   UNL     1     -10.718   9.518  69.964  1.00  0.00    -0.278 A  
HETATM   11  C   UNL     1     -10.975   8.773  71.139  1.00  0.00    -0.334 A  
HETATM   12  C   UNL     1     -12.128   9.085  71.860  1.00  0.00    -0.378 A  
HETATM   13  C   UNL     1     -13.050  10.049  71.457  1.00  0.00    -0.531 A  
HETATM   14  N   UNL     1     -12.153   8.277  72.964  1.00  0.00    -0.557 NA 
HETATM   15  C   UNL     1     -12.785  10.741  70.275  1.00  0.00    -0.286 A  
HETATM   16  H   UNL     1     -12.885   8.279  73.675  1.00  0.00     0.000 HD 
HETATM   17  C   UNL     1     -11.055   7.467  72.975  1.00  0.00    -0.362 A  
HETATM   18  C   UNL     1     -10.321   7.682  71.819  1.00  0.00    -0.233 A  
BRANCH  18  19
HETATM   19  C   UNL     1      -9.077   6.918  71.385  1.00  0.00    -0.148 C  
HETATM   20  C   UNL     1      -8.835   5.621  72.186  1.00  0.00    -0.137 C  
HETATM   21  C   UNL     1      -9.834   4.513  71.816  1.00  0.00    -0.186 C  
HETATM   22  N   UNL     1      -9.912   4.216  70.382  1.00  0.00    -0.166 NA 
HETATM   23  C   UNL     1     -10.094   5.438  69.587  1.00  0.00    -0.249 C  
HETATM   24  C   UNL     1      -8.787   3.408  69.926  1.00  0.00    -0.091 C  
HETATM   25  C   UNL     1      -9.077   6.540  69.894  1.00  0.00    -0.143 C  
ENDBRANCH  18  19
ENDBRANCH   8   9
ENDBRANCH   7   8
ENDBRANCH   4   7
ENDBRANCH   2   4
TORSDOF 5
ENDMDL
MODEL       82
REMARK 921   NORMALIZED FREE ENERGY PREDICTED BY IDOCK:   -5.18 KCAL/MOL
REMARK 922        TOTAL FREE ENERGY PREDICTED BY IDOCK:   -7.04 KCAL/MOL
REMARK 923 INTER-LIGAND FREE ENERGY PREDICTED BY IDOCK:   -6.71 KCAL/MOL
REMARK 924 INTRA-LIGAND FREE ENERGY PREDICTED BY IDOCK:   -0.32 KCAL/MOL
REMARK 927      BINDING AFFINITY PREDICTED BY RF-SCORE:    0.00 PKD
ROOT
HETATM    1  C   UNL     1     -11.000   6.179  67.811  1.00  0.00    -0.303 C  
HETATM    2  N   UNL     1     -11.012   7.632  67.623  1.00  0.00    -0.521 N  
HETATM    3  H   UNL     1     -11.888   8.146  67.525  1.00  0.00     0.000 HD 
ENDROOT
BRANCH   2   4
HETATM    4  S   UNL     1      -9.522   8.424  67.574  1.00  0.00    -0.155 S  
HETATM    5  O   UNL     1      -9.132   8.521  66.184  1.00  0.00    -0.171 OA 
HETATM    6  O   UNL     1      -8.690   7.761  68.551  1.00  0.00    -0.128 OA 
BRANCH   4   7
HETATM    7  C   UNL     1      -9.960  10.040  68.185  1.00  0.00    -0.153 C  
BRANCH   7   8
HETATM    8  C   UNL     1     -11.279  10.006  68.943  1.00  0.00    -0.179 C  
BRANCH   8   9
HETATM    9  C   UNL     1     -11.686  11.347  69.520  1.00  0.00    -0.417 A  
HETATM   10  C   UNL     1     -11.347  12.526  68.822  1.00  0.00    -0.337 A  
HETATM   11  C   UNL     1     -11.665  13.796  69.357  1.00  0.00    -0.379 A  
HETATM   12  C   UNL     1     -12.351  13.831  70.571  1.00  0.00    -0.359 A  
HETATM   13  C   UNL     1     -12.693  12.690  71.294  1.00  0.00    -0.354 A  
HETATM   14  N   UNL     1     -12.584  15.145  70.874  1.00  0.00    -0.348 NA 
HETATM   15  C   UNL     1     -12.334  11.453  70.757  1.00  0.00    -0.483 A  
HETATM   16  H   UNL     1     -13.066  15.477  71.709  1.00  0.00     0.000 HD 
HETATM   17  C   UNL     1     -12.075  15.947  69.894  1.00  0.00    -0.227 A  
HETATM   18  C   UNL     1     -11.423  15.161  68.957  1.00  0.00    -0.325 A  
BRANCH  18  19
HETATM   19  C   UNL     1     -10.633  15.659  67.754  1.00  0.00    -0.281 C  
HETATM   20  C   UNL     1     -10.768  17.177  67.509  1.00  0.00    -0.276 C  
HETATM   21  C   UNL     1     -10.002  18.007  68.553  1.00  0.00    -0.390 C  
HETATM   22  N   UNL     1      -8.590  17.641  68.705  1.00  0.00    -0.287 NA 
HETATM   23  C   UNL     1      -8.424  16.193  68.892  1.00  0.00    -0.241 C  
HETATM   24  C   UNL     1      -7.767  18.169  67.623  1.00  0.00    -0.223 C  
HETATM   25  C   UNL     1      -9.129  15.342  67.833  1.00  0.00    -0.178 C  
ENDBRANCH  18  19
ENDBRANCH   8   9
ENDBRANCH   7   8
ENDBRANCH   4   7
ENDBRANCH   2   4
TORSDOF 5
ENDMDL
MODEL       83
REMARK 921   NORMALIZED FREE ENERGY PREDICTED BY IDOCK:   -5.15 KCAL/MOL
REMARK 922        TOTAL FREE ENERGY PREDICTED BY IDOCK:   -6.99 KCAL/MOL
REMARK 923 INTER-LIGAND FREE ENERGY PREDICTED BY IDOCK:   -6.65 KCAL/MOL
REMARK 924 INTRA-LIGAND FREE ENERGY PREDICTED BY IDOCK:   -0.34 KCAL/MOL
REMARK 927      BINDING AFFINITY PREDICTED BY RF-SCORE:    0.00 PKD
ROOT
HETATM    1  C   UNL     1      -9.906   6.204  71.937  1.00  0.00    -0.156 C  
HETATM    2  N   UNL     1     -11.216   6.499  72.523  1.00  0.00    -0.257 N  
HETATM    3  H   UNL     1     -11.584   5.949  73.300  1.00  0.00     0.000 HD 
ENDROOT
BRANCH   2   4
HETATM    4  S   UNL     1     -12.093   7.783  71.865  1.00  0.00    -0.316 S  
HETATM    5  O   UNL     1     -12.923   8.322  72.919  1.00  0.00    -0.041 OA 
HETATM    6  O   UNL     1     -12.658   7.284  70.633  1.00  0.00    -0.168 OA 
BRANCH   4   7
HETATM    7  C   UNL     1     -10.792   8.939  71.480  1.00  0.00    -0.326 C  
BRANCH   7   8
HETATM    8  C   UNL     1     -11.326  10.135  70.705  1.00  0.00    -0.433 C  
BRANCH   8   9
HETATM    9  C   UNL     1     -10.924  10.144  69.243  1.00  0.00    -0.279 A  
HETATM   10  C   UNL     1     -11.251  11.264  68.449  1.00  0.00    -0.324 A  
HETATM   11  C   UNL     1     -10.939  11.284  67.069  1.00  0.00    -0.352 A  
HETATM   12  C   UNL     1     -10.271  10.179  66.543  1.00  0.00    -0.223 A  
HETATM   13  C   UNL     1      -9.941   9.051  67.293  1.00  0.00    -0.275 A  
HETATM   14  N   UNL     1     -10.040  10.430  65.218  1.00  0.00    -0.306 NA 
HETATM   15  C   UNL     1     -10.295   9.047  68.643  1.00  0.00    -0.233 A  
HETATM   16  H   UNL     1      -9.569   9.793  64.575  1.00  0.00     0.000 HD 
HETATM   17  C   UNL     1     -10.533  11.657  64.884  1.00  0.00    -0.288 A  
HETATM   18  C   UNL     1     -11.172  12.206  65.984  1.00  0.00    -0.382 A  
BRANCH  18  19
HETATM   19  C   UNL     1     -11.944  13.518  66.018  1.00  0.00    -0.449 C  
HETATM   20  C   UNL     1     -11.809  14.282  67.352  1.00  0.00    -0.441 C  
HETATM   21  C   UNL     1     -10.419  14.914  67.524  1.00  0.00    -0.254 C  
HETATM   22  N   UNL     1      -9.994  15.766  66.408  1.00  0.00    -0.260 NA 
HETATM   23  C   UNL     1     -10.156  15.083  65.117  1.00  0.00    -0.315 C  
HETATM   24  C   UNL     1     -10.637  17.074  66.439  1.00  0.00    -0.172 C  
HETATM   25  C   UNL     1     -11.550  14.492  64.894  1.00  0.00    -0.401 C  
ENDBRANCH  18  19
ENDBRANCH   8   9
ENDBRANCH   7   8
ENDBRANCH   4   7
ENDBRANCH   2   4
TORSDOF 5
ENDMDL
MODEL       84
REMARK 921   NORMALIZED FREE ENERGY PREDICTED BY IDOCK:   -5.14 KCAL/MOL
REMARK 922        TOTAL FREE ENERGY PREDICTED BY IDOCK:   -6.99 KCAL/MOL
REMARK 923 INTER-LIGAND FREE ENERGY PREDICTED BY IDOCK:   -6.53 KCAL/MOL
REMARK 924 INTRA-LIGAND FREE ENERGY PREDICTED BY IDOCK:   -0.46 KCAL/MOL
REMARK 927      BINDING AFFINITY PREDICTED BY RF-SCORE:    0.00 PKD
ROOT
HETATM    1  C   UNL     1     -11.730  15.745  71.607  1.00  0.00    -0.464 C  
HETATM    2  N   UNL     1     -11.119  14.856  70.615  1.00  0.00    -0.481 N  
HETATM    3  H   UNL     1     -11.082  13.846  70.762  1.00  0.00     0.000 HD 
ENDROOT
BRANCH   2   4
HETATM    4  S   UNL     1     -10.480  15.563  69.222  1.00  0.00    -0.264 S  
HETATM    5  O   UNL     1      -9.163  15.001  69.020  1.00  0.00    -0.201 OA 
HETATM    6  O   UNL     1     -10.684  16.985  69.373  1.00  0.00    -0.322 OA 
BRANCH   4   7
HETATM    7  C   UNL     1     -11.590  14.947  67.971  1.00  0.00    -0.341 C  
BRANCH   7   8
HETATM    8  C   UNL     1     -10.985  15.080  66.581  1.00  0.00    -0.325 C  
BRANCH   8   9
HETATM    9  C   UNL     1     -10.791  13.755  65.870  1.00  0.00    -0.283 A  
HETATM   10  C   UNL     1     -10.209  12.679  66.572  1.00  0.00    -0.255 A  
HETATM   11  C   UNL     1      -9.965  11.445  65.925  1.00  0.00    -0.274 A  
HETATM   12  C   UNL     1     -10.352  11.329  64.591  1.00  0.00    -0.315 A  
HETATM   13  C   UNL     1     -10.919  12.373  63.861  1.00  0.00    -0.467 A  
HETATM   14  N   UNL     1     -10.059  10.055  64.186  1.00  0.00    -0.447 NA 
HETATM   15  C   UNL     1     -11.115  13.588  64.518  1.00  0.00    -0.394 A  
HETATM   16  H   UNL     1     -10.230   9.684  63.251  1.00  0.00     0.000 HD 
HETATM   17  C   UNL     1      -9.504   9.355  65.217  1.00  0.00    -0.227 A  
HETATM   18  C   UNL     1      -9.352  10.196  66.308  1.00  0.00    -0.214 A  
BRANCH  18  19
HETATM   19  C   UNL     1      -8.684   9.846  67.631  1.00  0.00    -0.121 C  
HETATM   20  C   UNL     1      -9.367  10.486  68.858  1.00  0.00    -0.192 C  
HETATM   21  C   UNL     1     -10.716   9.825  69.185  1.00  0.00    -0.221 C  
HETATM   22  N   UNL     1     -10.659   8.368  69.340  1.00  0.00    -0.219 NA 
HETATM   23  C   UNL     1      -9.971   7.732  68.208  1.00  0.00    -0.178 C  
HETATM   24  C   UNL     1     -10.108   7.973  70.630  1.00  0.00    -0.194 C  
HETATM   25  C   UNL     1      -8.598   8.333  67.895  1.00  0.00    -0.132 C  
ENDBRANCH  18  19
ENDBRANCH   8   9
ENDBRANCH   7   8
ENDBRANCH   4   7
ENDBRANCH   2   4
TORSDOF 5
ENDMDL
MODEL       85
REMARK 921   NORMALIZED FREE ENERGY PREDICTED BY IDOCK:   -5.13 KCAL/MOL
REMARK 922        TOTAL FREE ENERGY PREDICTED BY IDOCK:   -6.97 KCAL/MOL
REMARK 923 INTER-LIGAND FREE ENERGY PREDICTED BY IDOCK:   -6.42 KCAL/MOL
REMARK 924 INTRA-LIGAND FREE ENERGY PREDICTED BY IDOCK:   -0.55 KCAL/MOL
REMARK 927      BINDING AFFINITY PREDICTED BY RF-SCORE:    0.00 PKD
ROOT
HETATM    1  C   UNL     1      -7.296   7.944  68.566  1.00  0.00    -0.097 C  
HETATM    2  N   UNL     1      -7.885   8.785  67.521  1.00  0.00    -0.101 N  
HETATM    3  H   UNL     1      -8.807   9.206  67.638  1.00  0.00     0.000 HD 
ENDROOT
BRANCH   2   4
HETATM    4  S   UNL     1      -6.981   9.032  66.117  1.00  0.00    -0.086 S  
HETATM    5  O   UNL     1      -6.080   7.909  65.983  1.00  0.00    -0.038 OA 
HETATM    6  O   UNL     1      -6.495  10.390  66.195  1.00  0.00    -0.093 OA 
BRANCH   4   7
HETATM    7  C   UNL     1      -8.243   8.938  64.862  1.00  0.00    -0.160 C  
BRANCH   7   8
HETATM    8  C   UNL     1      -9.598   9.365  65.408  1.00  0.00    -0.296 C  
BRANCH   8   9
HETATM    9  C   UNL     1      -9.976  10.791  65.057  1.00  0.00    -0.361 A  
HETATM   10  C   UNL     1      -9.751  11.813  66.003  1.00  0.00    -0.254 A  
HETATM   11  C   UNL     1     -10.140  13.145  65.730  1.00  0.00    -0.290 A  
HETATM   12  C   UNL     1     -10.714  13.407  64.486  1.00  0.00    -0.419 A  
HETATM   13  C   UNL     1     -10.962  12.423  63.531  1.00  0.00    -0.506 A  
HETATM   14  N   UNL     1     -10.972  14.750  64.426  1.00  0.00    -0.618 NA 
HETATM   15  C   UNL     1     -10.600  11.112  63.845  1.00  0.00    -0.431 A  
HETATM   16  H   UNL     1     -11.397  15.230  63.633  1.00  0.00     0.000 HD 
HETATM   17  C   UNL     1     -10.577  15.352  65.585  1.00  0.00    -0.364 A  
HETATM   18  C   UNL     1     -10.118  14.386  66.466  1.00  0.00    -0.281 A  
BRANCH  18  19
HETATM   19  C   UNL     1      -9.675  14.614  67.905  1.00  0.00    -0.216 C  
HETATM   20  C   UNL     1      -9.776  16.086  68.359  1.00  0.00    -0.213 C  
HETATM   21  C   UNL     1     -11.231  16.532  68.571  1.00  0.00    -0.296 C  
HETATM   22  N   UNL     1     -12.007  15.671  69.470  1.00  0.00    -0.369 NA 
HETATM   23  C   UNL     1     -11.893  14.256  69.093  1.00  0.00    -0.330 C  
HETATM   24  C   UNL     1     -11.688  15.910  70.872  1.00  0.00    -0.420 C  
HETATM   25  C   UNL     1     -10.451  13.768  68.929  1.00  0.00    -0.183 C  
ENDBRANCH  18  19
ENDBRANCH   8   9
ENDBRANCH   7   8
ENDBRANCH   4   7
ENDBRANCH   2   4
TORSDOF 5
ENDMDL
MODEL       86
REMARK 921   NORMALIZED FREE ENERGY PREDICTED BY IDOCK:   -5.09 KCAL/MOL
REMARK 922        TOTAL FREE ENERGY PREDICTED BY IDOCK:   -6.92 KCAL/MOL
REMARK 923 INTER-LIGAND FREE ENERGY PREDICTED BY IDOCK:   -6.72 KCAL/MOL
REMARK 924 INTRA-LIGAND FREE ENERGY PREDICTED BY IDOCK:   -0.20 KCAL/MOL
REMARK 927      BINDING AFFINITY PREDICTED BY RF-SCORE:    0.00 PKD
ROOT
HETATM    1  C   UNL     1      -8.323   7.956  65.822  1.00  0.00    -0.136 C  
HETATM    2  N   UNL     1      -9.078   6.725  65.570  1.00  0.00    -0.368 N  
HETATM    3  H   UNL     1      -9.140   6.325  64.633  1.00  0.00     0.000 HD 
ENDROOT
BRANCH   2   4
HETATM    4  S   UNL     1      -9.842   5.996  66.887  1.00  0.00    -0.171 S  
HETATM    5  O   UNL     1      -9.430   4.609  66.909  1.00  0.00    -0.140 OA 
HETATM    6  O   UNL     1     -11.233   6.372  66.795  1.00  0.00    -0.327 OA 
BRANCH   4   7
HETATM    7  C   UNL     1      -9.094   6.862  68.254  1.00  0.00    -0.125 C  
BRANCH   7   8
HETATM    8  C   UNL     1     -10.001   6.855  69.476  1.00  0.00    -0.171 C  
BRANCH   8   9
HETATM    9  C   UNL     1     -10.617   8.205  69.787  1.00  0.00    -0.231 A  
HETATM   10  C   UNL     1     -10.562   9.224  68.814  1.00  0.00    -0.220 A  
HETATM   11  C   UNL     1     -11.078  10.512  69.091  1.00  0.00    -0.302 A  
HETATM   12  C   UNL     1     -11.668  10.716  70.338  1.00  0.00    -0.353 A  
HETATM   13  C   UNL     1     -11.731   9.737  71.328  1.00  0.00    -0.472 A  
HETATM   14  N   UNL     1     -12.127  12.005  70.371  1.00  0.00    -0.401 NA 
HETATM   15  C   UNL     1     -11.180   8.488  71.038  1.00  0.00    -0.312 A  
HETATM   16  H   UNL     1     -12.602  12.438  71.163  1.00  0.00     0.000 HD 
HETATM   17  C   UNL     1     -11.854  12.626  69.187  1.00  0.00    -0.297 A  
HETATM   18  C   UNL     1     -11.134  11.764  68.376  1.00  0.00    -0.286 A  
BRANCH  18  19
HETATM   19  C   UNL     1     -10.544  12.091  67.010  1.00  0.00    -0.258 C  
HETATM   20  C   UNL     1     -11.607  12.329  65.917  1.00  0.00    -0.450 C  
HETATM   21  C   UNL     1     -12.338  13.670  66.096  1.00  0.00    -0.426 C  
HETATM   22  N   UNL     1     -11.453  14.835  66.206  1.00  0.00    -0.342 NA 
HETATM   23  C   UNL     1     -10.399  14.621  67.207  1.00  0.00    -0.256 C  
HETATM   24  C   UNL     1     -10.927  15.250  64.911  1.00  0.00    -0.430 C  
HETATM   25  C   UNL     1      -9.617  13.318  67.019  1.00  0.00    -0.243 C  
ENDBRANCH  18  19
ENDBRANCH   8   9
ENDBRANCH   7   8
ENDBRANCH   4   7
ENDBRANCH   2   4
TORSDOF 5
ENDMDL
MODEL       87
REMARK 921   NORMALIZED FREE ENERGY PREDICTED BY IDOCK:   -5.08 KCAL/MOL
REMARK 922        TOTAL FREE ENERGY PREDICTED BY IDOCK:   -6.91 KCAL/MOL
REMARK 923 INTER-LIGAND FREE ENERGY PREDICTED BY IDOCK:   -6.47 KCAL/MOL
REMARK 924 INTRA-LIGAND FREE ENERGY PREDICTED BY IDOCK:   -0.44 KCAL/MOL
REMARK 927      BINDING AFFINITY PREDICTED BY RF-SCORE:    0.00 PKD
ROOT
HETATM    1  C   UNL     1     -13.837   7.918  71.553  1.00  0.00    -0.342 C  
HETATM    2  N   UNL     1     -12.874   7.059  72.245  1.00  0.00    -0.524 N  
HETATM    3  H   UNL     1     -13.147   6.147  72.614  1.00  0.00     0.000 HD 
ENDROOT
BRANCH   2   4
HETATM    4  S   UNL     1     -11.295   7.633  72.411  1.00  0.00    -0.351 S  
HETATM    5  O   UNL     1     -10.883   7.374  73.773  1.00  0.00    -0.321 OA 
HETATM    6  O   UNL     1     -11.301   8.968  71.861  1.00  0.00    -0.349 OA 
BRANCH   4   7
HETATM    7  C   UNL     1     -10.408   6.553  71.304  1.00  0.00    -0.204 C  
BRANCH   7   8
HETATM    8  C   UNL     1     -11.262   6.168  70.105  1.00  0.00    -0.452 C  
BRANCH   8   9
HETATM    9  C   UNL     1     -10.709   6.654  68.780  1.00  0.00    -0.302 A  
HETATM   10  C   UNL     1     -10.290   7.996  68.662  1.00  0.00    -0.224 A  
HETATM   11  C   UNL     1      -9.820   8.498  67.426  1.00  0.00    -0.244 A  
HETATM   12  C   UNL     1      -9.753   7.610  66.353  1.00  0.00    -0.127 A  
HETATM   13  C   UNL     1     -10.167   6.281  66.428  1.00  0.00    -0.081 A  
HETATM   14  N   UNL     1      -9.239   8.293  65.285  1.00  0.00    -0.390 NA 
HETATM   15  C   UNL     1     -10.661   5.826  67.651  1.00  0.00    -0.313 A  
HETATM   16  H   UNL     1      -9.080   7.897  64.358  1.00  0.00     0.000 HD 
HETATM   17  C   UNL     1      -8.971   9.582  65.642  1.00  0.00    -0.183 A  
HETATM   18  C   UNL     1      -9.383   9.788  66.949  1.00  0.00    -0.184 A  
BRANCH  18  19
HETATM   19  C   UNL     1      -9.358  11.109  67.706  1.00  0.00    -0.166 C  
HETATM   20  C   UNL     1      -9.381  12.349  66.789  1.00  0.00    -0.220 C  
HETATM   21  C   UNL     1     -10.757  12.569  66.138  1.00  0.00    -0.261 C  
HETATM   22  N   UNL     1     -11.877  12.617  67.084  1.00  0.00    -0.432 NA 
HETATM   23  C   UNL     1     -11.856  11.472  68.005  1.00  0.00    -0.217 C  
HETATM   24  C   UNL     1     -11.957  13.897  67.777  1.00  0.00    -0.355 C  
HETATM   25  C   UNL     1     -10.514  11.263  68.710  1.00  0.00    -0.232 C  
ENDBRANCH  18  19
ENDBRANCH   8   9
ENDBRANCH   7   8
ENDBRANCH   4   7
ENDBRANCH   2   4
TORSDOF 5
ENDMDL
MODEL       88
REMARK 921   NORMALIZED FREE ENERGY PREDICTED BY IDOCK:   -5.07 KCAL/MOL
REMARK 922        TOTAL FREE ENERGY PREDICTED BY IDOCK:   -6.89 KCAL/MOL
REMARK 923 INTER-LIGAND FREE ENERGY PREDICTED BY IDOCK:   -6.57 KCAL/MOL
REMARK 924 INTRA-LIGAND FREE ENERGY PREDICTED BY IDOCK:   -0.32 KCAL/MOL
REMARK 927      BINDING AFFINITY PREDICTED BY RF-SCORE:    0.00 PKD
ROOT
HETATM    1  C   UNL     1      -7.573  17.848  68.770  1.00  0.00    -0.268 C  
HETATM    2  N   UNL     1      -8.479  16.730  68.493  1.00  0.00    -0.234 N  
HETATM    3  H   UNL     1      -8.121  15.809  68.236  1.00  0.00     0.000 HD 
ENDROOT
BRANCH   2   4
HETATM    4  S   UNL     1     -10.138  17.023  68.613  1.00  0.00    -0.322 S  
HETATM    5  O   UNL     1     -10.761  16.458  67.437  1.00  0.00    -0.322 OA 
HETATM    6  O   UNL     1     -10.268  18.422  68.943  1.00  0.00    -0.382 OA 
BRANCH   4   7
HETATM    7  C   UNL     1     -10.566  16.047  70.042  1.00  0.00    -0.296 C  
BRANCH   7   8
HETATM    8  C   UNL     1     -11.929  15.391  69.875  1.00  0.00    -0.384 C  
BRANCH   8   9
HETATM    9  C   UNL     1     -11.877  13.877  69.824  1.00  0.00    -0.390 A  
HETATM   10  C   UNL     1     -11.221  13.250  68.743  1.00  0.00    -0.317 A  
HETATM   11  C   UNL     1     -11.199  11.840  68.635  1.00  0.00    -0.312 A  
HETATM   12  C   UNL     1     -11.813  11.105  69.649  1.00  0.00    -0.348 A  
HETATM   13  C   UNL     1     -12.480  11.689  70.725  1.00  0.00    -0.425 A  
HETATM   14  N   UNL     1     -11.638   9.779  69.361  1.00  0.00    -0.449 NA 
HETATM   15  C   UNL     1     -12.515  13.082  70.784  1.00  0.00    -0.384 A  
HETATM   16  H   UNL     1     -11.985   9.006  69.928  1.00  0.00     0.000 HD 
HETATM   17  C   UNL     1     -10.929   9.644  68.203  1.00  0.00    -0.132 A  
HETATM   18  C   UNL     1     -10.692  10.899  67.666  1.00  0.00    -0.288 A  
BRANCH  18  19
HETATM   19  C   UNL     1     -10.020  11.197  66.332  1.00  0.00    -0.257 C  
HETATM   20  C   UNL     1      -8.561  11.681  66.467  1.00  0.00    -0.164 C  
HETATM   21  C   UNL     1      -7.605  10.547  66.872  1.00  0.00    -0.110 C  
HETATM   22  N   UNL     1      -7.668   9.361  66.011  1.00  0.00    -0.099 NA 
HETATM   23  C   UNL     1      -9.051   8.903  65.824  1.00  0.00    -0.221 C  
HETATM   24  C   UNL     1      -6.963   9.559  64.751  1.00  0.00    -0.104 C  
HETATM   25  C   UNL     1     -10.015  10.000  65.365  1.00  0.00    -0.364 C  
ENDBRANCH  18  19
ENDBRANCH   8   9
ENDBRANCH   7   8
ENDBRANCH   4   7
ENDBRANCH   2   4
TORSDOF 5
ENDMDL
MODEL       89
REMARK 921   NORMALIZED FREE ENERGY PREDICTED BY IDOCK:   -5.07 KCAL/MOL
REMARK 922        TOTAL FREE ENERGY PREDICTED BY IDOCK:   -6.89 KCAL/MOL
REMARK 923 INTER-LIGAND FREE ENERGY PREDICTED BY IDOCK:   -6.57 KCAL/MOL
REMARK 924 INTRA-LIGAND FREE ENERGY PREDICTED BY IDOCK:   -0.32 KCAL/MOL
REMARK 927      BINDING AFFINITY PREDICTED BY RF-SCORE:    0.00 PKD
ROOT
HETATM    1  C   UNL     1     -11.631  15.945  64.136  1.00  0.00    -0.056 C  
HETATM    2  N   UNL     1     -12.241  14.737  63.573  1.00  0.00    -0.926 N  
HETATM    3  H   UNL     1     -12.544  14.702  62.599  1.00  0.00     0.000 HD 
ENDROOT
BRANCH   2   4
HETATM    4  S   UNL     1     -12.425  13.407  64.597  1.00  0.00    -0.296 S  
HETATM    5  O   UNL     1     -12.824  12.285  63.776  1.00  0.00    -0.735 OA 
HETATM    6  O   UNL     1     -13.235  13.867  65.700  1.00  0.00    -0.623 OA 
BRANCH   4   7
HETATM    7  C   UNL     1     -10.753  13.165  65.165  1.00  0.00    -0.315 C  
BRANCH   7   8
HETATM    8  C   UNL     1     -10.328  11.711  65.028  1.00  0.00    -0.329 C  
BRANCH   8   9
HETATM    9  C   UNL     1     -10.418  10.924  66.321  1.00  0.00    -0.304 A  
HETATM   10  C   UNL     1      -9.721   9.702  66.431  1.00  0.00    -0.285 A  
HETATM   11  C   UNL     1      -9.826   8.916  67.603  1.00  0.00    -0.229 A  
HETATM   12  C   UNL     1     -10.609   9.413  68.644  1.00  0.00    -0.200 A  
HETATM   13  C   UNL     1     -11.321  10.608  68.568  1.00  0.00    -0.348 A  
HETATM   14  N   UNL     1     -10.535   8.518  69.677  1.00  0.00    -0.219 NA 
HETATM   15  C   UNL     1     -11.226  11.343  67.386  1.00  0.00    -0.370 A  
HETATM   16  H   UNL     1     -11.013   8.617  70.573  1.00  0.00     0.000 HD 
HETATM   17  C   UNL     1      -9.729   7.473  69.332  1.00  0.00    -0.164 A  
HETATM   18  C   UNL     1      -9.316   7.632  68.018  1.00  0.00    -0.144 A  
BRANCH  18  19
HETATM   19  C   UNL     1      -8.486   6.645  67.207  1.00  0.00    -0.120 C  
HETATM   20  C   UNL     1      -7.941   5.464  68.038  1.00  0.00    -0.096 C  
HETATM   21  C   UNL     1      -9.043   4.463  68.421  1.00  0.00    -0.124 C  
HETATM   22  N   UNL     1      -9.834   3.965  67.290  1.00  0.00    -0.127 NA 
HETATM   23  C   UNL     1     -10.328   5.065  66.451  1.00  0.00    -0.294 C  
HETATM   24  C   UNL     1      -9.120   2.949  66.526  1.00  0.00    -0.139 C  
HETATM   25  C   UNL     1      -9.241   6.048  66.007  1.00  0.00    -0.129 C  
ENDBRANCH  18  19
ENDBRANCH   8   9
ENDBRANCH   7   8
ENDBRANCH   4   7
ENDBRANCH   2   4
TORSDOF 5
ENDMDL
MODEL       90
REMARK 921   NORMALIZED FREE ENERGY PREDICTED BY IDOCK:   -5.05 KCAL/MOL
REMARK 922        TOTAL FREE ENERGY PREDICTED BY IDOCK:   -6.87 KCAL/MOL
REMARK 923 INTER-LIGAND FREE ENERGY PREDICTED BY IDOCK:   -6.50 KCAL/MOL
REMARK 924 INTRA-LIGAND FREE ENERGY PREDICTED BY IDOCK:   -0.36 KCAL/MOL
REMARK 927      BINDING AFFINITY PREDICTED BY RF-SCORE:    0.00 PKD
ROOT
HETATM    1  C   UNL     1      -7.164  19.854  65.515  1.00  0.00    -0.281 C  
HETATM    2  N   UNL     1      -7.971  19.460  66.673  1.00  0.00    -0.272 N  
HETATM    3  H   UNL     1      -7.563  18.937  67.448  1.00  0.00     0.000 HD 
ENDROOT
BRANCH   2   4
HETATM    4  S   UNL     1      -9.599  19.904  66.675  1.00  0.00    -0.439 S  
HETATM    5  O   UNL     1     -10.047  19.903  65.299  1.00  0.00    -0.217 OA 
HETATM    6  O   UNL     1      -9.686  21.085  67.500  1.00  0.00    -0.385 OA 
BRANCH   4   7
HETATM    7  C   UNL     1     -10.338  18.534  67.543  1.00  0.00    -0.409 C  
BRANCH   7   8
HETATM    8  C   UNL     1      -9.492  18.115  68.737  1.00  0.00    -0.285 C  
BRANCH   8   9
HETATM    9  C   UNL     1      -8.875  16.738  68.595  1.00  0.00    -0.255 A  
HETATM   10  C   UNL     1      -9.649  15.691  68.051  1.00  0.00    -0.203 A  
HETATM   11  C   UNL     1      -9.123  14.382  67.953  1.00  0.00    -0.187 A  
HETATM   12  C   UNL     1      -7.810  14.181  68.378  1.00  0.00    -0.143 A  
HETATM   13  C   UNL     1      -7.019  15.186  68.931  1.00  0.00    -0.124 A  
HETATM   14  N   UNL     1      -7.503  12.866  68.158  1.00  0.00    -0.113 NA 
HETATM   15  C   UNL     1      -7.579  16.459  69.047  1.00  0.00    -0.232 A  
HETATM   16  H   UNL     1      -6.608  12.429  68.377  1.00  0.00     0.000 HD 
HETATM   17  C   UNL     1      -8.572  12.224  67.603  1.00  0.00    -0.169 A  
HETATM   18  C   UNL     1      -9.638  13.105  67.521  1.00  0.00    -0.208 A  
BRANCH  18  19
HETATM   19  C   UNL     1     -11.049  12.773  67.054  1.00  0.00    -0.316 C  
HETATM   20  C   UNL     1     -11.696  13.881  66.196  1.00  0.00    -0.393 C  
HETATM   21  C   UNL     1     -11.081  13.962  64.789  1.00  0.00    -0.383 C  
HETATM   22  N   UNL     1     -11.072  12.693  64.054  1.00  0.00    -0.375 NA 
HETATM   23  C   UNL     1     -10.506  11.605  64.863  1.00  0.00    -0.288 C  
HETATM   24  C   UNL     1     -12.383  12.365  63.506  1.00  0.00    -0.546 C  
HETATM   25  C   UNL     1     -11.138  11.464  66.250  1.00  0.00    -0.281 C  
ENDBRANCH  18  19
ENDBRANCH   8   9
ENDBRANCH   7   8
ENDBRANCH   4   7
ENDBRANCH   2   4
TORSDOF 5
ENDMDL
MODEL       91
REMARK 921   NORMALIZED FREE ENERGY PREDICTED BY IDOCK:   -5.04 KCAL/MOL
REMARK 922        TOTAL FREE ENERGY PREDICTED BY IDOCK:   -6.86 KCAL/MOL
REMARK 923 INTER-LIGAND FREE ENERGY PREDICTED BY IDOCK:   -6.37 KCAL/MOL
REMARK 924 INTRA-LIGAND FREE ENERGY PREDICTED BY IDOCK:   -0.50 KCAL/MOL
REMARK 927      BINDING AFFINITY PREDICTED BY RF-SCORE:    0.00 PKD
ROOT
HETATM    1  C   UNL     1     -10.410  18.965  67.637  1.00  0.00    -0.426 C  
HETATM    2  N   UNL     1      -9.649  20.196  67.407  1.00  0.00    -0.392 N  
HETATM    3  H   UNL     1     -10.082  21.114  67.516  1.00  0.00     0.000 HD 
ENDROOT
BRANCH   2   4
HETATM    4  S   UNL     1      -8.030  20.039  66.956  1.00  0.00    -0.327 S  
HETATM    5  O   UNL     1      -7.345  21.239  67.383  1.00  0.00    -0.484 OA 
HETATM    6  O   UNL     1      -8.044  19.626  65.572  1.00  0.00    -0.358 OA 
BRANCH   4   7
HETATM    7  C   UNL     1      -7.512  18.665  67.967  1.00  0.00    -0.251 C  
BRANCH   7   8
HETATM    8  C   UNL     1      -6.627  17.705  67.185  1.00  0.00    -0.188 C  
BRANCH   8   9
HETATM    9  C   UNL     1      -6.953  16.244  67.423  1.00  0.00    -0.206 A  
HETATM   10  C   UNL     1      -8.303  15.850  67.528  1.00  0.00    -0.180 A  
HETATM   11  C   UNL     1      -8.641  14.504  67.803  1.00  0.00    -0.176 A  
HETATM   12  C   UNL     1      -7.596  13.589  67.927  1.00  0.00    -0.151 A  
HETATM   13  C   UNL     1      -6.251  13.942  67.840  1.00  0.00    -0.164 A  
HETATM   14  N   UNL     1      -8.151  12.358  68.150  1.00  0.00    -0.155 NA 
HETATM   15  C   UNL     1      -5.949  15.284  67.604  1.00  0.00    -0.119 A  
HETATM   16  H   UNL     1      -7.626  11.494  68.284  1.00  0.00     0.000 HD 
HETATM   17  C   UNL     1      -9.512  12.457  68.166  1.00  0.00    -0.214 A  
HETATM   18  C   UNL     1      -9.873  13.787  68.029  1.00  0.00    -0.239 A  
BRANCH  18  19
HETATM   19  C   UNL     1     -11.287  14.350  68.093  1.00  0.00    -0.317 C  
HETATM   20  C   UNL     1     -12.281  13.443  68.848  1.00  0.00    -0.164 C  
HETATM   21  C   UNL     1     -12.041  13.450  70.366  1.00  0.00    -0.333 C  
HETATM   22  N   UNL     1     -12.014  14.785  70.972  1.00  0.00    -0.313 NA 
HETATM   23  C   UNL     1     -11.111  15.689  70.247  1.00  0.00    -0.347 C  
HETATM   24  C   UNL     1     -13.352  15.339  71.141  1.00  0.00    -0.498 C  
HETATM   25  C   UNL     1     -11.364  15.745  68.738  1.00  0.00    -0.362 C  
ENDBRANCH  18  19
ENDBRANCH   8   9
ENDBRANCH   7   8
ENDBRANCH   4   7
ENDBRANCH   2   4
TORSDOF 5
ENDMDL
MODEL       92
REMARK 921   NORMALIZED FREE ENERGY PREDICTED BY IDOCK:   -4.99 KCAL/MOL
REMARK 922        TOTAL FREE ENERGY PREDICTED BY IDOCK:   -6.79 KCAL/MOL
REMARK 923 INTER-LIGAND FREE ENERGY PREDICTED BY IDOCK:   -6.62 KCAL/MOL
REMARK 924 INTRA-LIGAND FREE ENERGY PREDICTED BY IDOCK:   -0.17 KCAL/MOL
REMARK 927      BINDING AFFINITY PREDICTED BY RF-SCORE:    0.00 PKD
ROOT
HETATM    1  C   UNL     1     -11.598  14.624  68.830  1.00  0.00    -0.310 C  
HETATM    2  N   UNL     1     -12.003  14.942  67.458  1.00  0.00    -0.465 N  
HETATM    3  H   UNL     1     -12.182  15.904  67.169  1.00  0.00     0.000 HD 
ENDROOT
BRANCH   2   4
HETATM    4  S   UNL     1     -12.159  13.658  66.374  1.00  0.00    -0.425 S  
HETATM    5  O   UNL     1     -13.120  14.057  65.370  1.00  0.00    -0.763 OA 
HETATM    6  O   UNL     1     -12.355  12.479  67.185  1.00  0.00    -0.376 OA 
BRANCH   4   7
HETATM    7  C   UNL     1     -10.531  13.602  65.653  1.00  0.00    -0.299 C  
BRANCH   7   8
HETATM    8  C   UNL     1      -9.552  12.860  66.552  1.00  0.00    -0.259 C  
BRANCH   8   9
HETATM    9  C   UNL     1      -9.530  11.362  66.325  1.00  0.00    -0.229 A  
HETATM   10  C   UNL     1      -9.465  10.500  67.439  1.00  0.00    -0.172 A  
HETATM   11  C   UNL     1      -9.389   9.098  67.263  1.00  0.00    -0.166 A  
HETATM   12  C   UNL     1      -9.418   8.611  65.957  1.00  0.00    -0.208 A  
HETATM   13  C   UNL     1      -9.471   9.430  64.831  1.00  0.00    -0.150 A  
HETATM   14  N   UNL     1      -9.373   7.244  66.026  1.00  0.00    -0.383 NA 
HETATM   15  C   UNL     1      -9.508  10.810  65.038  1.00  0.00    -0.286 A  
HETATM   16  H   UNL     1      -9.377   6.617  65.222  1.00  0.00     0.000 HD 
HETATM   17  C   UNL     1      -9.323   6.846  67.330  1.00  0.00    -0.135 A  
HETATM   18  C   UNL     1      -9.255   7.965  68.145  1.00  0.00    -0.136 A  
BRANCH  18  19
HETATM   19  C   UNL     1      -9.086   7.969  69.659  1.00  0.00    -0.152 C  
HETATM   20  C   UNL     1      -9.673   9.221  70.344  1.00  0.00    -0.293 C  
HETATM   21  C   UNL     1     -11.210   9.213  70.358  1.00  0.00    -0.240 C  
HETATM   22  N   UNL     1     -11.807   7.998  70.926  1.00  0.00    -0.265 NA 
HETATM   23  C   UNL     1     -11.233   6.785  70.327  1.00  0.00    -0.334 C  
HETATM   24  C   UNL     1     -11.753   7.989  72.383  1.00  0.00    -0.386 C  
HETATM   25  C   UNL     1      -9.703   6.741  70.349  1.00  0.00    -0.183 C  
ENDBRANCH  18  19
ENDBRANCH   8   9
ENDBRANCH   7   8
ENDBRANCH   4   7
ENDBRANCH   2   4
TORSDOF 5
ENDMDL
MODEL       93
REMARK 921   NORMALIZED FREE ENERGY PREDICTED BY IDOCK:   -4.98 KCAL/MOL
REMARK 922        TOTAL FREE ENERGY PREDICTED BY IDOCK:   -6.78 KCAL/MOL
REMARK 923 INTER-LIGAND FREE ENERGY PREDICTED BY IDOCK:   -6.39 KCAL/MOL
REMARK 924 INTRA-LIGAND FREE ENERGY PREDICTED BY IDOCK:   -0.39 KCAL/MOL
REMARK 927      BINDING AFFINITY PREDICTED BY RF-SCORE:    0.00 PKD
ROOT
HETATM    1  C   UNL     1     -12.616  11.986  63.294  1.00  0.00    -0.385 C  
HETATM    2  N   UNL     1     -11.876  13.226  63.541  1.00  0.00    -0.720 N  
HETATM    3  H   UNL     1     -11.250  13.617  62.837  1.00  0.00     0.000 HD 
ENDROOT
BRANCH   2   4
HETATM    4  S   UNL     1     -12.099  13.983  65.033  1.00  0.00    -0.439 S  
HETATM    5  O   UNL     1     -13.522  14.016  65.290  1.00  0.00    -0.622 OA 
HETATM    6  O   UNL     1     -11.309  15.190  64.986  1.00  0.00    -0.373 OA 
BRANCH   4   7
HETATM    7  C   UNL     1     -11.320  12.822  66.139  1.00  0.00    -0.328 C  
BRANCH   7   8
HETATM    8  C   UNL     1      -9.849  12.633  65.795  1.00  0.00    -0.236 C  
BRANCH   8   9
HETATM    9  C   UNL     1      -8.902  13.198  66.835  1.00  0.00    -0.184 A  
HETATM   10  C   UNL     1      -8.923  14.583  67.102  1.00  0.00    -0.244 A  
HETATM   11  C   UNL     1      -8.017  15.153  68.026  1.00  0.00    -0.136 A  
HETATM   12  C   UNL     1      -7.138  14.291  68.682  1.00  0.00    -0.111 A  
HETATM   13  C   UNL     1      -7.080  12.920  68.437  1.00  0.00    -0.099 A  
HETATM   14  N   UNL     1      -6.391  15.044  69.546  1.00  0.00    -0.121 NA 
HETATM   15  C   UNL     1      -7.962  12.395  67.493  1.00  0.00    -0.173 A  
HETATM   16  H   UNL     1      -5.661  14.681  70.159  1.00  0.00     0.000 HD 
HETATM   17  C   UNL     1      -6.768  16.353  69.469  1.00  0.00    -0.202 A  
HETATM   18  C   UNL     1      -7.729  16.492  68.480  1.00  0.00    -0.204 A  
BRANCH  18  19
HETATM   19  C   UNL     1      -8.348  17.798  68.000  1.00  0.00    -0.249 C  
HETATM   20  C   UNL     1      -7.728  19.053  68.648  1.00  0.00    -0.378 C  
HETATM   21  C   UNL     1      -6.315  19.346  68.117  1.00  0.00    -0.227 C  
HETATM   22  N   UNL     1      -6.219  19.430  66.655  1.00  0.00    -0.177 NA 
HETATM   23  C   UNL     1      -6.845  18.270  66.006  1.00  0.00    -0.276 C  
HETATM   24  C   UNL     1      -6.718  20.701  66.144  1.00  0.00    -0.214 C  
HETATM   25  C   UNL     1      -8.275  17.989  66.476  1.00  0.00    -0.298 C  
ENDBRANCH  18  19
ENDBRANCH   8   9
ENDBRANCH   7   8
ENDBRANCH   4   7
ENDBRANCH   2   4
TORSDOF 5
ENDMDL
MODEL       94
REMARK 921   NORMALIZED FREE ENERGY PREDICTED BY IDOCK:   -4.96 KCAL/MOL
REMARK 922        TOTAL FREE ENERGY PREDICTED BY IDOCK:   -6.75 KCAL/MOL
REMARK 923 INTER-LIGAND FREE ENERGY PREDICTED BY IDOCK:   -6.39 KCAL/MOL
REMARK 924 INTRA-LIGAND FREE ENERGY PREDICTED BY IDOCK:   -0.36 KCAL/MOL
REMARK 927      BINDING AFFINITY PREDICTED BY RF-SCORE:    0.00 PKD
ROOT
HETATM    1  C   UNL     1      -7.287   7.890  63.909  1.00  0.00    -0.099 C  
HETATM    2  N   UNL     1      -8.639   8.206  64.376  1.00  0.00    -0.395 N  
HETATM    3  H   UNL     1      -9.425   8.257  63.727  1.00  0.00     0.000 HD 
ENDROOT
BRANCH   2   4
HETATM    4  S   UNL     1      -8.848   8.483  66.028  1.00  0.00    -0.182 S  
HETATM    5  O   UNL     1      -7.643   8.040  66.694  1.00  0.00    -0.090 OA 
HETATM    6  O   UNL     1     -10.143   7.937  66.359  1.00  0.00    -0.209 OA 
BRANCH   4   7
HETATM    7  C   UNL     1      -8.938  10.263  66.080  1.00  0.00    -0.152 C  
BRANCH   7   8
HETATM    8  C   UNL     1     -10.354  10.753  65.813  1.00  0.00    -0.295 C  
BRANCH   8   9
HETATM    9  C   UNL     1     -10.890  11.682  66.884  1.00  0.00    -0.322 A  
HETATM   10  C   UNL     1     -10.802  13.076  66.690  1.00  0.00    -0.291 A  
HETATM   11  C   UNL     1     -11.244  13.972  67.692  1.00  0.00    -0.317 A  
HETATM   12  C   UNL     1     -11.797  13.424  68.848  1.00  0.00    -0.334 A  
HETATM   13  C   UNL     1     -11.891  12.053  69.081  1.00  0.00    -0.369 A  
HETATM   14  N   UNL     1     -12.186  14.462  69.651  1.00  0.00    -0.421 NA 
HETATM   15  C   UNL     1     -11.413  11.196  68.089  1.00  0.00    -0.373 A  
HETATM   16  H   UNL     1     -12.622  14.362  70.568  1.00  0.00     0.000 HD 
HETATM   17  C   UNL     1     -11.906  15.651  69.043  1.00  0.00    -0.364 A  
HETATM   18  C   UNL     1     -11.248  15.407  67.848  1.00  0.00    -0.329 A  
BRANCH  18  19
HETATM   19  C   UNL     1     -10.670  16.454  66.905  1.00  0.00    -0.202 C  
HETATM   20  C   UNL     1     -10.583  17.865  67.525  1.00  0.00    -0.386 C  
HETATM   21  C   UNL     1      -9.468  17.971  68.579  1.00  0.00    -0.319 C  
HETATM   22  N   UNL     1      -8.146  17.539  68.112  1.00  0.00    -0.240 NA 
HETATM   23  C   UNL     1      -8.204  16.218  67.473  1.00  0.00    -0.148 C  
HETATM   24  C   UNL     1      -7.504  18.545  67.274  1.00  0.00    -0.218 C  
HETATM   25  C   UNL     1      -9.268  16.100  66.379  1.00  0.00    -0.334 C  
ENDBRANCH  18  19
ENDBRANCH   8   9
ENDBRANCH   7   8
ENDBRANCH   4   7
ENDBRANCH   2   4
TORSDOF 5
ENDMDL
MODEL       95
REMARK 921   NORMALIZED FREE ENERGY PREDICTED BY IDOCK:   -4.94 KCAL/MOL
REMARK 922        TOTAL FREE ENERGY PREDICTED BY IDOCK:   -6.72 KCAL/MOL
REMARK 923 INTER-LIGAND FREE ENERGY PREDICTED BY IDOCK:   -6.47 KCAL/MOL
REMARK 924 INTRA-LIGAND FREE ENERGY PREDICTED BY IDOCK:   -0.25 KCAL/MOL
REMARK 927      BINDING AFFINITY PREDICTED BY RF-SCORE:    0.00 PKD
ROOT
HETATM    1  C   UNL     1     -10.865   3.590  63.559  1.00  0.00    -0.198 C  
HETATM    2  N   UNL     1     -10.961   4.243  64.867  1.00  0.00    -0.744 N  
HETATM    3  H   UNL     1     -11.834   4.662  65.187  1.00  0.00     0.000 HD 
ENDROOT
BRANCH   2   4
HETATM    4  S   UNL     1      -9.571   4.274  65.826  1.00  0.00    -0.206 S  
HETATM    5  O   UNL     1      -8.538   4.941  65.065  1.00  0.00    -0.135 OA 
HETATM    6  O   UNL     1      -9.401   2.927  66.319  1.00  0.00    -0.130 OA 
BRANCH   4   7
HETATM    7  C   UNL     1     -10.092   5.322  67.170  1.00  0.00    -0.203 C  
BRANCH   7   8
HETATM    8  C   UNL     1     -10.882   6.521  66.663  1.00  0.00    -0.222 C  
BRANCH   8   9
HETATM    9  C   UNL     1     -10.745   7.755  67.532  1.00  0.00    -0.265 A  
HETATM   10  C   UNL     1     -10.624   9.018  66.917  1.00  0.00    -0.243 A  
HETATM   11  C   UNL     1     -10.441  10.185  67.695  1.00  0.00    -0.293 A  
HETATM   12  C   UNL     1     -10.422  10.037  69.082  1.00  0.00    -0.219 A  
HETATM   13  C   UNL     1     -10.528   8.806  69.726  1.00  0.00    -0.222 A  
HETATM   14  N   UNL     1     -10.275  11.284  69.627  1.00  0.00    -0.401 NA 
HETATM   15  C   UNL     1     -10.671   7.670  68.928  1.00  0.00    -0.117 A  
HETATM   16  H   UNL     1     -10.225  11.485  70.625  1.00  0.00     0.000 HD 
HETATM   17  C   UNL     1     -10.205  12.220  68.636  1.00  0.00    -0.165 A  
HETATM   18  C   UNL     1     -10.228  11.582  67.406  1.00  0.00    -0.228 A  
BRANCH  18  19
HETATM   19  C   UNL     1     -10.072  12.244  66.043  1.00  0.00    -0.269 C  
HETATM   20  C   UNL     1     -11.248  11.967  65.082  1.00  0.00    -0.368 C  
HETATM   21  C   UNL     1     -12.520  12.732  65.481  1.00  0.00    -0.354 C  
HETATM   22  N   UNL     1     -12.334  14.177  65.652  1.00  0.00    -0.450 NA 
HETATM   23  C   UNL     1     -11.191  14.474  66.526  1.00  0.00    -0.344 C  
HETATM   24  C   UNL     1     -12.267  14.877  64.375  1.00  0.00    -0.381 C  
HETATM   25  C   UNL     1      -9.894  13.770  66.118  1.00  0.00    -0.310 C  
ENDBRANCH  18  19
ENDBRANCH   8   9
ENDBRANCH   7   8
ENDBRANCH   4   7
ENDBRANCH   2   4
TORSDOF 5
ENDMDL
MODEL       96
REMARK 921   NORMALIZED FREE ENERGY PREDICTED BY IDOCK:   -4.93 KCAL/MOL
REMARK 922        TOTAL FREE ENERGY PREDICTED BY IDOCK:   -6.71 KCAL/MOL
REMARK 923 INTER-LIGAND FREE ENERGY PREDICTED BY IDOCK:   -6.38 KCAL/MOL
REMARK 924 INTRA-LIGAND FREE ENERGY PREDICTED BY IDOCK:   -0.32 KCAL/MOL
REMARK 927      BINDING AFFINITY PREDICTED BY RF-SCORE:    0.00 PKD
ROOT
HETATM    1  C   UNL     1     -10.248  19.557  68.095  1.00  0.00    -0.444 C  
HETATM    2  N   UNL     1     -10.796  19.182  66.789  1.00  0.00    -0.383 N  
HETATM    3  H   UNL     1     -11.538  19.727  66.350  1.00  0.00     0.000 HD 
ENDROOT
BRANCH   2   4
HETATM    4  S   UNL     1     -10.153  17.813  66.038  1.00  0.00    -0.188 S  
HETATM    5  O   UNL     1      -8.736  18.043  65.865  1.00  0.00    -0.506 OA 
HETATM    6  O   UNL     1     -11.019  17.535  64.916  1.00  0.00    -0.887 OA 
BRANCH   4   7
HETATM    7  C   UNL     1     -10.407  16.570  67.290  1.00  0.00    -0.296 C  
BRANCH   7   8
HETATM    8  C   UNL     1      -9.439  15.408  67.120  1.00  0.00    -0.221 C  
BRANCH   8   9
HETATM    9  C   UNL     1     -10.071  14.049  67.346  1.00  0.00    -0.244 A  
HETATM   10  C   UNL     1      -9.257  12.897  67.295  1.00  0.00    -0.208 A  
HETATM   11  C   UNL     1      -9.822  11.609  67.448  1.00  0.00    -0.197 A  
HETATM   12  C   UNL     1     -11.194  11.531  67.685  1.00  0.00    -0.281 A  
HETATM   13  C   UNL     1     -12.031  12.644  67.731  1.00  0.00    -0.303 A  
HETATM   14  N   UNL     1     -11.510  10.208  67.838  1.00  0.00    -0.636 NA 
HETATM   15  C   UNL     1     -11.449  13.898  67.541  1.00  0.00    -0.368 A  
HETATM   16  H   UNL     1     -12.447   9.847  68.019  1.00  0.00     0.000 HD 
HETATM   17  C   UNL     1     -10.387   9.443  67.712  1.00  0.00    -0.238 A  
HETATM   18  C   UNL     1      -9.314  10.260  67.394  1.00  0.00    -0.163 A  
BRANCH  18  19
HETATM   19  C   UNL     1      -7.898   9.804  67.070  1.00  0.00    -0.102 C  
HETATM   20  C   UNL     1      -7.732   8.270  67.043  1.00  0.00    -0.096 C  
HETATM   21  C   UNL     1      -8.387   7.633  65.806  1.00  0.00    -0.141 C  
HETATM   22  N   UNL     1      -7.961   8.212  64.527  1.00  0.00    -0.138 NA 
HETATM   23  C   UNL     1      -8.062   9.677  64.537  1.00  0.00    -0.143 C  
HETATM   24  C   UNL     1      -6.643   7.739  64.121  1.00  0.00    -0.057 C  
HETATM   25  C   UNL     1      -7.370  10.342  65.729  1.00  0.00    -0.147 C  
ENDBRANCH  18  19
ENDBRANCH   8   9
ENDBRANCH   7   8
ENDBRANCH   4   7
ENDBRANCH   2   4
TORSDOF 5
ENDMDL
MODEL       97
REMARK 921   NORMALIZED FREE ENERGY PREDICTED BY IDOCK:   -4.91 KCAL/MOL
REMARK 922        TOTAL FREE ENERGY PREDICTED BY IDOCK:   -6.69 KCAL/MOL
REMARK 923 INTER-LIGAND FREE ENERGY PREDICTED BY IDOCK:   -6.12 KCAL/MOL
REMARK 924 INTRA-LIGAND FREE ENERGY PREDICTED BY IDOCK:   -0.57 KCAL/MOL
REMARK 927      BINDING AFFINITY PREDICTED BY RF-SCORE:    0.00 PKD
ROOT
HETATM    1  C   UNL     1     -10.661  12.525  64.740  1.00  0.00    -0.302 C  
HETATM    2  N   UNL     1     -10.987  11.282  65.444  1.00  0.00    -0.187 N  
HETATM    3  H   UNL     1     -11.933  10.898  65.429  1.00  0.00     0.000 HD 
ENDROOT
BRANCH   2   4
HETATM    4  S   UNL     1      -9.740  10.509  66.279  1.00  0.00    -0.215 S  
HETATM    5  O   UNL     1      -8.597  11.395  66.261  1.00  0.00    -0.177 OA 
HETATM    6  O   UNL     1      -9.673   9.172  65.739  1.00  0.00    -0.274 OA 
BRANCH   4   7
HETATM    7  C   UNL     1     -10.412  10.436  67.929  1.00  0.00    -0.209 C  
BRANCH   7   8
HETATM    8  C   UNL     1     -11.770  11.120  68.004  1.00  0.00    -0.288 C  
BRANCH   8   9
HETATM    9  C   UNL     1     -11.743  12.454  68.724  1.00  0.00    -0.379 A  
HETATM   10  C   UNL     1     -11.254  13.590  68.045  1.00  0.00    -0.300 A  
HETATM   11  C   UNL     1     -11.164  14.839  68.703  1.00  0.00    -0.288 A  
HETATM   12  C   UNL     1     -11.609  14.905  70.023  1.00  0.00    -0.289 A  
HETATM   13  C   UNL     1     -12.088  13.803  70.730  1.00  0.00    -0.395 A  
HETATM   14  N   UNL     1     -11.467  16.201  70.441  1.00  0.00    -0.421 NA 
HETATM   15  C   UNL     1     -12.130  12.578  70.064  1.00  0.00    -0.337 A  
HETATM   16  H   UNL     1     -11.710  16.547  71.369  1.00  0.00     0.000 HD 
HETATM   17  C   UNL     1     -10.953  16.962  69.432  1.00  0.00    -0.081 A  
HETATM   18  C   UNL     1     -10.674  16.148  68.345  1.00  0.00    -0.298 A  
BRANCH  18  19
HETATM   19  C   UNL     1     -10.001  16.574  67.047  1.00  0.00    -0.268 C  
HETATM   20  C   UNL     1      -9.335  17.964  67.122  1.00  0.00    -0.265 C  
HETATM   21  C   UNL     1      -8.050  17.951  67.967  1.00  0.00    -0.252 C  
HETATM   22  N   UNL     1      -7.068  16.939  67.565  1.00  0.00    -0.141 NA 
HETATM   23  C   UNL     1      -7.682  15.610  67.438  1.00  0.00    -0.187 C  
HETATM   24  C   UNL     1      -6.327  17.335  66.374  1.00  0.00    -0.222 C  
HETATM   25  C   UNL     1      -8.932  15.583  66.555  1.00  0.00    -0.348 C  
ENDBRANCH  18  19
ENDBRANCH   8   9
ENDBRANCH   7   8
ENDBRANCH   4   7
ENDBRANCH   2   4
TORSDOF 5
ENDMDL
MODEL       98
REMARK 921   NORMALIZED FREE ENERGY PREDICTED BY IDOCK:   -4.90 KCAL/MOL
REMARK 922        TOTAL FREE ENERGY PREDICTED BY IDOCK:   -6.67 KCAL/MOL
REMARK 923 INTER-LIGAND FREE ENERGY PREDICTED BY IDOCK:   -6.27 KCAL/MOL
REMARK 924 INTRA-LIGAND FREE ENERGY PREDICTED BY IDOCK:   -0.41 KCAL/MOL
REMARK 927      BINDING AFFINITY PREDICTED BY RF-SCORE:    0.00 PKD
ROOT
HETATM    1  C   UNL     1      -7.341   7.751  68.541  1.00  0.00    -0.091 C  
HETATM    2  N   UNL     1      -8.041   8.921  68.004  1.00  0.00    -0.106 N  
HETATM    3  H   UNL     1      -8.980   9.165  68.318  1.00  0.00     0.000 HD 
ENDROOT
BRANCH   2   4
HETATM    4  S   UNL     1      -7.234   9.849  66.847  1.00  0.00    -0.091 S  
HETATM    5  O   UNL     1      -6.003   9.161  66.526  1.00  0.00    -0.057 OA 
HETATM    6  O   UNL     1      -7.239  11.201  67.353  1.00  0.00    -0.096 OA 
BRANCH   4   7
HETATM    7  C   UNL     1      -8.354   9.742  65.465  1.00  0.00    -0.136 C  
BRANCH   7   8
HETATM    8  C   UNL     1      -9.782  10.061  65.884  1.00  0.00    -0.309 C  
BRANCH   8   9
HETATM    9  C   UNL     1     -10.309  11.364  65.315  1.00  0.00    -0.336 A  
HETATM   10  C   UNL     1     -10.100  12.561  66.032  1.00  0.00    -0.268 A  
HETATM   11  C   UNL     1     -10.623  13.786  65.558  1.00  0.00    -0.312 A  
HETATM   12  C   UNL     1     -11.314  13.766  64.347  1.00  0.00    -0.360 A  
HETATM   13  C   UNL     1     -11.550  12.603  63.615  1.00  0.00    -0.575 A  
HETATM   14  N   UNL     1     -11.692  15.051  64.067  1.00  0.00    -0.789 NA 
HETATM   15  C   UNL     1     -11.052  11.405  64.129  1.00  0.00    -0.382 A  
HETATM   16  H   UNL     1     -12.218  15.341  63.243  1.00  0.00     0.000 HD 
HETATM   17  C   UNL     1     -11.260  15.889  65.054  1.00  0.00    -0.290 A  
HETATM   18  C   UNL     1     -10.651  15.142  66.050  1.00  0.00    -0.329 A  
BRANCH  18  19
HETATM   19  C   UNL     1     -10.117  15.670  67.375  1.00  0.00    -0.251 C  
HETATM   20  C   UNL     1      -8.635  15.321  67.630  1.00  0.00    -0.178 C  
HETATM   21  C   UNL     1      -7.682  16.137  66.741  1.00  0.00    -0.253 C  
HETATM   22  N   UNL     1      -7.880  17.589  66.810  1.00  0.00    -0.214 NA 
HETATM   23  C   UNL     1      -9.290  17.952  66.619  1.00  0.00    -0.286 C  
HETATM   24  C   UNL     1      -7.308  18.165  68.021  1.00  0.00    -0.234 C  
HETATM   25  C   UNL     1     -10.259  17.194  67.531  1.00  0.00    -0.323 C  
ENDBRANCH  18  19
ENDBRANCH   8   9
ENDBRANCH   7   8
ENDBRANCH   4   7
ENDBRANCH   2   4
TORSDOF 5
ENDMDL
MODEL       99
REMARK 921   NORMALIZED FREE ENERGY PREDICTED BY IDOCK:   -4.90 KCAL/MOL
REMARK 922        TOTAL FREE ENERGY PREDICTED BY IDOCK:   -6.67 KCAL/MOL
REMARK 923 INTER-LIGAND FREE ENERGY PREDICTED BY IDOCK:   -6.40 KCAL/MOL
REMARK 924 INTRA-LIGAND FREE ENERGY PREDICTED BY IDOCK:   -0.27 KCAL/MOL
REMARK 927      BINDING AFFINITY PREDICTED BY RF-SCORE:    0.00 PKD
ROOT
HETATM    1  C   UNL     1      -9.986   9.659  65.869  1.00  0.00    -0.281 C  
HETATM    2  N   UNL     1     -10.295   9.650  67.302  1.00  0.00    -0.233 N  
HETATM    3  H   UNL     1     -10.244   8.790  67.848  1.00  0.00     0.000 HD 
ENDROOT
BRANCH   2   4
HETATM    4  S   UNL     1     -10.737  11.116  68.012  1.00  0.00    -0.229 S  
HETATM    5  O   UNL     1     -10.174  11.135  69.344  1.00  0.00    -0.145 OA 
HETATM    6  O   UNL     1     -12.156  11.252  67.786  1.00  0.00    -0.631 OA 
BRANCH   4   7
HETATM    7  C   UNL     1      -9.870  12.284  66.982  1.00  0.00    -0.205 C  
BRANCH   7   8
HETATM    8  C   UNL     1      -8.891  13.119  67.795  1.00  0.00    -0.191 C  
BRANCH   8   9
HETATM    9  C   UNL     1      -9.370  14.531  68.066  1.00  0.00    -0.201 A  
HETATM   10  C   UNL     1      -8.463  15.602  67.927  1.00  0.00    -0.153 A  
HETATM   11  C   UNL     1      -8.861  16.927  68.224  1.00  0.00    -0.228 A  
HETATM   12  C   UNL     1     -10.183  17.129  68.619  1.00  0.00    -0.336 A  
HETATM   13  C   UNL     1     -11.105  16.096  68.779  1.00  0.00    -0.354 A  
HETATM   14  N   UNL     1     -10.353  18.473  68.814  1.00  0.00    -0.440 NA 
HETATM   15  C   UNL     1     -10.670  14.796  68.513  1.00  0.00    -0.247 A  
HETATM   16  H   UNL     1     -11.222  18.916  69.112  1.00  0.00     0.000 HD 
HETATM   17  C   UNL     1      -9.189  19.133  68.551  1.00  0.00    -0.376 A  
HETATM   18  C   UNL     1      -8.200  18.209  68.249  1.00  0.00    -0.300 A  
BRANCH  18  19
HETATM   19  C   UNL     1      -6.731  18.512  67.989  1.00  0.00    -0.222 C  
HETATM   20  C   UNL     1      -6.306  18.309  66.519  1.00  0.00    -0.225 C  
HETATM   21  C   UNL     1      -6.858  19.408  65.596  1.00  0.00    -0.291 C  
HETATM   22  N   UNL     1      -6.552  20.776  66.027  1.00  0.00    -0.219 NA 
HETATM   23  C   UNL     1      -6.900  20.988  67.439  1.00  0.00    -0.371 C  
HETATM   24  C   UNL     1      -5.177  21.154  65.722  1.00  0.00    -0.208 C  
HETATM   25  C   UNL     1      -6.317  19.939  68.389  1.00  0.00    -0.308 C  
ENDBRANCH  18  19
ENDBRANCH   8   9
ENDBRANCH   7   8
ENDBRANCH   4   7
ENDBRANCH   2   4
TORSDOF 5
ENDMDL
MODEL      100
REMARK 921   NORMALIZED FREE ENERGY PREDICTED BY IDOCK:   -4.87 KCAL/MOL
REMARK 922        TOTAL FREE ENERGY PREDICTED BY IDOCK:   -6.64 KCAL/MOL
REMARK 923 INTER-LIGAND FREE ENERGY PREDICTED BY IDOCK:   -6.41 KCAL/MOL
REMARK 924 INTRA-LIGAND FREE ENERGY PREDICTED BY IDOCK:   -0.22 KCAL/MOL
REMARK 927      BINDING AFFINITY PREDICTED BY RF-SCORE:    0.00 PKD
ROOT
HETATM    1  C   UNL     1     -10.449  19.768  65.717  1.00  0.00    -0.445 C  
HETATM    2  N   UNL     1      -9.493  18.924  66.440  1.00  0.00    -0.338 N  
HETATM    3  H   UNL     1      -8.912  18.244  65.950  1.00  0.00     0.000 HD 
ENDROOT
BRANCH   2   4
HETATM    4  S   UNL     1      -9.390  19.122  68.113  1.00  0.00    -0.352 S  
HETATM    5  O   UNL     1     -10.409  20.074  68.498  1.00  0.00    -0.438 OA 
HETATM    6  O   UNL     1      -7.992  19.351  68.398  1.00  0.00    -0.317 OA 
BRANCH   4   7
HETATM    7  C   UNL     1      -9.842  17.498  68.690  1.00  0.00    -0.338 C  
BRANCH   7   8
HETATM    8  C   UNL     1      -9.612  16.445  67.615  1.00  0.00    -0.227 C  
BRANCH   8   9
HETATM    9  C   UNL     1     -10.308  15.127  67.893  1.00  0.00    -0.241 A  
HETATM   10  C   UNL     1      -9.829  13.955  67.272  1.00  0.00    -0.244 A  
HETATM   11  C   UNL     1     -10.486  12.717  67.465  1.00  0.00    -0.223 A  
HETATM   12  C   UNL     1     -11.592  12.701  68.315  1.00  0.00    -0.332 A  
HETATM   13  C   UNL     1     -12.101  13.839  68.937  1.00  0.00    -0.348 A  
HETATM   14  N   UNL     1     -12.039  11.409  68.384  1.00  0.00    -0.585 NA 
HETATM   15  C   UNL     1     -11.452  15.051  68.697  1.00  0.00    -0.329 A  
HETATM   16  H   UNL     1     -12.841  11.095  68.930  1.00  0.00     0.000 HD 
HETATM   17  C   UNL     1     -11.254  10.603  67.612  1.00  0.00    -0.290 A  
HETATM   18  C   UNL     1     -10.312  11.379  66.956  1.00  0.00    -0.258 A  
BRANCH  18  19
HETATM   19  C   UNL     1      -9.304  10.893  65.923  1.00  0.00    -0.226 C  
HETATM   20  C   UNL     1      -7.839  10.966  66.404  1.00  0.00    -0.154 C  
HETATM   21  C   UNL     1      -7.515   9.893  67.455  1.00  0.00    -0.091 C  
HETATM   22  N   UNL     1      -7.847   8.523  67.048  1.00  0.00    -0.096 NA 
HETATM   23  C   UNL     1      -9.222   8.428  66.539  1.00  0.00    -0.189 C  
HETATM   24  C   UNL     1      -6.863   7.971  66.124  1.00  0.00    -0.058 C  
HETATM   25  C   UNL     1      -9.555   9.451  65.450  1.00  0.00    -0.296 C  
ENDBRANCH  18  19
ENDBRANCH   8   9
ENDBRANCH   7   8
ENDBRANCH   4   7
ENDBRANCH   2   4
TORSDOF 5
ENDMDL
MODEL      101
REMARK 921   NORMALIZED FREE ENERGY PREDICTED BY IDOCK:   -4.87 KCAL/MOL
REMARK 922        TOTAL FREE ENERGY PREDICTED BY IDOCK:   -6.63 KCAL/MOL
REMARK 923 INTER-LIGAND FREE ENERGY PREDICTED BY IDOCK:   -6.32 KCAL/MOL
REMARK 924 INTRA-LIGAND FREE ENERGY PREDICTED BY IDOCK:   -0.31 KCAL/MOL
REMARK 927      BINDING AFFINITY PREDICTED BY RF-SCORE:    0.00 PKD
ROOT
HETATM    1  C   UNL     1     -10.123  18.233  68.105  1.00  0.00    -0.379 C  
HETATM    2  N   UNL     1      -9.786  16.825  67.875  1.00  0.00    -0.251 N  
HETATM    3  H   UNL     1      -9.043  16.559  67.228  1.00  0.00     0.000 HD 
ENDROOT
BRANCH   2   4
HETATM    4  S   UNL     1     -10.673  15.663  68.719  1.00  0.00    -0.265 S  
HETATM    5  O   UNL     1     -12.004  15.644  68.154  1.00  0.00    -0.207 OA 
HETATM    6  O   UNL     1     -10.446  15.935  70.119  1.00  0.00    -0.301 OA 
BRANCH   4   7
HETATM    7  C   UNL     1      -9.813  14.168  68.271  1.00  0.00    -0.235 C  
BRANCH   7   8
HETATM    8  C   UNL     1     -10.785  13.077  67.846  1.00  0.00    -0.249 C  
BRANCH   8   9
HETATM    9  C   UNL     1     -11.132  12.102  68.954  1.00  0.00    -0.292 A  
HETATM   10  C   UNL     1     -10.454  10.867  69.018  1.00  0.00    -0.244 A  
HETATM   11  C   UNL     1     -10.789   9.911  70.006  1.00  0.00    -0.339 A  
HETATM   12  C   UNL     1     -11.780  10.254  70.924  1.00  0.00    -0.379 A  
HETATM   13  C   UNL     1     -12.480  11.459  70.887  1.00  0.00    -0.478 A  
HETATM   14  N   UNL     1     -11.910   9.210  71.799  1.00  0.00    -0.363 NA 
HETATM   15  C   UNL     1     -12.151  12.366  69.878  1.00  0.00    -0.317 A  
HETATM   16  H   UNL     1     -12.566   9.178  72.579  1.00  0.00     0.000 HD 
HETATM   17  C   UNL     1     -11.033   8.217  71.473  1.00  0.00    -0.254 A  
HETATM   18  C   UNL     1     -10.357   8.570  70.315  1.00  0.00    -0.218 A  
BRANCH  18  19
HETATM   19  C   UNL     1      -9.361   7.706  69.553  1.00  0.00    -0.153 C  
HETATM   20  C   UNL     1      -9.634   6.192  69.673  1.00  0.00    -0.171 C  
HETATM   21  C   UNL     1     -10.867   5.756  68.864  1.00  0.00    -0.235 C  
HETATM   22  N   UNL     1     -10.843   6.158  67.454  1.00  0.00    -0.322 NA 
HETATM   23  C   UNL     1     -10.537   7.587  67.304  1.00  0.00    -0.324 C  
HETATM   24  C   UNL     1      -9.970   5.306  66.655  1.00  0.00    -0.202 C  
HETATM   25  C   UNL     1      -9.281   8.038  68.053  1.00  0.00    -0.139 C  
ENDBRANCH  18  19
ENDBRANCH   8   9
ENDBRANCH   7   8
ENDBRANCH   4   7
ENDBRANCH   2   4
TORSDOF 5
ENDMDL
MODEL      102
REMARK 921   NORMALIZED FREE ENERGY PREDICTED BY IDOCK:   -4.86 KCAL/MOL
REMARK 922        TOTAL FREE ENERGY PREDICTED BY IDOCK:   -6.62 KCAL/MOL
REMARK 923 INTER-LIGAND FREE ENERGY PREDICTED BY IDOCK:   -7.47 KCAL/MOL
REMARK 924 INTRA-LIGAND FREE ENERGY PREDICTED BY IDOCK:    0.85 KCAL/MOL
REMARK 927      BINDING AFFINITY PREDICTED BY RF-SCORE:    0.00 PKD
ROOT
HETATM    1  C   UNL     1     -12.557  15.006  73.673  1.00  0.00    -0.533 C  
HETATM    2  N   UNL     1     -12.047  15.957  72.682  1.00  0.00    -0.465 N  
HETATM    3  H   UNL     1     -11.595  16.827  72.967  1.00  0.00     0.000 HD 
ENDROOT
BRANCH   2   4
HETATM    4  S   UNL     1     -12.236  15.560  71.052  1.00  0.00    -0.434 S  
HETATM    5  O   UNL     1     -11.275  16.341  70.305  1.00  0.00    -0.367 OA 
HETATM    6  O   UNL     1     -13.653  15.645  70.787  1.00  0.00    -0.524 OA 
BRANCH   4   7
HETATM    7  C   UNL     1     -11.746  13.847  71.047  1.00  0.00     0.108 C  
BRANCH   7   8
HETATM    8  C   UNL     1     -12.643  13.018  70.139  1.00  0.00    -0.047 C  
BRANCH   8   9
HETATM    9  C   UNL     1     -11.893  11.997  69.306  1.00  0.00    -0.377 A  
HETATM   10  C   UNL     1     -11.738  12.221  67.922  1.00  0.00    -0.410 A  
HETATM   11  C   UNL     1     -11.091  11.264  67.105  1.00  0.00    -0.364 A  
HETATM   12  C   UNL     1     -10.587  10.122  67.726  1.00  0.00    -0.256 A  
HETATM   13  C   UNL     1     -10.731   9.860  69.088  1.00  0.00    -0.247 A  
HETATM   14  N   UNL     1      -9.976   9.365  66.764  1.00  0.00    -0.220 NA 
HETATM   15  C   UNL     1     -11.406  10.806  69.860  1.00  0.00    -0.385 A  
HETATM   16  H   UNL     1      -9.520   8.468  66.926  1.00  0.00     0.000 HD 
HETATM   17  C   UNL     1     -10.068   9.989  65.553  1.00  0.00    -0.255 A  
HETATM   18  C   UNL     1     -10.820  11.145  65.693  1.00  0.00    -0.206 A  
BRANCH  18  19
HETATM   19  C   UNL     1     -11.247  12.084  64.573  1.00  0.00    -0.390 C  
HETATM   20  C   UNL     1     -12.567  12.830  64.860  1.00  0.00    -0.541 C  
HETATM   21  C   UNL     1     -12.400  13.924  65.926  1.00  0.00    -0.483 C  
HETATM   22  N   UNL     1     -11.326  14.884  65.650  1.00  0.00    -0.342 NA 
HETATM   23  C   UNL     1     -10.064  14.204  65.326  1.00  0.00    -0.335 C  
HETATM   24  C   UNL     1     -11.712  15.867  64.645  1.00  0.00    -0.117 C  
HETATM   25  C   UNL     1     -10.190  13.147  64.226  1.00  0.00    -0.283 C  
ENDBRANCH  18  19
ENDBRANCH   8   9
ENDBRANCH   7   8
ENDBRANCH   4   7
ENDBRANCH   2   4
TORSDOF 5
ENDMDL
MODEL      103
REMARK 921   NORMALIZED FREE ENERGY PREDICTED BY IDOCK:   -4.86 KCAL/MOL
REMARK 922        TOTAL FREE ENERGY PREDICTED BY IDOCK:   -6.62 KCAL/MOL
REMARK 923 INTER-LIGAND FREE ENERGY PREDICTED BY IDOCK:   -6.38 KCAL/MOL
REMARK 924 INTRA-LIGAND FREE ENERGY PREDICTED BY IDOCK:   -0.24 KCAL/MOL
REMARK 927      BINDING AFFINITY PREDICTED BY RF-SCORE:    0.00 PKD
ROOT
HETATM    1  C   UNL     1      -9.909   3.961  64.085  1.00  0.00    -0.181 C  
HETATM    2  N   UNL     1      -9.681   4.900  65.187  1.00  0.00    -0.355 N  
HETATM    3  H   UNL     1     -10.312   4.939  65.987  1.00  0.00     0.000 HD 
ENDROOT
BRANCH   2   4
HETATM    4  S   UNL     1      -8.335   5.913  65.081  1.00  0.00    -0.124 S  
HETATM    5  O   UNL     1      -8.132   6.215  63.681  1.00  0.00    -0.118 OA 
HETATM    6  O   UNL     1      -7.306   5.287  65.879  1.00  0.00    -0.078 OA 
BRANCH   4   7
HETATM    7  C   UNL     1      -8.920   7.368  65.927  1.00  0.00    -0.077 C  
BRANCH   7   8
HETATM    8  C   UNL     1      -9.975   7.017  66.966  1.00  0.00    -0.273 C  
BRANCH   8   9
HETATM    9  C   UNL     1     -10.363   8.180  67.859  1.00  0.00    -0.280 A  
HETATM   10  C   UNL     1     -10.778   9.391  67.267  1.00  0.00    -0.258 A  
HETATM   11  C   UNL     1     -11.096  10.512  68.068  1.00  0.00    -0.361 A  
HETATM   12  C   UNL     1     -11.018  10.359  69.452  1.00  0.00    -0.251 A  
HETATM   13  C   UNL     1     -10.601   9.183  70.073  1.00  0.00    -0.250 A  
HETATM   14  N   UNL     1     -11.402  11.544  70.020  1.00  0.00    -0.492 NA 
HETATM   15  C   UNL     1     -10.259   8.106  69.254  1.00  0.00    -0.216 A  
HETATM   16  H   UNL     1     -11.439  11.728  71.022  1.00  0.00     0.000 HD 
HETATM   17  C   UNL     1     -11.727  12.443  69.046  1.00  0.00    -0.323 A  
HETATM   18  C   UNL     1     -11.484  11.877  67.805  1.00  0.00    -0.389 A  
BRANCH  18  19
HETATM   19  C   UNL     1     -11.619  12.570  66.455  1.00  0.00    -0.449 C  
HETATM   20  C   UNL     1     -12.408  13.894  66.514  1.00  0.00    -0.447 C  
HETATM   21  C   UNL     1     -11.608  15.021  67.188  1.00  0.00    -0.261 C  
HETATM   22  N   UNL     1     -10.277  15.249  66.616  1.00  0.00    -0.264 NA 
HETATM   23  C   UNL     1      -9.517  13.997  66.501  1.00  0.00    -0.279 C  
HETATM   24  C   UNL     1     -10.339  15.990  65.361  1.00  0.00    -0.359 C  
HETATM   25  C   UNL     1     -10.269  12.874  65.783  1.00  0.00    -0.298 C  
ENDBRANCH  18  19
ENDBRANCH   8   9
ENDBRANCH   7   8
ENDBRANCH   4   7
ENDBRANCH   2   4
TORSDOF 5
ENDMDL
MODEL      104
REMARK 921   NORMALIZED FREE ENERGY PREDICTED BY IDOCK:   -4.85 KCAL/MOL
REMARK 922        TOTAL FREE ENERGY PREDICTED BY IDOCK:   -6.62 KCAL/MOL
REMARK 923 INTER-LIGAND FREE ENERGY PREDICTED BY IDOCK:   -6.33 KCAL/MOL
REMARK 924 INTRA-LIGAND FREE ENERGY PREDICTED BY IDOCK:   -0.28 KCAL/MOL
REMARK 927      BINDING AFFINITY PREDICTED BY RF-SCORE:    0.00 PKD
ROOT
HETATM    1  C   UNL     1     -10.409  18.591  66.523  1.00  0.00    -0.414 C  
HETATM    2  N   UNL     1     -10.537  17.292  65.857  1.00  0.00    -0.283 N  
HETATM    3  H   UNL     1     -11.042  17.197  64.976  1.00  0.00     0.000 HD 
ENDROOT
BRANCH   2   4
HETATM    4  S   UNL     1      -9.817  15.959  66.603  1.00  0.00    -0.269 S  
HETATM    5  O   UNL     1      -8.629  16.434  67.277  1.00  0.00    -0.173 OA 
HETATM    6  O   UNL     1      -9.756  14.928  65.594  1.00  0.00    -0.335 OA 
BRANCH   4   7
HETATM    7  C   UNL     1     -11.053  15.519  67.810  1.00  0.00    -0.315 C  
BRANCH   7   8
HETATM    8  C   UNL     1     -11.931  14.380  67.312  1.00  0.00    -0.409 C  
BRANCH   8   9
HETATM    9  C   UNL     1     -11.708  13.072  68.046  1.00  0.00    -0.397 A  
HETATM   10  C   UNL     1     -11.155  11.978  67.347  1.00  0.00    -0.337 A  
HETATM   11  C   UNL     1     -10.983  10.728  67.985  1.00  0.00    -0.336 A  
HETATM   12  C   UNL     1     -11.345  10.635  69.328  1.00  0.00    -0.282 A  
HETATM   13  C   UNL     1     -11.905  11.688  70.049  1.00  0.00    -0.435 A  
HETATM   14  N   UNL     1     -11.060   9.362  69.745  1.00  0.00    -0.354 NA 
HETATM   15  C   UNL     1     -12.095  12.898  69.381  1.00  0.00    -0.254 A  
HETATM   16  H   UNL     1     -11.224   9.003  70.685  1.00  0.00     0.000 HD 
HETATM   17  C   UNL     1     -10.523   8.645  68.715  1.00  0.00    -0.185 A  
HETATM   18  C   UNL     1     -10.520   9.426  67.570  1.00  0.00    -0.343 A  
BRANCH  18  19
HETATM   19  C   UNL     1     -10.099   8.981  66.176  1.00  0.00    -0.242 C  
HETATM   20  C   UNL     1      -9.649  10.142  65.264  1.00  0.00    -0.338 C  
HETATM   21  C   UNL     1      -8.276  10.704  65.670  1.00  0.00    -0.154 C  
HETATM   22  N   UNL     1      -7.213   9.698  65.773  1.00  0.00    -0.096 NA 
HETATM   23  C   UNL     1      -7.629   8.555  66.597  1.00  0.00    -0.082 C  
HETATM   24  C   UNL     1      -6.707   9.298  64.466  1.00  0.00    -0.085 C  
HETATM   25  C   UNL     1      -8.967   7.939  66.179  1.00  0.00    -0.214 C  
ENDBRANCH  18  19
ENDBRANCH   8   9
ENDBRANCH   7   8
ENDBRANCH   4   7
ENDBRANCH   2   4
TORSDOF 5
ENDMDL
MODEL      105
REMARK 921   NORMALIZED FREE ENERGY PREDICTED BY IDOCK:   -4.85 KCAL/MOL
REMARK 922        TOTAL FREE ENERGY PREDICTED BY IDOCK:   -6.61 KCAL/MOL
REMARK 923 INTER-LIGAND FREE ENERGY PREDICTED BY IDOCK:   -6.58 KCAL/MOL
REMARK 924 INTRA-LIGAND FREE ENERGY PREDICTED BY IDOCK:   -0.02 KCAL/MOL
REMARK 927      BINDING AFFINITY PREDICTED BY RF-SCORE:    0.00 PKD
ROOT
HETATM    1  C   UNL     1      -7.447  18.775  65.847  1.00  0.00    -0.198 C  
HETATM    2  N   UNL     1      -8.108  19.360  67.017  1.00  0.00    -0.259 N  
HETATM    3  H   UNL     1      -7.666  19.347  67.936  1.00  0.00     0.000 HD 
ENDROOT
BRANCH   2   4
HETATM    4  S   UNL     1      -9.628  20.058  66.785  1.00  0.00    -0.438 S  
HETATM    5  O   UNL     1      -9.838  20.167  65.359  1.00  0.00    -0.212 OA 
HETATM    6  O   UNL     1      -9.667  21.215  67.649  1.00  0.00    -0.274 OA 
BRANCH   4   7
HETATM    7  C   UNL     1     -10.700  18.799  67.451  1.00  0.00    -0.424 C  
BRANCH   7   8
HETATM    8  C   UNL     1     -10.014  17.441  67.469  1.00  0.00    -0.298 C  
BRANCH   8   9
HETATM    9  C   UNL     1     -10.631  16.433  66.519  1.00  0.00    -0.235 A  
HETATM   10  C   UNL     1     -10.869  15.119  66.973  1.00  0.00    -0.314 A  
HETATM   11  C   UNL     1     -11.394  14.138  66.099  1.00  0.00    -0.337 A  
HETATM   12  C   UNL     1     -11.697  14.532  64.796  1.00  0.00    -0.422 A  
HETATM   13  C   UNL     1     -11.466  15.817  64.308  1.00  0.00    -0.203 A  
HETATM   14  N   UNL     1     -12.221  13.446  64.149  1.00  0.00    -0.567 NA 
HETATM   15  C   UNL     1     -10.913  16.752  65.185  1.00  0.00    -0.109 A  
HETATM   16  H   UNL     1     -12.531  13.437  63.178  1.00  0.00     0.000 HD 
HETATM   17  C   UNL     1     -12.268  12.378  64.996  1.00  0.00    -0.399 A  
HETATM   18  C   UNL     1     -11.695  12.731  66.207  1.00  0.00    -0.460 A  
BRANCH  18  19
HETATM   19  C   UNL     1     -11.455  11.810  67.396  1.00  0.00    -0.375 C  
HETATM   20  C   UNL     1     -10.981  10.396  66.998  1.00  0.00    -0.222 C  
HETATM   21  C   UNL     1      -9.527  10.387  66.499  1.00  0.00    -0.167 C  
HETATM   22  N   UNL     1      -8.564  11.005  67.417  1.00  0.00    -0.131 NA 
HETATM   23  C   UNL     1      -9.011  12.335  67.852  1.00  0.00    -0.186 C  
HETATM   24  C   UNL     1      -8.228  10.128  68.532  1.00  0.00    -0.111 C  
HETATM   25  C   UNL     1     -10.437  12.364  68.407  1.00  0.00    -0.245 C  
ENDBRANCH  18  19
ENDBRANCH   8   9
ENDBRANCH   7   8
ENDBRANCH   4   7
ENDBRANCH   2   4
TORSDOF 5
ENDMDL
MODEL      106
REMARK 921   NORMALIZED FREE ENERGY PREDICTED BY IDOCK:   -4.84 KCAL/MOL
REMARK 922        TOTAL FREE ENERGY PREDICTED BY IDOCK:   -6.60 KCAL/MOL
REMARK 923 INTER-LIGAND FREE ENERGY PREDICTED BY IDOCK:   -6.60 KCAL/MOL
REMARK 924 INTRA-LIGAND FREE ENERGY PREDICTED BY IDOCK:    0.00 KCAL/MOL
REMARK 927      BINDING AFFINITY PREDICTED BY RF-SCORE:    0.00 PKD
ROOT
HETATM    1  C   UNL     1      -7.921   5.550  63.944  1.00  0.00    -0.116 C  
HETATM    2  N   UNL     1      -8.433   6.919  64.046  1.00  0.00    -0.333 N  
HETATM    3  H   UNL     1      -9.426   7.123  63.931  1.00  0.00     0.000 HD 
ENDROOT
BRANCH   2   4
HETATM    4  S   UNL     1      -7.317   8.147  64.360  1.00  0.00    -0.099 S  
HETATM    5  O   UNL     1      -6.691   8.491  63.102  1.00  0.00    -0.089 OA 
HETATM    6  O   UNL     1      -6.545   7.697  65.494  1.00  0.00    -0.044 OA 
BRANCH   4   7
HETATM    7  C   UNL     1      -8.388   9.475  64.876  1.00  0.00    -0.146 C  
BRANCH   7   8
HETATM    8  C   UNL     1      -8.908  10.261  63.682  1.00  0.00    -0.233 C  
BRANCH   8   9
HETATM    9  C   UNL     1     -10.033  11.218  64.024  1.00  0.00    -0.362 A  
HETATM   10  C   UNL     1      -9.964  11.957  65.224  1.00  0.00    -0.280 A  
HETATM   11  C   UNL     1     -11.020  12.819  65.601  1.00  0.00    -0.302 A  
HETATM   12  C   UNL     1     -12.102  12.933  64.729  1.00  0.00    -0.422 A  
HETATM   13  C   UNL     1     -12.212  12.211  63.541  1.00  0.00    -0.670 A  
HETATM   14  N   UNL     1     -12.974  13.837  65.271  1.00  0.00    -0.754 NA 
HETATM   15  C   UNL     1     -11.170  11.342  63.215  1.00  0.00    -0.152 A  
HETATM   16  H   UNL     1     -13.861  14.119  64.852  1.00  0.00     0.000 HD 
HETATM   17  C   UNL     1     -12.483  14.308  66.453  1.00  0.00    -0.256 A  
HETATM   18  C   UNL     1     -11.299  13.650  66.747  1.00  0.00    -0.346 A  
BRANCH  18  19
HETATM   19  C   UNL     1     -10.474  13.802  68.019  1.00  0.00    -0.245 C  
HETATM   20  C   UNL     1     -10.283  15.267  68.463  1.00  0.00    -0.224 C  
HETATM   21  C   UNL     1     -11.572  15.874  69.041  1.00  0.00    -0.389 C  
HETATM   22  N   UNL     1     -12.183  15.092  70.121  1.00  0.00    -0.328 NA 
HETATM   23  C   UNL     1     -12.334  13.679  69.746  1.00  0.00    -0.228 C  
HETATM   24  C   UNL     1     -11.484  15.268  71.389  1.00  0.00    -0.389 C  
HETATM   25  C   UNL     1     -11.050  13.033  69.220  1.00  0.00    -0.194 C  
ENDBRANCH  18  19
ENDBRANCH   8   9
ENDBRANCH   7   8
ENDBRANCH   4   7
ENDBRANCH   2   4
TORSDOF 5
ENDMDL
MODEL      107
REMARK 921   NORMALIZED FREE ENERGY PREDICTED BY IDOCK:   -4.80 KCAL/MOL
REMARK 922        TOTAL FREE ENERGY PREDICTED BY IDOCK:   -6.55 KCAL/MOL
REMARK 923 INTER-LIGAND FREE ENERGY PREDICTED BY IDOCK:   -6.27 KCAL/MOL
REMARK 924 INTRA-LIGAND FREE ENERGY PREDICTED BY IDOCK:   -0.28 KCAL/MOL
REMARK 927      BINDING AFFINITY PREDICTED BY RF-SCORE:    0.00 PKD
ROOT
HETATM    1  C   UNL     1      -9.168   4.465  64.273  1.00  0.00    -0.145 C  
HETATM    2  N   UNL     1      -8.148   5.345  64.850  1.00  0.00    -0.115 N  
HETATM    3  H   UNL     1      -7.455   5.807  64.262  1.00  0.00     0.000 HD 
ENDROOT
BRANCH   2   4
HETATM    4  S   UNL     1      -8.165   5.565  66.524  1.00  0.00    -0.106 S  
HETATM    5  O   UNL     1      -6.849   6.025  66.910  1.00  0.00    -0.059 OA 
HETATM    6  O   UNL     1      -8.740   4.360  67.074  1.00  0.00    -0.107 OA 
BRANCH   4   7
HETATM    7  C   UNL     1      -9.336   6.898  66.694  1.00  0.00    -0.163 C  
BRANCH   7   8
HETATM    8  C   UNL     1      -8.634   8.247  66.743  1.00  0.00    -0.131 C  
BRANCH   8   9
HETATM    9  C   UNL     1      -9.043   9.189  65.627  1.00  0.00    -0.273 A  
HETATM   10  C   UNL     1      -9.924  10.252  65.914  1.00  0.00    -0.321 A  
HETATM   11  C   UNL     1     -10.368  11.117  64.887  1.00  0.00    -0.375 A  
HETATM   12  C   UNL     1      -9.874  10.898  63.601  1.00  0.00    -0.351 A  
HETATM   13  C   UNL     1      -9.012   9.853  63.277  1.00  0.00    -0.276 A  
HETATM   14  N   UNL     1     -10.401  11.865  62.788  1.00  0.00    -0.432 NA 
HETATM   15  C   UNL     1      -8.621   8.995  64.306  1.00  0.00    -0.171 A  
HETATM   16  H   UNL     1     -10.218  11.953  61.788  1.00  0.00     0.000 HD 
HETATM   17  C   UNL     1     -11.207  12.694  63.512  1.00  0.00    -0.429 A  
HETATM   18  C   UNL     1     -11.284  12.230  64.815  1.00  0.00    -0.364 A  
BRANCH  18  19
HETATM   19  C   UNL     1     -12.152  12.803  65.928  1.00  0.00    -0.485 C  
HETATM   20  C   UNL     1     -11.559  12.611  67.339  1.00  0.00    -0.421 C  
HETATM   21  C   UNL     1     -10.353  13.530  67.594  1.00  0.00    -0.239 C  
HETATM   22  N   UNL     1     -10.607  14.952  67.340  1.00  0.00    -0.259 NA 
HETATM   23  C   UNL     1     -11.217  15.164  66.021  1.00  0.00    -0.275 C  
HETATM   24  C   UNL     1     -11.362  15.577  68.419  1.00  0.00    -0.354 C  
HETATM   25  C   UNL     1     -12.455  14.302  65.761  1.00  0.00    -0.421 C  
ENDBRANCH  18  19
ENDBRANCH   8   9
ENDBRANCH   7   8
ENDBRANCH   4   7
ENDBRANCH   2   4
TORSDOF 5
ENDMDL
MODEL      108
REMARK 921   NORMALIZED FREE ENERGY PREDICTED BY IDOCK:   -4.80 KCAL/MOL
REMARK 922        TOTAL FREE ENERGY PREDICTED BY IDOCK:   -6.55 KCAL/MOL
REMARK 923 INTER-LIGAND FREE ENERGY PREDICTED BY IDOCK:   -6.09 KCAL/MOL
REMARK 924 INTRA-LIGAND FREE ENERGY PREDICTED BY IDOCK:   -0.46 KCAL/MOL
REMARK 927      BINDING AFFINITY PREDICTED BY RF-SCORE:    0.00 PKD
ROOT
HETATM    1  C   UNL     1     -12.182  16.142  74.061  1.00  0.00    -0.500 C  
HETATM    2  N   UNL     1     -13.326  15.860  73.191  1.00  0.00    -0.585 N  
HETATM    3  H   UNL     1     -14.262  16.197  73.421  1.00  0.00     0.000 HD 
ENDROOT
BRANCH   2   4
HETATM    4  S   UNL     1     -13.040  14.958  71.794  1.00  0.00    -0.372 S  
HETATM    5  O   UNL     1     -14.282  14.901  71.056  1.00  0.00    -0.320 OA 
HETATM    6  O   UNL     1     -12.361  13.760  72.230  1.00  0.00    -0.037 OA 
BRANCH   4   7
HETATM    7  C   UNL     1     -11.880  16.001  70.931  1.00  0.00    -0.373 C  
BRANCH   7   8
HETATM    8  C   UNL     1     -10.695  15.199  70.413  1.00  0.00    -0.211 C  
BRANCH   8   9
HETATM    9  C   UNL     1     -10.994  14.411  69.153  1.00  0.00    -0.288 A  
HETATM   10  C   UNL     1     -10.379  13.156  68.966  1.00  0.00     0.025 A  
HETATM   11  C   UNL     1     -10.593  12.417  67.779  1.00  0.00    -0.236 A  
HETATM   12  C   UNL     1     -11.457  12.961  66.829  1.00  0.00    -0.340 A  
HETATM   13  C   UNL     1     -12.074  14.203  66.972  1.00  0.00    -0.449 A  
HETATM   14  N   UNL     1     -11.544  12.070  65.794  1.00  0.00    -0.367 NA 
HETATM   15  C   UNL     1     -11.813  14.923  68.139  1.00  0.00    -0.307 A  
HETATM   16  H   UNL     1     -12.104  12.204  64.952  1.00  0.00     0.000 HD 
HETATM   17  C   UNL     1     -10.772  10.976  66.055  1.00  0.00    -0.177 A  
HETATM   18  C   UNL     1     -10.095  11.172  67.248  1.00  0.00    -0.218 A  
BRANCH  18  19
HETATM   19  C   UNL     1      -9.055  10.241  67.859  1.00  0.00    -0.133 C  
HETATM   20  C   UNL     1      -9.262   9.984  69.366  1.00  0.00    -0.229 C  
HETATM   21  C   UNL     1     -10.468   9.071  69.642  1.00  0.00    -0.222 C  
HETATM   22  N   UNL     1     -10.451   7.801  68.909  1.00  0.00    -0.212 NA 
HETATM   23  C   UNL     1     -10.207   8.009  67.475  1.00  0.00    -0.245 C  
HETATM   24  C   UNL     1      -9.534   6.836  69.503  1.00  0.00    -0.148 C  
HETATM   25  C   UNL     1      -8.978   8.869  67.168  1.00  0.00    -0.141 C  
ENDBRANCH  18  19
ENDBRANCH   8   9
ENDBRANCH   7   8
ENDBRANCH   4   7
ENDBRANCH   2   4
TORSDOF 5
ENDMDL
MODEL      109
REMARK 921   NORMALIZED FREE ENERGY PREDICTED BY IDOCK:   -4.80 KCAL/MOL
REMARK 922        TOTAL FREE ENERGY PREDICTED BY IDOCK:   -6.55 KCAL/MOL
REMARK 923 INTER-LIGAND FREE ENERGY PREDICTED BY IDOCK:   -6.23 KCAL/MOL
REMARK 924 INTRA-LIGAND FREE ENERGY PREDICTED BY IDOCK:   -0.31 KCAL/MOL
REMARK 927      BINDING AFFINITY PREDICTED BY RF-SCORE:    0.00 PKD
ROOT
HETATM    1  C   UNL     1     -11.666  15.186  71.257  1.00  0.00    -0.359 C  
HETATM    2  N   UNL     1     -10.331  15.246  70.655  1.00  0.00    -0.457 N  
HETATM    3  H   UNL     1      -9.491  15.104  71.216  1.00  0.00     0.000 HD 
ENDROOT
BRANCH   2   4
HETATM    4  S   UNL     1     -10.237  15.556  68.998  1.00  0.00    -0.243 S  
HETATM    5  O   UNL     1      -8.857  15.869  68.697  1.00  0.00    -0.185 OA 
HETATM    6  O   UNL     1     -11.305  16.484  68.709  1.00  0.00    -0.318 OA 
BRANCH   4   7
HETATM    7  C   UNL     1     -10.650  13.963  68.315  1.00  0.00    -0.257 C  
BRANCH   7   8
HETATM    8  C   UNL     1      -9.652  13.544  67.245  1.00  0.00    -0.235 C  
BRANCH   8   9
HETATM    9  C   UNL     1      -9.747  12.080  66.861  1.00  0.00    -0.213 A  
HETATM   10  C   UNL     1      -9.668  11.099  67.872  1.00  0.00    -0.184 A  
HETATM   11  C   UNL     1      -9.699   9.724  67.545  1.00  0.00    -0.192 A  
HETATM   12  C   UNL     1      -9.846   9.384  66.201  1.00  0.00    -0.285 A  
HETATM   13  C   UNL     1      -9.916  10.324  65.173  1.00  0.00    -0.395 A  
HETATM   14  N   UNL     1      -9.889   8.018  66.123  1.00  0.00    -0.467 NA 
HETATM   15  C   UNL     1      -9.846  11.672  65.525  1.00  0.00    -0.264 A  
HETATM   16  H   UNL     1      -9.988   7.483  65.260  1.00  0.00     0.000 HD 
HETATM   17  C   UNL     1      -9.781   7.478  67.371  1.00  0.00    -0.159 A  
HETATM   18  C   UNL     1      -9.585   8.495  68.292  1.00  0.00    -0.156 A  
BRANCH  18  19
HETATM   19  C   UNL     1      -9.318   8.324  69.782  1.00  0.00    -0.158 C  
HETATM   20  C   UNL     1      -9.964   9.419  70.656  1.00  0.00    -0.349 C  
HETATM   21  C   UNL     1     -11.490   9.265  70.753  1.00  0.00    -0.292 C  
HETATM   22  N   UNL     1     -11.942   7.938  71.186  1.00  0.00    -0.297 NA 
HETATM   23  C   UNL     1     -11.307   6.869  70.403  1.00  0.00    -0.328 C  
HETATM   24  C   UNL     1     -11.792   7.750  72.624  1.00  0.00    -0.262 C  
HETATM   25  C   UNL     1      -9.781   6.966  70.337  1.00  0.00    -0.177 C  
ENDBRANCH  18  19
ENDBRANCH   8   9
ENDBRANCH   7   8
ENDBRANCH   4   7
ENDBRANCH   2   4
TORSDOF 5
ENDMDL
MODEL      110
REMARK 921   NORMALIZED FREE ENERGY PREDICTED BY IDOCK:   -4.80 KCAL/MOL
REMARK 922        TOTAL FREE ENERGY PREDICTED BY IDOCK:   -6.54 KCAL/MOL
REMARK 923 INTER-LIGAND FREE ENERGY PREDICTED BY IDOCK:   -6.19 KCAL/MOL
REMARK 924 INTRA-LIGAND FREE ENERGY PREDICTED BY IDOCK:   -0.35 KCAL/MOL
REMARK 927      BINDING AFFINITY PREDICTED BY RF-SCORE:    0.00 PKD
ROOT
HETATM    1  C   UNL     1     -10.990   6.018  72.150  1.00  0.00    -0.267 C  
HETATM    2  N   UNL     1     -11.162   7.371  71.615  1.00  0.00    -0.243 N  
HETATM    3  H   UNL     1     -12.008   7.911  71.803  1.00  0.00     0.000 HD 
ENDROOT
BRANCH   2   4
HETATM    4  S   UNL     1      -9.909   8.003  70.677  1.00  0.00    -0.185 S  
HETATM    5  O   UNL     1      -8.941   6.946  70.484  1.00  0.00    -0.153 OA 
HETATM    6  O   UNL     1      -9.548   9.258  71.295  1.00  0.00    -0.271 OA 
BRANCH   4   7
HETATM    7  C   UNL     1     -10.748   8.332  69.140  1.00  0.00    -0.101 C  
BRANCH   7   8
HETATM    8  C   UNL     1      -9.889   7.941  67.946  1.00  0.00    -0.201 C  
BRANCH   8   9
HETATM    9  C   UNL     1      -9.825   9.003  66.866  1.00  0.00    -0.288 A  
HETATM   10  C   UNL     1     -10.369  10.279  67.125  1.00  0.00    -0.292 A  
HETATM   11  C   UNL     1     -10.375  11.277  66.122  1.00  0.00    -0.300 A  
HETATM   12  C   UNL     1      -9.793  10.960  64.895  1.00  0.00    -0.284 A  
HETATM   13  C   UNL     1      -9.256   9.709  64.598  1.00  0.00    -0.293 A  
HETATM   14  N   UNL     1      -9.875  12.072  64.101  1.00  0.00    -0.475 NA 
HETATM   15  C   UNL     1      -9.299   8.735  65.596  1.00  0.00    -0.219 A  
HETATM   16  H   UNL     1      -9.533  12.134  63.142  1.00  0.00     0.000 HD 
HETATM   17  C   UNL     1     -10.483  13.086  64.782  1.00  0.00    -0.363 A  
HETATM   18  C   UNL     1     -10.884  12.623  66.026  1.00  0.00    -0.306 A  
BRANCH  18  19
HETATM   19  C   UNL     1     -11.685  13.399  67.063  1.00  0.00    -0.426 C  
HETATM   20  C   UNL     1     -11.088  13.331  68.484  1.00  0.00    -0.294 C  
HETATM   21  C   UNL     1      -9.806  14.168  68.620  1.00  0.00    -0.206 C  
HETATM   22  N   UNL     1      -9.942  15.565  68.194  1.00  0.00    -0.216 NA 
HETATM   23  C   UNL     1     -10.552  15.666  66.861  1.00  0.00    -0.311 C  
HETATM   24  C   UNL     1     -10.626  16.379  69.191  1.00  0.00    -0.308 C  
HETATM   25  C   UNL     1     -11.862  14.887  66.714  1.00  0.00    -0.187 C  
ENDBRANCH  18  19
ENDBRANCH   8   9
ENDBRANCH   7   8
ENDBRANCH   4   7
ENDBRANCH   2   4
TORSDOF 5
ENDMDL
MODEL      111
REMARK 921   NORMALIZED FREE ENERGY PREDICTED BY IDOCK:   -4.77 KCAL/MOL
REMARK 922        TOTAL FREE ENERGY PREDICTED BY IDOCK:   -6.51 KCAL/MOL
REMARK 923 INTER-LIGAND FREE ENERGY PREDICTED BY IDOCK:   -6.10 KCAL/MOL
REMARK 924 INTRA-LIGAND FREE ENERGY PREDICTED BY IDOCK:   -0.41 KCAL/MOL
REMARK 927      BINDING AFFINITY PREDICTED BY RF-SCORE:    0.00 PKD
ROOT
HETATM    1  C   UNL     1     -10.590  19.048  66.307  1.00  0.00    -0.412 C  
HETATM    2  N   UNL     1      -9.549  19.638  67.153  1.00  0.00    -0.330 N  
HETATM    3  H   UNL     1      -9.753  20.424  67.771  1.00  0.00     0.000 HD 
ENDROOT
BRANCH   2   4
HETATM    4  S   UNL     1      -8.002  18.968  67.066  1.00  0.00    -0.262 S  
HETATM    5  O   UNL     1      -7.165  19.698  67.992  1.00  0.00    -0.268 OA 
HETATM    6  O   UNL     1      -7.685  18.887  65.659  1.00  0.00    -0.478 OA 
BRANCH   4   7
HETATM    7  C   UNL     1      -8.292  17.325  67.692  1.00  0.00    -0.205 C  
BRANCH   7   8
HETATM    8  C   UNL     1      -8.014  16.271  66.629  1.00  0.00    -0.324 C  
BRANCH   8   9
HETATM    9  C   UNL     1      -9.107  15.229  66.503  1.00  0.00    -0.334 A  
HETATM   10  C   UNL     1      -9.062  14.084  67.325  1.00  0.00    -0.224 A  
HETATM   11  C   UNL     1     -10.036  13.065  67.197  1.00  0.00    -0.235 A  
HETATM   12  C   UNL     1     -11.050  13.258  66.259  1.00  0.00    -0.290 A  
HETATM   13  C   UNL     1     -11.122  14.370  65.421  1.00  0.00    -0.331 A  
HETATM   14  N   UNL     1     -11.889  12.180  66.333  1.00  0.00    -0.607 NA 
HETATM   15  C   UNL     1     -10.126  15.339  65.548  1.00  0.00    -0.408 A  
HETATM   16  H   UNL     1     -12.722  12.045  65.759  1.00  0.00     0.000 HD 
HETATM   17  C   UNL     1     -11.449  11.311  67.289  1.00  0.00    -0.186 A  
HETATM   18  C   UNL     1     -10.252  11.777  67.810  1.00  0.00    -0.205 A  
BRANCH  18  19
HETATM   19  C   UNL     1      -9.373  11.064  68.829  1.00  0.00    -0.185 C  
HETATM   20  C   UNL     1      -9.931   9.699  69.282  1.00  0.00    -0.197 C  
HETATM   21  C   UNL     1      -9.805   8.625  68.188  1.00  0.00    -0.165 C  
HETATM   22  N   UNL     1      -8.451   8.465  67.646  1.00  0.00    -0.129 NA 
HETATM   23  C   UNL     1      -7.872   9.756  67.249  1.00  0.00    -0.098 C  
HETATM   24  C   UNL     1      -7.586   7.710  68.544  1.00  0.00    -0.110 C  
HETATM   25  C   UNL     1      -7.933  10.829  68.340  1.00  0.00    -0.124 C  
ENDBRANCH  18  19
ENDBRANCH   8   9
ENDBRANCH   7   8
ENDBRANCH   4   7
ENDBRANCH   2   4
TORSDOF 5
ENDMDL
MODEL      112
REMARK 921   NORMALIZED FREE ENERGY PREDICTED BY IDOCK:   -4.76 KCAL/MOL
REMARK 922        TOTAL FREE ENERGY PREDICTED BY IDOCK:   -6.49 KCAL/MOL
REMARK 923 INTER-LIGAND FREE ENERGY PREDICTED BY IDOCK:   -6.02 KCAL/MOL
REMARK 924 INTRA-LIGAND FREE ENERGY PREDICTED BY IDOCK:   -0.47 KCAL/MOL
REMARK 927      BINDING AFFINITY PREDICTED BY RF-SCORE:    0.00 PKD
ROOT
HETATM    1  C   UNL     1     -10.031  11.583  63.700  1.00  0.00    -0.376 C  
HETATM    2  N   UNL     1     -10.435  12.981  63.866  1.00  0.00    -0.513 N  
HETATM    3  H   UNL     1      -9.760  13.741  63.774  1.00  0.00     0.000 HD 
ENDROOT
BRANCH   2   4
HETATM    4  S   UNL     1     -12.058  13.288  64.215  1.00  0.00    -0.417 S  
HETATM    5  O   UNL     1     -12.541  12.184  65.015  1.00  0.00    -0.514 OA 
HETATM    6  O   UNL     1     -12.672  13.639  62.957  1.00  0.00    -0.681 OA 
BRANCH   4   7
HETATM    7  C   UNL     1     -11.932  14.749  65.229  1.00  0.00    -0.240 C  
BRANCH   7   8
HETATM    8  C   UNL     1     -12.070  14.410  66.706  1.00  0.00    -0.393 C  
BRANCH   8   9
HETATM    9  C   UNL     1     -10.772  13.974  67.357  1.00  0.00    -0.285 A  
HETATM   10  C   UNL     1     -10.586  12.611  67.669  1.00  0.00    -0.232 A  
HETATM   11  C   UNL     1      -9.410  12.176  68.325  1.00  0.00    -0.198 A  
HETATM   12  C   UNL     1      -8.440  13.136  68.611  1.00  0.00     0.029 A  
HETATM   13  C   UNL     1      -8.592  14.492  68.328  1.00  0.00    -0.171 A  
HETATM   14  N   UNL     1      -7.386  12.492  69.203  1.00  0.00    -0.315 NA 
HETATM   15  C   UNL     1      -9.779  14.894  67.714  1.00  0.00    -0.212 A  
HETATM   16  H   UNL     1      -6.531  12.944  69.525  1.00  0.00     0.000 HD 
HETATM   17  C   UNL     1      -7.650  11.157  69.297  1.00  0.00    -0.055 A  
HETATM   18  C   UNL     1      -8.932  10.913  68.832  1.00  0.00    -0.146 A  
BRANCH  18  19
HETATM   19  C   UNL     1      -9.660   9.574  68.851  1.00  0.00    -0.156 C  
HETATM   20  C   UNL     1     -10.580   9.352  67.632  1.00  0.00    -0.333 C  
HETATM   21  C   UNL     1      -9.787   9.080  66.344  1.00  0.00    -0.286 C  
HETATM   22  N   UNL     1      -8.812   7.989  66.448  1.00  0.00    -0.148 NA 
HETATM   23  C   UNL     1      -7.950   8.147  67.627  1.00  0.00    -0.122 C  
HETATM   24  C   UNL     1      -9.445   6.678  66.382  1.00  0.00    -0.123 C  
HETATM   25  C   UNL     1      -8.715   8.363  68.935  1.00  0.00    -0.136 C  
ENDBRANCH  18  19
ENDBRANCH   8   9
ENDBRANCH   7   8
ENDBRANCH   4   7
ENDBRANCH   2   4
TORSDOF 5
ENDMDL
MODEL      113
REMARK 921   NORMALIZED FREE ENERGY PREDICTED BY IDOCK:   -4.76 KCAL/MOL
REMARK 922        TOTAL FREE ENERGY PREDICTED BY IDOCK:   -6.49 KCAL/MOL
REMARK 923 INTER-LIGAND FREE ENERGY PREDICTED BY IDOCK:   -7.17 KCAL/MOL
REMARK 924 INTRA-LIGAND FREE ENERGY PREDICTED BY IDOCK:    0.68 KCAL/MOL
REMARK 927      BINDING AFFINITY PREDICTED BY RF-SCORE:    0.00 PKD
ROOT
HETATM    1  C   UNL     1     -12.458  15.829  74.196  1.00  0.00    -0.655 C  
HETATM    2  N   UNL     1     -12.438  16.438  72.864  1.00  0.00    -0.386 N  
HETATM    3  H   UNL     1     -12.184  17.418  72.734  1.00  0.00     0.000 HD 
ENDROOT
BRANCH   2   4
HETATM    4  S   UNL     1     -12.851  15.458  71.553  1.00  0.00    -0.463 S  
HETATM    5  O   UNL     1     -11.993  15.833  70.449  1.00  0.00    -0.345 OA 
HETATM    6  O   UNL     1     -14.290  15.521  71.451  1.00  0.00    -0.531 OA 
BRANCH   4   7
HETATM    7  C   UNL     1     -12.380  13.847  72.153  1.00  0.00     0.046 C  
BRANCH   7   8
HETATM    8  C   UNL     1     -13.270  12.759  71.570  1.00  0.00    -0.330 C  
BRANCH   8   9
HETATM    9  C   UNL     1     -12.501  11.582  71.001  1.00  0.00    -0.458 A  
HETATM   10  C   UNL     1     -11.769  11.754  69.808  1.00  0.00    -0.408 A  
HETATM   11  C   UNL     1     -11.084  10.664  69.220  1.00  0.00    -0.306 A  
HETATM   12  C   UNL     1     -11.134   9.438  69.882  1.00  0.00    -0.200 A  
HETATM   13  C   UNL     1     -11.856   9.227  71.056  1.00  0.00    -0.376 A  
HETATM   14  N   UNL     1     -10.380   8.551  69.164  1.00  0.00    -0.216 NA 
HETATM   15  C   UNL     1     -12.550  10.313  71.591  1.00  0.00    -0.534 A  
HETATM   16  H   UNL     1     -10.237   7.571  69.409  1.00  0.00     0.000 HD 
HETATM   17  C   UNL     1      -9.847   9.170  68.071  1.00  0.00    -0.168 A  
HETATM   18  C   UNL     1     -10.314  10.474  68.015  1.00  0.00    -0.212 A  
BRANCH  18  19
HETATM   19  C   UNL     1     -10.045  11.482  66.905  1.00  0.00    -0.241 C  
HETATM   20  C   UNL     1     -11.115  12.589  66.800  1.00  0.00    -0.323 C  
HETATM   21  C   UNL     1     -11.024  13.600  67.954  1.00  0.00    -0.259 C  
HETATM   22  N   UNL     1      -9.695  14.195  68.138  1.00  0.00    -0.218 NA 
HETATM   23  C   UNL     1      -8.647  13.167  68.194  1.00  0.00    -0.181 C  
HETATM   24  C   UNL     1      -9.417  15.233  67.153  1.00  0.00    -0.214 C  
HETATM   25  C   UNL     1      -8.679  12.179  67.025  1.00  0.00    -0.190 C  
ENDBRANCH  18  19
ENDBRANCH   8   9
ENDBRANCH   7   8
ENDBRANCH   4   7
ENDBRANCH   2   4
TORSDOF 5
ENDMDL
MODEL      114
REMARK 921   NORMALIZED FREE ENERGY PREDICTED BY IDOCK:   -4.75 KCAL/MOL
REMARK 922        TOTAL FREE ENERGY PREDICTED BY IDOCK:   -6.48 KCAL/MOL
REMARK 923 INTER-LIGAND FREE ENERGY PREDICTED BY IDOCK:   -6.15 KCAL/MOL
REMARK 924 INTRA-LIGAND FREE ENERGY PREDICTED BY IDOCK:   -0.34 KCAL/MOL
REMARK 927      BINDING AFFINITY PREDICTED BY RF-SCORE:    0.00 PKD
ROOT
HETATM    1  C   UNL     1      -7.652   7.409  73.754  1.00  0.00    -0.109 C  
HETATM    2  N   UNL     1      -8.848   6.571  73.869  1.00  0.00    -0.129 N  
HETATM    3  H   UNL     1      -9.070   6.081  74.737  1.00  0.00     0.000 HD 
ENDROOT
BRANCH   2   4
HETATM    4  S   UNL     1      -9.846   6.446  72.513  1.00  0.00    -0.166 S  
HETATM    5  O   UNL     1     -10.498   5.157  72.576  1.00  0.00    -0.199 OA 
HETATM    6  O   UNL     1      -9.029   6.829  71.386  1.00  0.00    -0.142 OA 
BRANCH   4   7
HETATM    7  C   UNL     1     -11.037   7.733  72.830  1.00  0.00    -0.398 C  
BRANCH   7   8
HETATM    8  C   UNL     1     -11.944   7.956  71.628  1.00  0.00    -0.329 C  
BRANCH   8   9
HETATM    9  C   UNL     1     -12.009   9.401  71.173  1.00  0.00    -0.413 A  
HETATM   10  C   UNL     1     -11.166   9.829  70.126  1.00  0.00    -0.324 A  
HETATM   11  C   UNL     1     -11.162  11.181  69.711  1.00  0.00    -0.318 A  
HETATM   12  C   UNL     1     -12.043  12.053  70.349  1.00  0.00    -0.321 A  
HETATM   13  C   UNL     1     -12.882  11.671  71.394  1.00  0.00    -0.461 A  
HETATM   14  N   UNL     1     -11.897  13.284  69.768  1.00  0.00    -0.349 NA 
HETATM   15  C   UNL     1     -12.836  10.338  71.804  1.00  0.00    -0.565 A  
HETATM   16  H   UNL     1     -12.413  14.122  70.034  1.00  0.00     0.000 HD 
HETATM   17  C   UNL     1     -10.959  13.224  68.779  1.00  0.00    -0.260 A  
HETATM   18  C   UNL     1     -10.412  11.951  68.748  1.00  0.00    -0.207 A  
BRANCH  18  19
HETATM   19  C   UNL     1      -9.265  11.483  67.862  1.00  0.00    -0.168 C  
HETATM   20  C   UNL     1      -9.356   9.994  67.465  1.00  0.00    -0.162 C  
HETATM   21  C   UNL     1     -10.466   9.732  66.434  1.00  0.00    -0.120 C  
HETATM   22  N   UNL     1     -10.393  10.574  65.234  1.00  0.00    -0.267 NA 
HETATM   23  C   UNL     1     -10.257  11.995  65.579  1.00  0.00    -0.258 C  
HETATM   24  C   UNL     1      -9.366  10.118  64.305  1.00  0.00    -0.295 C  
HETATM   25  C   UNL     1      -9.122  12.293  66.563  1.00  0.00    -0.188 C  
ENDBRANCH  18  19
ENDBRANCH   8   9
ENDBRANCH   7   8
ENDBRANCH   4   7
ENDBRANCH   2   4
TORSDOF 5
ENDMDL
MODEL      115
REMARK 921   NORMALIZED FREE ENERGY PREDICTED BY IDOCK:   -4.75 KCAL/MOL
REMARK 922        TOTAL FREE ENERGY PREDICTED BY IDOCK:   -6.48 KCAL/MOL
REMARK 923 INTER-LIGAND FREE ENERGY PREDICTED BY IDOCK:   -6.08 KCAL/MOL
REMARK 924 INTRA-LIGAND FREE ENERGY PREDICTED BY IDOCK:   -0.40 KCAL/MOL
REMARK 927      BINDING AFFINITY PREDICTED BY RF-SCORE:    0.00 PKD
ROOT
HETATM    1  C   UNL     1      -7.585  18.444  66.108  1.00  0.00    -0.235 C  
HETATM    2  N   UNL     1      -8.724  19.317  66.405  1.00  0.00    -0.339 N  
HETATM    3  H   UNL     1      -8.596  20.316  66.569  1.00  0.00     0.000 HD 
ENDROOT
BRANCH   2   4
HETATM    4  S   UNL     1     -10.255  18.608  66.467  1.00  0.00    -0.431 S  
HETATM    5  O   UNL     1     -10.290  17.573  65.457  1.00  0.00    -0.620 OA 
HETATM    6  O   UNL     1     -11.197  19.702  66.465  1.00  0.00    -0.221 OA 
BRANCH   4   7
HETATM    7  C   UNL     1     -10.234  17.862  68.085  1.00  0.00    -0.382 C  
BRANCH   7   8
HETATM    8  C   UNL     1     -10.866  16.477  68.063  1.00  0.00    -0.337 C  
BRANCH   8   9
HETATM    9  C   UNL     1      -9.862  15.346  68.175  1.00  0.00    -0.213 A  
HETATM   10  C   UNL     1     -10.321  14.014  68.117  1.00  0.00    -0.241 A  
HETATM   11  C   UNL     1      -9.419  12.934  68.271  1.00  0.00    -0.206 A  
HETATM   12  C   UNL     1      -8.070  13.241  68.443  1.00  0.00    -0.134 A  
HETATM   13  C   UNL     1      -7.581  14.544  68.516  1.00  0.00    -0.123 A  
HETATM   14  N   UNL     1      -7.387  12.059  68.531  1.00  0.00    -0.106 NA 
HETATM   15  C   UNL     1      -8.500  15.587  68.397  1.00  0.00    -0.163 A  
HETATM   16  H   UNL     1      -6.379  11.973  68.663  1.00  0.00     0.000 HD 
HETATM   17  C   UNL     1      -8.253  11.011  68.415  1.00  0.00    -0.137 A  
HETATM   18  C   UNL     1      -9.547  11.498  68.325  1.00  0.00    -0.189 A  
BRANCH  18  19
HETATM   19  C   UNL     1     -10.823  10.668  68.282  1.00  0.00    -0.287 C  
HETATM   20  C   UNL     1     -10.701   9.305  68.994  1.00  0.00    -0.189 C  
HETATM   21  C   UNL     1     -10.661   9.448  70.525  1.00  0.00    -0.271 C  
HETATM   22  N   UNL     1     -11.771  10.219  71.093  1.00  0.00    -0.361 NA 
HETATM   23  C   UNL     1     -11.945  11.505  70.403  1.00  0.00    -0.368 C  
HETATM   24  C   UNL     1     -13.003   9.442  71.158  1.00  0.00    -0.238 C  
HETATM   25  C   UNL     1     -12.045  11.387  68.880  1.00  0.00    -0.285 C  
ENDBRANCH  18  19
ENDBRANCH   8   9
ENDBRANCH   7   8
ENDBRANCH   4   7
ENDBRANCH   2   4
TORSDOF 5
ENDMDL
MODEL      116
REMARK 921   NORMALIZED FREE ENERGY PREDICTED BY IDOCK:   -4.74 KCAL/MOL
REMARK 922        TOTAL FREE ENERGY PREDICTED BY IDOCK:   -6.47 KCAL/MOL
REMARK 923 INTER-LIGAND FREE ENERGY PREDICTED BY IDOCK:   -6.18 KCAL/MOL
REMARK 924 INTRA-LIGAND FREE ENERGY PREDICTED BY IDOCK:   -0.29 KCAL/MOL
REMARK 927      BINDING AFFINITY PREDICTED BY RF-SCORE:    0.00 PKD
ROOT
HETATM    1  C   UNL     1     -12.659  11.977  63.222  1.00  0.00    -0.385 C  
HETATM    2  N   UNL     1     -11.576  12.948  63.398  1.00  0.00    -0.714 N  
HETATM    3  H   UNL     1     -10.858  13.074  62.684  1.00  0.00     0.000 HD 
ENDROOT
BRANCH   2   4
HETATM    4  S   UNL     1     -11.561  13.849  64.825  1.00  0.00    -0.394 S  
HETATM    5  O   UNL     1     -12.835  14.527  64.919  1.00  0.00    -0.588 OA 
HETATM    6  O   UNL     1     -10.313  14.576  64.820  1.00  0.00    -0.415 OA 
BRANCH   4   7
HETATM    7  C   UNL     1     -11.479  12.562  66.055  1.00  0.00    -0.377 C  
BRANCH   7   8
HETATM    8  C   UNL     1     -10.352  11.584  65.757  1.00  0.00    -0.295 C  
BRANCH   8   9
HETATM    9  C   UNL     1      -9.366  11.421  66.898  1.00  0.00    -0.191 A  
HETATM   10  C   UNL     1      -9.413  10.250  67.683  1.00  0.00    -0.169 A  
HETATM   11  C   UNL     1      -8.545  10.088  68.788  1.00  0.00    -0.131 A  
HETATM   12  C   UNL     1      -7.628  11.107  69.042  1.00  0.00    -0.119 A  
HETATM   13  C   UNL     1      -7.559  12.283  68.296  1.00  0.00    -0.133 A  
HETATM   14  N   UNL     1      -6.875  10.725  70.119  1.00  0.00    -0.343 NA 
HETATM   15  C   UNL     1      -8.453  12.428  67.235  1.00  0.00    -0.183 A  
HETATM   16  H   UNL     1      -6.125  11.277  70.534  1.00  0.00     0.000 HD 
HETATM   17  C   UNL     1      -7.277   9.496  70.555  1.00  0.00    -0.135 A  
HETATM   18  C   UNL     1      -8.368   9.082  69.807  1.00  0.00    -0.129 A  
BRANCH  18  19
HETATM   19  C   UNL     1      -9.185   7.816  70.027  1.00  0.00    -0.153 C  
HETATM   20  C   UNL     1      -9.034   7.219  71.442  1.00  0.00    -0.139 C  
HETATM   21  C   UNL     1      -9.756   8.058  72.509  1.00  0.00    -0.258 C  
HETATM   22  N   UNL     1     -11.169   8.325  72.219  1.00  0.00    -0.347 NA 
HETATM   23  C   UNL     1     -11.352   8.850  70.859  1.00  0.00    -0.283 C  
HETATM   24  C   UNL     1     -12.015   7.170  72.497  1.00  0.00    -0.072 C  
HETATM   25  C   UNL     1     -10.690   8.003  69.770  1.00  0.00    -0.231 C  
ENDBRANCH  18  19
ENDBRANCH   8   9
ENDBRANCH   7   8
ENDBRANCH   4   7
ENDBRANCH   2   4
TORSDOF 5
ENDMDL
MODEL      117
REMARK 921   NORMALIZED FREE ENERGY PREDICTED BY IDOCK:   -4.74 KCAL/MOL
REMARK 922        TOTAL FREE ENERGY PREDICTED BY IDOCK:   -6.47 KCAL/MOL
REMARK 923 INTER-LIGAND FREE ENERGY PREDICTED BY IDOCK:   -7.26 KCAL/MOL
REMARK 924 INTRA-LIGAND FREE ENERGY PREDICTED BY IDOCK:    0.79 KCAL/MOL
REMARK 927      BINDING AFFINITY PREDICTED BY RF-SCORE:    0.00 PKD
ROOT
HETATM    1  C   UNL     1     -12.264  13.973  64.832  1.00  0.00    -0.437 C  
HETATM    2  N   UNL     1     -12.811  14.154  66.179  1.00  0.00    -0.456 N  
HETATM    3  H   UNL     1     -13.812  14.287  66.330  1.00  0.00     0.000 HD 
ENDROOT
BRANCH   2   4
HETATM    4  S   UNL     1     -11.724  14.136  67.470  1.00  0.00    -0.401 S  
HETATM    5  O   UNL     1     -12.145  15.160  68.401  1.00  0.00    -0.241 OA 
HETATM    6  O   UNL     1     -10.407  14.144  66.878  1.00  0.00    -0.265 OA 
BRANCH   4   7
HETATM    7  C   UNL     1     -12.036  12.527  68.172  1.00  0.00    -0.219 C  
BRANCH   7   8
HETATM    8  C   UNL     1     -11.320  12.357  69.504  1.00  0.00    -0.250 C  
BRANCH   8   9
HETATM    9  C   UNL     1     -11.745  11.121  70.272  1.00  0.00    -0.431 A  
HETATM   10  C   UNL     1     -11.018   9.924  70.103  1.00  0.00    -0.356 A  
HETATM   11  C   UNL     1     -11.419   8.739  70.762  1.00  0.00    -0.309 A  
HETATM   12  C   UNL     1     -12.527   8.813  71.605  1.00  0.00    -0.339 A  
HETATM   13  C   UNL     1     -13.276   9.974  71.789  1.00  0.00    -0.540 A  
HETATM   14  N   UNL     1     -12.707   7.575  72.159  1.00  0.00    -0.494 NA 
HETATM   15  C   UNL     1     -12.877  11.117  71.097  1.00  0.00    -0.473 A  
HETATM   16  H   UNL     1     -13.447   7.329  72.816  1.00  0.00     0.000 HD 
HETATM   17  C   UNL     1     -11.748   6.717  71.703  1.00  0.00    -0.316 A  
HETATM   18  C   UNL     1     -10.960   7.371  70.769  1.00  0.00    -0.272 A  
BRANCH  18  19
HETATM   19  C   UNL     1      -9.839   6.753  69.944  1.00  0.00    -0.174 C  
HETATM   20  C   UNL     1     -10.333   5.750  68.880  1.00  0.00    -0.295 C  
HETATM   21  C   UNL     1     -11.030   6.446  67.700  1.00  0.00    -0.349 C  
HETATM   22  N   UNL     1     -10.240   7.508  67.067  1.00  0.00    -0.269 NA 
HETATM   23  C   UNL     1      -9.714   8.454  68.060  1.00  0.00    -0.158 C  
HETATM   24  C   UNL     1      -9.203   6.974  66.192  1.00  0.00    -0.077 C  
HETATM   25  C   UNL     1      -8.966   7.792  69.219  1.00  0.00    -0.139 C  
ENDBRANCH  18  19
ENDBRANCH   8   9
ENDBRANCH   7   8
ENDBRANCH   4   7
ENDBRANCH   2   4
TORSDOF 5
ENDMDL
MODEL      118
REMARK 921   NORMALIZED FREE ENERGY PREDICTED BY IDOCK:   -4.72 KCAL/MOL
REMARK 922        TOTAL FREE ENERGY PREDICTED BY IDOCK:   -6.45 KCAL/MOL
REMARK 923 INTER-LIGAND FREE ENERGY PREDICTED BY IDOCK:   -6.28 KCAL/MOL
REMARK 924 INTRA-LIGAND FREE ENERGY PREDICTED BY IDOCK:   -0.17 KCAL/MOL
REMARK 927      BINDING AFFINITY PREDICTED BY RF-SCORE:    0.00 PKD
ROOT
HETATM    1  C   UNL     1     -12.480  16.257  74.520  1.00  0.00    -0.424 C  
HETATM    2  N   UNL     1     -12.423  14.928  73.905  1.00  0.00    -0.504 N  
HETATM    3  H   UNL     1     -11.877  14.175  74.324  1.00  0.00     0.000 HD 
ENDROOT
BRANCH   2   4
HETATM    4  S   UNL     1     -13.292  14.692  72.477  1.00  0.00    -0.486 S  
HETATM    5  O   UNL     1     -14.357  15.671  72.455  1.00  0.00    -0.537 OA 
HETATM    6  O   UNL     1     -13.563  13.275  72.410  1.00  0.00    -0.564 OA 
BRANCH   4   7
HETATM    7  C   UNL     1     -12.073  15.109  71.246  1.00  0.00    -0.342 C  
BRANCH   7   8
HETATM    8  C   UNL     1     -12.628  14.945  69.839  1.00  0.00    -0.205 C  
BRANCH   8   9
HETATM    9  C   UNL     1     -11.678  14.249  68.885  1.00  0.00    -0.363 A  
HETATM   10  C   UNL     1     -10.288  14.373  69.089  1.00  0.00    -0.164 A  
HETATM   11  C   UNL     1      -9.371  13.782  68.187  1.00  0.00    -0.211 A  
HETATM   12  C   UNL     1      -9.896  13.050  67.123  1.00  0.00    -0.230 A  
HETATM   13  C   UNL     1     -11.262  12.914  66.882  1.00  0.00    -0.331 A  
HETATM   14  N   UNL     1      -8.842  12.543  66.413  1.00  0.00    -0.415 NA 
HETATM   15  C   UNL     1     -12.139  13.539  67.769  1.00  0.00    -0.316 A  
HETATM   16  H   UNL     1      -8.923  11.967  65.575  1.00  0.00     0.000 HD 
HETATM   17  C   UNL     1      -7.665  12.923  66.991  1.00  0.00     0.037 A  
HETATM   18  C   UNL     1      -7.934  13.761  68.061  1.00  0.00    -0.156 A  
BRANCH  18  19
HETATM   19  C   UNL     1      -6.907  14.486  68.920  1.00  0.00    -0.099 C  
HETATM   20  C   UNL     1      -5.677  14.982  68.129  1.00  0.00    -0.140 C  
HETATM   21  C   UNL     1      -6.008  16.185  67.231  1.00  0.00    -0.110 C  
HETATM   22  N   UNL     1      -6.648  17.306  67.926  1.00  0.00    -0.151 NA 
HETATM   23  C   UNL     1      -7.796  16.860  68.728  1.00  0.00    -0.250 C  
HETATM   24  C   UNL     1      -5.693  18.093  68.697  1.00  0.00    -0.185 C  
HETATM   25  C   UNL     1      -7.482  15.698  69.674  1.00  0.00    -0.134 C  
ENDBRANCH  18  19
ENDBRANCH   8   9
ENDBRANCH   7   8
ENDBRANCH   4   7
ENDBRANCH   2   4
TORSDOF 5
ENDMDL
MODEL      119
REMARK 921   NORMALIZED FREE ENERGY PREDICTED BY IDOCK:   -4.68 KCAL/MOL
REMARK 922        TOTAL FREE ENERGY PREDICTED BY IDOCK:   -6.39 KCAL/MOL
REMARK 923 INTER-LIGAND FREE ENERGY PREDICTED BY IDOCK:   -5.98 KCAL/MOL
REMARK 924 INTRA-LIGAND FREE ENERGY PREDICTED BY IDOCK:   -0.42 KCAL/MOL
REMARK 927      BINDING AFFINITY PREDICTED BY RF-SCORE:    0.00 PKD
ROOT
HETATM    1  C   UNL     1     -11.104  15.202  69.738  1.00  0.00    -0.278 C  
HETATM    2  N   UNL     1     -11.042  15.041  68.283  1.00  0.00    -0.274 N  
HETATM    3  H   UNL     1     -10.619  15.754  67.689  1.00  0.00     0.000 HD 
ENDROOT
BRANCH   2   4
HETATM    4  S   UNL     1     -11.698  13.630  67.627  1.00  0.00    -0.375 S  
HETATM    5  O   UNL     1     -12.480  14.016  66.473  1.00  0.00    -0.442 OA 
HETATM    6  O   UNL     1     -12.283  12.914  68.735  1.00  0.00    -0.204 OA 
BRANCH   4   7
HETATM    7  C   UNL     1     -10.229  12.773  67.092  1.00  0.00    -0.233 C  
BRANCH   7   8
HETATM    8  C   UNL     1      -9.646  11.924  68.213  1.00  0.00    -0.201 C  
BRANCH   8   9
HETATM    9  C   UNL     1     -10.068  10.469  68.160  1.00  0.00    -0.180 A  
HETATM   10  C   UNL     1     -10.360   9.796  69.365  1.00  0.00    -0.232 A  
HETATM   11  C   UNL     1     -10.706   8.425  69.358  1.00  0.00    -0.162 A  
HETATM   12  C   UNL     1     -10.780   7.785  68.122  1.00  0.00    -0.051 A  
HETATM   13  C   UNL     1     -10.488   8.413  66.912  1.00  0.00    -0.359 A  
HETATM   14  N   UNL     1     -11.164   6.491  68.350  1.00  0.00    -0.555 NA 
HETATM   15  C   UNL     1     -10.115   9.757  66.956  1.00  0.00    -0.277 A  
HETATM   16  H   UNL     1     -11.297   5.783  67.627  1.00  0.00     0.000 HD 
HETATM   17  C   UNL     1     -11.342   6.287  69.687  1.00  0.00    -0.422 A  
HETATM   18  C   UNL     1     -10.997   7.441  70.373  1.00  0.00    -0.269 A  
BRANCH  18  19
HETATM   19  C   UNL     1     -10.956   7.613  71.886  1.00  0.00    -0.282 C  
HETATM   20  C   UNL     1     -10.964   6.280  72.662  1.00  0.00    -0.285 C  
HETATM   21  C   UNL     1      -9.625   5.533  72.554  1.00  0.00    -0.148 C  
HETATM   22  N   UNL     1      -8.452   6.330  72.928  1.00  0.00    -0.119 NA 
HETATM   23  C   UNL     1      -8.439   7.628  72.241  1.00  0.00    -0.123 C  
HETATM   24  C   UNL     1      -8.310   6.455  74.374  1.00  0.00    -0.129 C  
HETATM   25  C   UNL     1      -9.742   8.420  72.379  1.00  0.00    -0.376 C  
ENDBRANCH  18  19
ENDBRANCH   8   9
ENDBRANCH   7   8
ENDBRANCH   4   7
ENDBRANCH   2   4
TORSDOF 5
ENDMDL
MODEL      120
REMARK 921   NORMALIZED FREE ENERGY PREDICTED BY IDOCK:   -4.67 KCAL/MOL
REMARK 922        TOTAL FREE ENERGY PREDICTED BY IDOCK:   -6.38 KCAL/MOL
REMARK 923 INTER-LIGAND FREE ENERGY PREDICTED BY IDOCK:   -6.34 KCAL/MOL
REMARK 924 INTRA-LIGAND FREE ENERGY PREDICTED BY IDOCK:   -0.04 KCAL/MOL
REMARK 927      BINDING AFFINITY PREDICTED BY RF-SCORE:    0.00 PKD
ROOT
HETATM    1  C   UNL     1      -7.668   4.902  72.373  1.00  0.00    -0.092 C  
HETATM    2  N   UNL     1      -8.728   4.899  73.384  1.00  0.00    -0.105 N  
HETATM    3  H   UNL     1      -8.607   4.417  74.276  1.00  0.00     0.000 HD 
ENDROOT
BRANCH   2   4
HETATM    4  S   UNL     1     -10.155   5.724  73.020  1.00  0.00    -0.187 S  
HETATM    5  O   UNL     1      -9.947   7.114  73.362  1.00  0.00    -0.217 OA 
HETATM    6  O   UNL     1     -11.221   4.949  73.610  1.00  0.00    -0.321 OA 
BRANCH   4   7
HETATM    7  C   UNL     1     -10.222   5.549  71.248  1.00  0.00    -0.222 C  
BRANCH   7   8
HETATM    8  C   UNL     1     -11.318   6.417  70.647  1.00  0.00    -0.419 C  
BRANCH   8   9
HETATM    9  C   UNL     1     -10.952   7.022  69.306  1.00  0.00    -0.211 A  
HETATM   10  C   UNL     1     -10.766   8.417  69.211  1.00  0.00    -0.139 A  
HETATM   11  C   UNL     1     -10.477   9.022  67.965  1.00  0.00    -0.270 A  
HETATM   12  C   UNL     1     -10.349   8.185  66.857  1.00  0.00    -0.331 A  
HETATM   13  C   UNL     1     -10.536   6.805  66.909  1.00  0.00    -0.374 A  
HETATM   14  N   UNL     1     -10.034   8.971  65.781  1.00  0.00    -0.440 NA 
HETATM   15  C   UNL     1     -10.857   6.243  68.146  1.00  0.00    -0.401 A  
HETATM   16  H   UNL     1      -9.883   8.631  64.832  1.00  0.00     0.000 HD 
HETATM   17  C   UNL     1      -9.951  10.277  66.168  1.00  0.00    -0.238 A  
HETATM   18  C   UNL     1     -10.292  10.378  67.507  1.00  0.00    -0.268 A  
BRANCH  18  19
HETATM   19  C   UNL     1     -10.424  11.665  68.311  1.00  0.00    -0.223 C  
HETATM   20  C   UNL     1      -9.323  12.702  68.004  1.00  0.00    -0.209 C  
HETATM   21  C   UNL     1      -9.508  13.359  66.627  1.00  0.00    -0.260 C  
HETATM   22  N   UNL     1     -10.834  13.946  66.405  1.00  0.00    -0.289 NA 
HETATM   23  C   UNL     1     -11.906  12.997  66.734  1.00  0.00    -0.388 C  
HETATM   24  C   UNL     1     -10.988  15.229  67.081  1.00  0.00    -0.331 C  
HETATM   25  C   UNL     1     -11.779  12.369  68.124  1.00  0.00    -0.408 C  
ENDBRANCH  18  19
ENDBRANCH   8   9
ENDBRANCH   7   8
ENDBRANCH   4   7
ENDBRANCH   2   4
TORSDOF 5
ENDMDL
MODEL      121
REMARK 921   NORMALIZED FREE ENERGY PREDICTED BY IDOCK:   -4.65 KCAL/MOL
REMARK 922        TOTAL FREE ENERGY PREDICTED BY IDOCK:   -6.35 KCAL/MOL
REMARK 923 INTER-LIGAND FREE ENERGY PREDICTED BY IDOCK:   -6.03 KCAL/MOL
REMARK 924 INTRA-LIGAND FREE ENERGY PREDICTED BY IDOCK:   -0.32 KCAL/MOL
REMARK 927      BINDING AFFINITY PREDICTED BY RF-SCORE:    0.00 PKD
ROOT
HETATM    1  C   UNL     1     -11.552  14.129  64.360  1.00  0.00    -0.362 C  
HETATM    2  N   UNL     1     -10.160  14.027  64.806  1.00  0.00    -0.589 N  
HETATM    3  H   UNL     1      -9.387  14.074  64.142  1.00  0.00     0.000 HD 
ENDROOT
BRANCH   2   4
HETATM    4  S   UNL     1      -9.885  13.829  66.460  1.00  0.00    -0.296 S  
HETATM    5  O   UNL     1     -11.163  13.951  67.126  1.00  0.00    -0.296 OA 
HETATM    6  O   UNL     1      -8.775  14.695  66.782  1.00  0.00    -0.237 OA 
BRANCH   4   7
HETATM    7  C   UNL     1      -9.337  12.134  66.527  1.00  0.00    -0.228 C  
BRANCH   7   8
HETATM    8  C   UNL     1     -10.489  11.170  66.284  1.00  0.00    -0.312 C  
BRANCH   8   9
HETATM    9  C   UNL     1     -10.107   9.711  66.437  1.00  0.00    -0.317 A  
HETATM   10  C   UNL     1     -10.638   8.972  67.515  1.00  0.00    -0.306 A  
HETATM   11  C   UNL     1     -10.261   7.624  67.719  1.00  0.00    -0.259 A  
HETATM   12  C   UNL     1      -9.383   7.054  66.798  1.00  0.00    -0.156 A  
HETATM   13  C   UNL     1      -8.830   7.754  65.727  1.00  0.00    -0.141 A  
HETATM   14  N   UNL     1      -9.191   5.749  67.165  1.00  0.00    -0.114 NA 
HETATM   15  C   UNL     1      -9.193   9.093  65.575  1.00  0.00    -0.287 A  
HETATM   16  H   UNL     1      -8.591   5.085  66.675  1.00  0.00     0.000 HD 
HETATM   17  C   UNL     1      -9.921   5.468  68.283  1.00  0.00    -0.154 A  
HETATM   18  C   UNL     1     -10.551   6.623  68.717  1.00  0.00    -0.271 A  
BRANCH  18  19
HETATM   19  C   UNL     1     -11.384   6.776  69.983  1.00  0.00    -0.396 C  
HETATM   20  C   UNL     1     -11.131   5.669  71.029  1.00  0.00    -0.202 C  
HETATM   21  C   UNL     1      -9.766   5.822  71.721  1.00  0.00    -0.156 C  
HETATM   22  N   UNL     1      -9.528   7.143  72.312  1.00  0.00    -0.139 NA 
HETATM   23  C   UNL     1      -9.807   8.222  71.355  1.00  0.00    -0.184 C  
HETATM   24  C   UNL     1     -10.233   7.313  73.577  1.00  0.00    -0.358 C  
HETATM   25  C   UNL     1     -11.184   8.126  70.691  1.00  0.00    -0.268 C  
ENDBRANCH  18  19
ENDBRANCH   8   9
ENDBRANCH   7   8
ENDBRANCH   4   7
ENDBRANCH   2   4
TORSDOF 5
ENDMDL
MODEL      122
REMARK 921   NORMALIZED FREE ENERGY PREDICTED BY IDOCK:   -4.65 KCAL/MOL
REMARK 922        TOTAL FREE ENERGY PREDICTED BY IDOCK:   -6.35 KCAL/MOL
REMARK 923 INTER-LIGAND FREE ENERGY PREDICTED BY IDOCK:   -6.17 KCAL/MOL
REMARK 924 INTRA-LIGAND FREE ENERGY PREDICTED BY IDOCK:   -0.18 KCAL/MOL
REMARK 927      BINDING AFFINITY PREDICTED BY RF-SCORE:    0.00 PKD
ROOT
HETATM    1  C   UNL     1     -12.659  11.994  63.247  1.00  0.00    -0.385 C  
HETATM    2  N   UNL     1     -11.706  13.094  63.416  1.00  0.00    -0.727 N  
HETATM    3  H   UNL     1     -10.878  13.172  62.825  1.00  0.00     0.000 HD 
ENDROOT
BRANCH   2   4
HETATM    4  S   UNL     1     -12.030  14.226  64.626  1.00  0.00    -0.472 S  
HETATM    5  O   UNL     1     -13.300  13.871  65.218  1.00  0.00    -0.732 OA 
HETATM    6  O   UNL     1     -11.809  15.520  64.024  1.00  0.00    -0.467 OA 
BRANCH   4   7
HETATM    7  C   UNL     1     -10.717  13.892  65.784  1.00  0.00    -0.289 C  
BRANCH   7   8
HETATM    8  C   UNL     1     -10.328  12.421  65.769  1.00  0.00    -0.289 C  
BRANCH   8   9
HETATM    9  C   UNL     1      -9.420  12.017  66.915  1.00  0.00    -0.206 A  
HETATM   10  C   UNL     1      -9.682  10.816  67.607  1.00  0.00    -0.185 A  
HETATM   11  C   UNL     1      -8.888  10.436  68.714  1.00  0.00    -0.157 A  
HETATM   12  C   UNL     1      -7.828  11.271  69.065  1.00  0.00    -0.079 A  
HETATM   13  C   UNL     1      -7.546  12.470  68.414  1.00  0.00    -0.129 A  
HETATM   14  N   UNL     1      -7.183  10.694  70.126  1.00  0.00    -0.428 NA 
HETATM   15  C   UNL     1      -8.369  12.835  67.347  1.00  0.00    -0.189 A  
HETATM   16  H   UNL     1      -6.368  11.085  70.598  1.00  0.00     0.000 HD 
HETATM   17  C   UNL     1      -7.792   9.519  70.458  1.00  0.00    -0.157 A  
HETATM   18  C   UNL     1      -8.909   9.343  69.657  1.00  0.00    -0.178 A  
BRANCH  18  19
HETATM   19  C   UNL     1      -9.926   8.215  69.762  1.00  0.00    -0.191 C  
HETATM   20  C   UNL     1     -10.399   7.677  68.394  1.00  0.00    -0.228 C  
HETATM   21  C   UNL     1      -9.316   6.846  67.688  1.00  0.00    -0.121 C  
HETATM   22  N   UNL     1      -8.762   5.755  68.497  1.00  0.00    -0.111 NA 
HETATM   23  C   UNL     1      -8.345   6.226  69.825  1.00  0.00    -0.125 C  
HETATM   24  C   UNL     1      -9.658   4.607  68.559  1.00  0.00    -0.158 C  
HETATM   25  C   UNL     1      -9.425   7.009  70.576  1.00  0.00    -0.166 C  
ENDBRANCH  18  19
ENDBRANCH   8   9
ENDBRANCH   7   8
ENDBRANCH   4   7
ENDBRANCH   2   4
TORSDOF 5
ENDMDL
MODEL      123
REMARK 921   NORMALIZED FREE ENERGY PREDICTED BY IDOCK:   -4.64 KCAL/MOL
REMARK 922        TOTAL FREE ENERGY PREDICTED BY IDOCK:   -6.34 KCAL/MOL
REMARK 923 INTER-LIGAND FREE ENERGY PREDICTED BY IDOCK:   -6.07 KCAL/MOL
REMARK 924 INTRA-LIGAND FREE ENERGY PREDICTED BY IDOCK:   -0.27 KCAL/MOL
REMARK 927      BINDING AFFINITY PREDICTED BY RF-SCORE:    0.00 PKD
ROOT
HETATM    1  C   UNL     1      -8.069   5.692  63.765  1.00  0.00    -0.120 C  
HETATM    2  N   UNL     1      -8.424   7.108  63.902  1.00  0.00    -0.337 N  
HETATM    3  H   UNL     1      -9.396   7.402  63.998  1.00  0.00     0.000 HD 
ENDROOT
BRANCH   2   4
HETATM    4  S   UNL     1      -7.163   8.231  63.894  1.00  0.00    -0.099 S  
HETATM    5  O   UNL     1      -6.720   8.370  62.525  1.00  0.00    -0.091 OA 
HETATM    6  O   UNL     1      -6.263   7.820  64.946  1.00  0.00    -0.041 OA 
BRANCH   4   7
HETATM    7  C   UNL     1      -8.009   9.715  64.401  1.00  0.00    -0.138 C  
BRANCH   7   8
HETATM    8  C   UNL     1      -9.090  10.105  63.402  1.00  0.00    -0.301 C  
BRANCH   8   9
HETATM    9  C   UNL     1     -10.080  11.120  63.938  1.00  0.00    -0.404 A  
HETATM   10  C   UNL     1     -10.006  11.500  65.295  1.00  0.00    -0.302 A  
HETATM   11  C   UNL     1     -10.947  12.404  65.842  1.00  0.00    -0.323 A  
HETATM   12  C   UNL     1     -11.915  12.924  64.983  1.00  0.00    -0.405 A  
HETATM   13  C   UNL     1     -12.027  12.564  63.641  1.00  0.00    -0.621 A  
HETATM   14  N   UNL     1     -12.683  13.794  65.708  1.00  0.00    -0.480 NA 
HETATM   15  C   UNL     1     -11.106  11.643  63.141  1.00  0.00    -0.209 A  
HETATM   16  H   UNL     1     -13.474  14.323  65.341  1.00  0.00     0.000 HD 
HETATM   17  C   UNL     1     -12.234  13.851  66.996  1.00  0.00    -0.355 A  
HETATM   18  C   UNL     1     -11.197  12.946  67.155  1.00  0.00    -0.329 A  
BRANCH  18  19
HETATM   19  C   UNL     1     -10.477  12.618  68.457  1.00  0.00    -0.249 C  
HETATM   20  C   UNL     1     -11.376  12.725  69.706  1.00  0.00    -0.103 C  
HETATM   21  C   UNL     1     -12.390  11.573  69.795  1.00  0.00    -0.155 C  
HETATM   22  N   UNL     1     -11.799  10.233  69.709  1.00  0.00    -0.190 NA 
HETATM   23  C   UNL     1     -10.898  10.114  68.555  1.00  0.00    -0.237 C  
HETATM   24  C   UNL     1     -11.170   9.829  70.961  1.00  0.00    -0.381 C  
HETATM   25  C   UNL     1      -9.841  11.218  68.472  1.00  0.00    -0.198 C  
ENDBRANCH  18  19
ENDBRANCH   8   9
ENDBRANCH   7   8
ENDBRANCH   4   7
ENDBRANCH   2   4
TORSDOF 5
ENDMDL
MODEL      124
REMARK 921   NORMALIZED FREE ENERGY PREDICTED BY IDOCK:   -4.58 KCAL/MOL
REMARK 922        TOTAL FREE ENERGY PREDICTED BY IDOCK:   -6.27 KCAL/MOL
REMARK 923 INTER-LIGAND FREE ENERGY PREDICTED BY IDOCK:   -6.14 KCAL/MOL
REMARK 924 INTRA-LIGAND FREE ENERGY PREDICTED BY IDOCK:   -0.12 KCAL/MOL
REMARK 927      BINDING AFFINITY PREDICTED BY RF-SCORE:    0.00 PKD
ROOT
HETATM    1  C   UNL     1      -6.825  19.232  68.989  1.00  0.00    -0.337 C  
HETATM    2  N   UNL     1      -6.872  18.175  67.974  1.00  0.00    -0.204 N  
HETATM    3  H   UNL     1      -6.156  17.450  67.932  1.00  0.00     0.000 HD 
ENDROOT
BRANCH   2   4
HETATM    4  S   UNL     1      -8.155  18.205  66.877  1.00  0.00    -0.245 S  
HETATM    5  O   UNL     1      -7.614  17.887  65.574  1.00  0.00    -0.518 OA 
HETATM    6  O   UNL     1      -8.859  19.441  67.126  1.00  0.00    -0.282 OA 
BRANCH   4   7
HETATM    7  C   UNL     1      -9.148  16.844  67.459  1.00  0.00    -0.222 C  
BRANCH   7   8
HETATM    8  C   UNL     1      -8.960  15.610  66.587  1.00  0.00    -0.317 C  
BRANCH   8   9
HETATM    9  C   UNL     1      -9.891  14.466  66.939  1.00  0.00    -0.263 A  
HETATM   10  C   UNL     1      -9.396  13.388  67.703  1.00  0.00    -0.217 A  
HETATM   11  C   UNL     1     -10.221  12.280  68.004  1.00  0.00    -0.206 A  
HETATM   12  C   UNL     1     -11.539  12.315  67.551  1.00  0.00    -0.353 A  
HETATM   13  C   UNL     1     -12.061  13.357  66.785  1.00  0.00    -0.419 A  
HETATM   14  N   UNL     1     -12.155  11.173  67.985  1.00  0.00    -0.711 NA 
HETATM   15  C   UNL     1     -11.211  14.419  66.474  1.00  0.00    -0.340 A  
HETATM   16  H   UNL     1     -13.127  10.924  67.800  1.00  0.00     0.000 HD 
HETATM   17  C   UNL     1     -11.277  10.415  68.703  1.00  0.00    -0.248 A  
HETATM   18  C   UNL     1     -10.031  11.022  68.685  1.00  0.00    -0.205 A  
BRANCH  18  19
HETATM   19  C   UNL     1      -8.746  10.462  69.280  1.00  0.00    -0.160 C  
HETATM   20  C   UNL     1      -8.980   9.421  70.394  1.00  0.00    -0.294 C  
HETATM   21  C   UNL     1      -9.492   8.081  69.842  1.00  0.00    -0.160 C  
HETATM   22  N   UNL     1      -8.665   7.505  68.776  1.00  0.00    -0.129 NA 
HETATM   23  C   UNL     1      -8.383   8.488  67.721  1.00  0.00    -0.130 C  
HETATM   24  C   UNL     1      -7.458   6.875  69.298  1.00  0.00    -0.094 C  
HETATM   25  C   UNL     1      -7.818   9.814  68.238  1.00  0.00    -0.089 C  
ENDBRANCH  18  19
ENDBRANCH   8   9
ENDBRANCH   7   8
ENDBRANCH   4   7
ENDBRANCH   2   4
TORSDOF 5
ENDMDL
MODEL      125
REMARK 921   NORMALIZED FREE ENERGY PREDICTED BY IDOCK:   -4.57 KCAL/MOL
REMARK 922        TOTAL FREE ENERGY PREDICTED BY IDOCK:   -6.25 KCAL/MOL
REMARK 923 INTER-LIGAND FREE ENERGY PREDICTED BY IDOCK:   -6.10 KCAL/MOL
REMARK 924 INTRA-LIGAND FREE ENERGY PREDICTED BY IDOCK:   -0.15 KCAL/MOL
REMARK 927      BINDING AFFINITY PREDICTED BY RF-SCORE:    0.00 PKD
ROOT
HETATM    1  C   UNL     1      -7.765   7.635  63.576  1.00  0.00    -0.130 C  
HETATM    2  N   UNL     1      -8.691   8.417  64.399  1.00  0.00    -0.404 N  
HETATM    3  H   UNL     1      -9.233   7.980  65.145  1.00  0.00     0.000 HD 
ENDROOT
BRANCH   2   4
HETATM    4  S   UNL     1      -8.826  10.066  64.067  1.00  0.00    -0.244 S  
HETATM    5  O   UNL     1      -9.595  10.199  62.849  1.00  0.00    -0.300 OA 
HETATM    6  O   UNL     1      -7.490  10.603  64.183  1.00  0.00     0.035 OA 
BRANCH   4   7
HETATM    7  C   UNL     1      -9.799  10.627  65.451  1.00  0.00    -0.267 C  
BRANCH   7   8
HETATM    8  C   UNL     1      -8.970  11.481  66.400  1.00  0.00    -0.200 C  
BRANCH   8   9
HETATM    9  C   UNL     1      -9.759  12.586  67.074  1.00  0.00    -0.213 A  
HETATM   10  C   UNL     1      -9.530  13.924  66.691  1.00  0.00    -0.296 A  
HETATM   11  C   UNL     1     -10.209  14.985  67.336  1.00  0.00    -0.234 A  
HETATM   12  C   UNL     1     -11.130  14.651  68.328  1.00  0.00    -0.271 A  
HETATM   13  C   UNL     1     -11.376  13.342  68.741  1.00  0.00    -0.332 A  
HETATM   14  N   UNL     1     -11.688  15.816  68.781  1.00  0.00    -0.418 NA 
HETATM   15  C   UNL     1     -10.663  12.322  68.110  1.00  0.00    -0.241 A  
HETATM   16  H   UNL     1     -12.395  15.881  69.513  1.00  0.00     0.000 HD 
HETATM   17  C   UNL     1     -11.159  16.878  68.107  1.00  0.00    -0.205 A  
HETATM   18  C   UNL     1     -10.175  16.424  67.244  1.00  0.00    -0.278 A  
BRANCH  18  19
HETATM   19  C   UNL     1      -9.267  17.287  66.377  1.00  0.00    -0.278 C  
HETATM   20  C   UNL     1      -9.838  18.690  66.085  1.00  0.00    -0.308 C  
HETATM   21  C   UNL     1      -9.793  19.606  67.319  1.00  0.00    -0.371 C  
HETATM   22  N   UNL     1      -8.472  19.718  67.946  1.00  0.00    -0.307 NA 
HETATM   23  C   UNL     1      -7.879  18.397  68.194  1.00  0.00    -0.289 C  
HETATM   24  C   UNL     1      -7.584  20.606  67.205  1.00  0.00    -0.314 C  
HETATM   25  C   UNL     1      -7.859  17.482  66.967  1.00  0.00    -0.240 C  
ENDBRANCH  18  19
ENDBRANCH   8   9
ENDBRANCH   7   8
ENDBRANCH   4   7
ENDBRANCH   2   4
TORSDOF 5
ENDMDL
MODEL      126
REMARK 921   NORMALIZED FREE ENERGY PREDICTED BY IDOCK:   -4.56 KCAL/MOL
REMARK 922        TOTAL FREE ENERGY PREDICTED BY IDOCK:   -6.23 KCAL/MOL
REMARK 923 INTER-LIGAND FREE ENERGY PREDICTED BY IDOCK:   -6.11 KCAL/MOL
REMARK 924 INTRA-LIGAND FREE ENERGY PREDICTED BY IDOCK:   -0.12 KCAL/MOL
REMARK 927      BINDING AFFINITY PREDICTED BY RF-SCORE:    0.00 PKD
ROOT
HETATM    1  C   UNL     1      -7.972  15.155  67.427  1.00  0.00    -0.190 C  
HETATM    2  N   UNL     1      -8.768  14.355  66.493  1.00  0.00    -0.460 N  
HETATM    3  H   UNL     1      -8.327  13.687  65.860  1.00  0.00     0.000 HD 
ENDROOT
BRANCH   2   4
HETATM    4  S   UNL     1     -10.441  14.578  66.504  1.00  0.00    -0.292 S  
HETATM    5  O   UNL     1     -11.005  13.648  65.551  1.00  0.00    -0.287 OA 
HETATM    6  O   UNL     1     -10.650  16.002  66.390  1.00  0.00    -0.308 OA 
BRANCH   4   7
HETATM    7  C   UNL     1     -10.856  14.061  68.159  1.00  0.00    -0.248 C  
BRANCH   7   8
HETATM    8  C   UNL     1     -10.563  12.582  68.366  1.00  0.00    -0.256 C  
BRANCH   8   9
HETATM    9  C   UNL     1     -11.356  11.954  69.494  1.00  0.00    -0.306 A  
HETATM   10  C   UNL     1     -11.213  10.574  69.749  1.00  0.00    -0.361 A  
HETATM   11  C   UNL     1     -11.978   9.944  70.758  1.00  0.00    -0.410 A  
HETATM   12  C   UNL     1     -12.841  10.744  71.506  1.00  0.00    -0.462 A  
HETATM   13  C   UNL     1     -13.018  12.108  71.278  1.00  0.00    -0.303 A  
HETATM   14  N   UNL     1     -13.441   9.943  72.439  1.00  0.00    -0.625 NA 
HETATM   15  C   UNL     1     -12.276  12.692  70.250  1.00  0.00    -0.347 A  
HETATM   16  H   UNL     1     -14.128  10.255  73.126  1.00  0.00     0.000 HD 
HETATM   17  C   UNL     1     -12.986   8.662  72.315  1.00  0.00    -0.381 A  
HETATM   18  C   UNL     1     -12.125   8.589  71.231  1.00  0.00    -0.323 A  
BRANCH  18  19
HETATM   19  C   UNL     1     -11.471   7.328  70.682  1.00  0.00    -0.322 C  
HETATM   20  C   UNL     1     -10.018   7.125  71.159  1.00  0.00    -0.187 C  
HETATM   21  C   UNL     1      -9.941   6.709  72.637  1.00  0.00    -0.171 C  
HETATM   22  N   UNL     1     -10.756   5.539  72.983  1.00  0.00    -0.236 NA 
HETATM   23  C   UNL     1     -12.136   5.681  72.499  1.00  0.00     0.017 C  
HETATM   24  C   UNL     1     -10.134   4.291  72.558  1.00  0.00    -0.172 C  
HETATM   25  C   UNL     1     -12.244   6.040  71.015  1.00  0.00     0.521 C  
ENDBRANCH  18  19
ENDBRANCH   8   9
ENDBRANCH   7   8
ENDBRANCH   4   7
ENDBRANCH   2   4
TORSDOF 5
ENDMDL
MODEL      127
REMARK 921   NORMALIZED FREE ENERGY PREDICTED BY IDOCK:   -4.54 KCAL/MOL
REMARK 922        TOTAL FREE ENERGY PREDICTED BY IDOCK:   -6.21 KCAL/MOL
REMARK 923 INTER-LIGAND FREE ENERGY PREDICTED BY IDOCK:   -5.49 KCAL/MOL
REMARK 924 INTRA-LIGAND FREE ENERGY PREDICTED BY IDOCK:   -0.72 KCAL/MOL
REMARK 927      BINDING AFFINITY PREDICTED BY RF-SCORE:    0.00 PKD
ROOT
HETATM    1  C   UNL     1     -10.794  16.315  67.855  1.00  0.00    -0.330 C  
HETATM    2  N   UNL     1     -10.580  17.756  68.012  1.00  0.00    -0.384 N  
HETATM    3  H   UNL     1     -10.658  18.205  68.925  1.00  0.00     0.000 HD 
ENDROOT
BRANCH   2   4
HETATM    4  S   UNL     1     -10.200  18.643  66.627  1.00  0.00    -0.427 S  
HETATM    5  O   UNL     1     -11.012  19.840  66.648  1.00  0.00    -0.417 OA 
HETATM    6  O   UNL     1     -10.257  17.706  65.530  1.00  0.00    -0.600 OA 
BRANCH   4   7
HETATM    7  C   UNL     1      -8.498  19.071  66.937  1.00  0.00    -0.290 C  
BRANCH   7   8
HETATM    8  C   UNL     1      -7.552  18.026  66.363  1.00  0.00    -0.297 C  
BRANCH   8   9
HETATM    9  C   UNL     1      -7.092  16.996  67.377  1.00  0.00    -0.183 A  
HETATM   10  C   UNL     1      -7.312  15.628  67.112  1.00  0.00    -0.247 A  
HETATM   11  C   UNL     1      -6.945  14.643  68.059  1.00  0.00    -0.147 A  
HETATM   12  C   UNL     1      -6.331  15.076  69.234  1.00  0.00    -0.116 A  
HETATM   13  C   UNL     1      -6.107  16.418  69.535  1.00  0.00    -0.188 A  
HETATM   14  N   UNL     1      -6.032  13.965  69.975  1.00  0.00    -0.133 NA 
HETATM   15  C   UNL     1      -6.514  17.367  68.597  1.00  0.00    -0.191 A  
HETATM   16  H   UNL     1      -5.579  13.975  70.889  1.00  0.00     0.000 HD 
HETATM   17  C   UNL     1      -6.429  12.841  69.311  1.00  0.00    -0.105 A  
HETATM   18  C   UNL     1      -7.074  13.208  68.141  1.00  0.00    -0.109 A  
BRANCH  18  19
HETATM   19  C   UNL     1      -7.758  12.271  67.155  1.00  0.00    -0.134 C  
HETATM   20  C   UNL     1      -7.841  10.810  67.645  1.00  0.00    -0.109 C  
HETATM   21  C   UNL     1      -8.872  10.630  68.771  1.00  0.00    -0.161 C  
HETATM   22  N   UNL     1     -10.212  11.136  68.456  1.00  0.00    -0.191 NA 
HETATM   23  C   UNL     1     -10.163  12.511  67.941  1.00  0.00    -0.219 C  
HETATM   24  C   UNL     1     -10.950  10.232  67.582  1.00  0.00    -0.294 C  
HETATM   25  C   UNL     1      -9.184  12.707  66.780  1.00  0.00    -0.225 C  
ENDBRANCH  18  19
ENDBRANCH   8   9
ENDBRANCH   7   8
ENDBRANCH   4   7
ENDBRANCH   2   4
TORSDOF 5
ENDMDL
MODEL      128
REMARK 921   NORMALIZED FREE ENERGY PREDICTED BY IDOCK:   -4.54 KCAL/MOL
REMARK 922        TOTAL FREE ENERGY PREDICTED BY IDOCK:   -6.21 KCAL/MOL
REMARK 923 INTER-LIGAND FREE ENERGY PREDICTED BY IDOCK:   -5.83 KCAL/MOL
REMARK 924 INTRA-LIGAND FREE ENERGY PREDICTED BY IDOCK:   -0.38 KCAL/MOL
REMARK 927      BINDING AFFINITY PREDICTED BY RF-SCORE:    0.00 PKD
ROOT
HETATM    1  C   UNL     1      -5.847  19.810  70.900  1.00  0.00    -0.247 C  
HETATM    2  N   UNL     1      -5.460  18.791  69.921  1.00  0.00    -0.222 N  
HETATM    3  H   UNL     1      -4.820  18.035  70.169  1.00  0.00     0.000 HD 
ENDROOT
BRANCH   2   4
HETATM    4  S   UNL     1      -6.112  18.914  68.368  1.00  0.00    -0.220 S  
HETATM    5  O   UNL     1      -5.425  17.951  67.536  1.00  0.00    -0.135 OA 
HETATM    6  O   UNL     1      -6.116  20.323  68.053  1.00  0.00    -0.222 OA 
BRANCH   4   7
HETATM    7  C   UNL     1      -7.788  18.376  68.645  1.00  0.00    -0.299 C  
BRANCH   7   8
HETATM    8  C   UNL     1      -8.444  17.922  67.349  1.00  0.00    -0.236 C  
BRANCH   8   9
HETATM    9  C   UNL     1      -9.190  16.608  67.469  1.00  0.00    -0.207 A  
HETATM   10  C   UNL     1     -10.269  16.512  68.373  1.00  0.00    -0.266 A  
HETATM   11  C   UNL     1     -10.954  15.287  68.550  1.00  0.00    -0.266 A  
HETATM   12  C   UNL     1     -10.544  14.202  67.775  1.00  0.00    -0.243 A  
HETATM   13  C   UNL     1      -9.476  14.255  66.881  1.00  0.00    -0.272 A  
HETATM   14  N   UNL     1     -11.361  13.147  68.080  1.00  0.00    -0.273 NA 
HETATM   15  C   UNL     1      -8.799  15.468  66.756  1.00  0.00    -0.297 A  
HETATM   16  H   UNL     1     -11.293  12.216  67.669  1.00  0.00     0.000 HD 
HETATM   17  C   UNL     1     -12.278  13.524  69.017  1.00  0.00    -0.186 A  
HETATM   18  C   UNL     1     -12.024  14.830  69.403  1.00  0.00    -0.339 A  
BRANCH  18  19
HETATM   19  C   UNL     1     -12.749  15.606  70.495  1.00  0.00    -0.391 C  
HETATM   20  C   UNL     1     -13.693  14.736  71.351  1.00  0.00    -0.504 C  
HETATM   21  C   UNL     1     -12.926  13.805  72.304  1.00  0.00    -0.336 C  
HETATM   22  N   UNL     1     -11.947  14.484  73.160  1.00  0.00     0.009 NA 
HETATM   23  C   UNL     1     -11.061  15.359  72.379  1.00  0.00     0.119 C  
HETATM   24  C   UNL     1     -12.579  15.173  74.278  1.00  0.00    -0.355 C  
HETATM   25  C   UNL     1     -11.801  16.336  71.462  1.00  0.00    -0.441 C  
ENDBRANCH  18  19
ENDBRANCH   8   9
ENDBRANCH   7   8
ENDBRANCH   4   7
ENDBRANCH   2   4
TORSDOF 5
ENDMDL
MODEL      129
REMARK 921   NORMALIZED FREE ENERGY PREDICTED BY IDOCK:   -4.53 KCAL/MOL
REMARK 922        TOTAL FREE ENERGY PREDICTED BY IDOCK:   -6.20 KCAL/MOL
REMARK 923 INTER-LIGAND FREE ENERGY PREDICTED BY IDOCK:   -5.73 KCAL/MOL
REMARK 924 INTRA-LIGAND FREE ENERGY PREDICTED BY IDOCK:   -0.47 KCAL/MOL
REMARK 927      BINDING AFFINITY PREDICTED BY RF-SCORE:    0.00 PKD
ROOT
HETATM    1  C   UNL     1     -14.234   7.571  71.681  1.00  0.00    -0.458 C  
HETATM    2  N   UNL     1     -13.120   8.368  71.162  1.00  0.00    -0.506 N  
HETATM    3  H   UNL     1     -13.284   9.193  70.584  1.00  0.00     0.000 HD 
ENDROOT
BRANCH   2   4
HETATM    4  S   UNL     1     -11.555   7.871  71.554  1.00  0.00    -0.281 S  
HETATM    5  O   UNL     1     -11.217   6.777  70.670  1.00  0.00    -0.272 OA 
HETATM    6  O   UNL     1     -11.538   7.719  72.990  1.00  0.00    -0.330 OA 
BRANCH   4   7
HETATM    7  C   UNL     1     -10.604   9.311  71.111  1.00  0.00    -0.332 C  
BRANCH   7   8
HETATM    8  C   UNL     1     -11.494  10.409  70.546  1.00  0.00    -0.431 C  
BRANCH   8   9
HETATM    9  C   UNL     1     -11.201  10.749  69.098  1.00  0.00    -0.323 A  
HETATM   10  C   UNL     1     -10.145  10.087  68.438  1.00  0.00    -0.186 A  
HETATM   11  C   UNL     1      -9.809  10.416  67.104  1.00  0.00    -0.221 A  
HETATM   12  C   UNL     1     -10.583  11.385  66.466  1.00  0.00    -0.263 A  
HETATM   13  C   UNL     1     -11.626  12.069  67.088  1.00  0.00    -0.387 A  
HETATM   14  N   UNL     1     -10.110  11.514  65.188  1.00  0.00    -0.256 NA 
HETATM   15  C   UNL     1     -11.909  11.746  68.416  1.00  0.00    -0.347 A  
HETATM   16  H   UNL     1     -10.481  12.155  64.488  1.00  0.00     0.000 HD 
HETATM   17  C   UNL     1      -9.067  10.656  64.990  1.00  0.00    -0.202 A  
HETATM   18  C   UNL     1      -8.787   9.998  66.176  1.00  0.00    -0.165 A  
BRANCH  18  19
HETATM   19  C   UNL     1      -7.638   9.028  66.421  1.00  0.00    -0.092 C  
HETATM   20  C   UNL     1      -8.026   7.815  67.293  1.00  0.00    -0.118 C  
HETATM   21  C   UNL     1      -8.917   6.815  66.537  1.00  0.00    -0.149 C  
HETATM   22  N   UNL     1      -8.370   6.363  65.253  1.00  0.00    -0.146 NA 
HETATM   23  C   UNL     1      -7.946   7.495  64.418  1.00  0.00    -0.117 C  
HETATM   24  C   UNL     1      -7.323   5.363  65.423  1.00  0.00    -0.069 C  
HETATM   25  C   UNL     1      -7.012   8.478  65.128  1.00  0.00    -0.075 C  
ENDBRANCH  18  19
ENDBRANCH   8   9
ENDBRANCH   7   8
ENDBRANCH   4   7
ENDBRANCH   2   4
TORSDOF 5
ENDMDL
MODEL      130
REMARK 921   NORMALIZED FREE ENERGY PREDICTED BY IDOCK:   -4.53 KCAL/MOL
REMARK 922        TOTAL FREE ENERGY PREDICTED BY IDOCK:   -6.19 KCAL/MOL
REMARK 923 INTER-LIGAND FREE ENERGY PREDICTED BY IDOCK:   -5.86 KCAL/MOL
REMARK 924 INTRA-LIGAND FREE ENERGY PREDICTED BY IDOCK:   -0.34 KCAL/MOL
REMARK 927      BINDING AFFINITY PREDICTED BY RF-SCORE:    0.00 PKD
ROOT
HETATM    1  C   UNL     1     -10.890   5.176  74.020  1.00  0.00    -0.187 C  
HETATM    2  N   UNL     1     -11.336   6.091  72.966  1.00  0.00    -0.465 N  
HETATM    3  H   UNL     1     -12.300   6.423  72.927  1.00  0.00     0.000 HD 
ENDROOT
BRANCH   2   4
HETATM    4  S   UNL     1     -10.196   6.574  71.819  1.00  0.00    -0.189 S  
HETATM    5  O   UNL     1      -9.596   5.375  71.277  1.00  0.00    -0.150 OA 
HETATM    6  O   UNL     1      -9.402   7.597  72.459  1.00  0.00    -0.144 OA 
BRANCH   4   7
HETATM    7  C   UNL     1     -11.234   7.333  70.585  1.00  0.00    -0.274 C  
BRANCH   7   8
HETATM    8  C   UNL     1     -10.494   7.498  69.266  1.00  0.00    -0.216 C  
BRANCH   8   9
HETATM    9  C   UNL     1      -9.738   8.807  69.149  1.00  0.00    -0.175 A  
HETATM   10  C   UNL     1     -10.426   9.961  68.719  1.00  0.00    -0.234 A  
HETATM   11  C   UNL     1      -9.741  11.186  68.547  1.00  0.00    -0.196 A  
HETATM   12  C   UNL     1      -8.381  11.212  68.853  1.00  0.00    -0.099 A  
HETATM   13  C   UNL     1      -7.664  10.092  69.270  1.00  0.00    -0.117 A  
HETATM   14  N   UNL     1      -7.938  12.492  68.654  1.00  0.00    -0.295 NA 
HETATM   15  C   UNL     1      -8.362   8.889  69.395  1.00  0.00    -0.112 A  
HETATM   16  H   UNL     1      -6.979  12.809  68.795  1.00  0.00     0.000 HD 
HETATM   17  C   UNL     1      -8.970  13.282  68.237  1.00  0.00    -0.176 A  
HETATM   18  C   UNL     1     -10.105  12.502  68.081  1.00  0.00    -0.225 A  
BRANCH  18  19
HETATM   19  C   UNL     1     -11.451  12.966  67.539  1.00  0.00    -0.386 C  
HETATM   20  C   UNL     1     -11.577  14.499  67.422  1.00  0.00    -0.406 C  
HETATM   21  C   UNL     1     -10.739  15.067  66.265  1.00  0.00    -0.322 C  
HETATM   22  N   UNL     1     -10.991  14.437  64.964  1.00  0.00    -0.366 NA 
HETATM   23  C   UNL     1     -10.925  12.972  65.052  1.00  0.00    -0.298 C  
HETATM   24  C   UNL     1     -12.227  14.912  64.354  1.00  0.00    -0.381 C  
HETATM   25  C   UNL     1     -11.795  12.374  66.161  1.00  0.00    -0.442 C  
ENDBRANCH  18  19
ENDBRANCH   8   9
ENDBRANCH   7   8
ENDBRANCH   4   7
ENDBRANCH   2   4
TORSDOF 5
ENDMDL
MODEL      131
REMARK 921   NORMALIZED FREE ENERGY PREDICTED BY IDOCK:   -4.50 KCAL/MOL
REMARK 922        TOTAL FREE ENERGY PREDICTED BY IDOCK:   -6.16 KCAL/MOL
REMARK 923 INTER-LIGAND FREE ENERGY PREDICTED BY IDOCK:   -5.90 KCAL/MOL
REMARK 924 INTRA-LIGAND FREE ENERGY PREDICTED BY IDOCK:   -0.26 KCAL/MOL
REMARK 927      BINDING AFFINITY PREDICTED BY RF-SCORE:    0.00 PKD
ROOT
HETATM    1  C   UNL     1     -10.899  16.356  65.051  1.00  0.00    -0.273 C  
HETATM    2  N   UNL     1     -10.350  15.023  64.786  1.00  0.00    -0.484 N  
HETATM    3  H   UNL     1     -10.046  14.752  63.851  1.00  0.00     0.000 HD 
ENDROOT
BRANCH   2   4
HETATM    4  S   UNL     1     -10.239  13.954  66.088  1.00  0.00    -0.309 S  
HETATM    5  O   UNL     1     -11.526  13.943  66.747  1.00  0.00    -0.323 OA 
HETATM    6  O   UNL     1      -9.029  14.312  66.791  1.00  0.00    -0.251 OA 
BRANCH   4   7
HETATM    7  C   UNL     1      -9.985  12.401  65.250  1.00  0.00    -0.215 C  
BRANCH   7   8
HETATM    8  C   UNL     1     -11.005  11.362  65.691  1.00  0.00    -0.254 C  
BRANCH   8   9
HETATM    9  C   UNL     1     -10.396  10.173  66.407  1.00  0.00    -0.258 A  
HETATM   10  C   UNL     1     -10.590  10.036  67.797  1.00  0.00    -0.311 A  
HETATM   11  C   UNL     1      -9.992   8.968  68.507  1.00  0.00    -0.193 A  
HETATM   12  C   UNL     1      -9.241   8.049  67.775  1.00  0.00    -0.134 A  
HETATM   13  C   UNL     1      -9.017   8.157  66.403  1.00  0.00    -0.207 A  
HETATM   14  N   UNL     1      -8.795   7.093  68.648  1.00  0.00    -0.127 NA 
HETATM   15  C   UNL     1      -9.591   9.241  65.739  1.00  0.00    -0.341 A  
HETATM   16  H   UNL     1      -8.216   6.293  68.394  1.00  0.00     0.000 HD 
HETATM   17  C   UNL     1      -9.241   7.369  69.907  1.00  0.00    -0.144 A  
HETATM   18  C   UNL     1      -9.932   8.571  69.892  1.00  0.00    -0.189 A  
BRANCH  18  19
HETATM   19  C   UNL     1     -10.511   9.294  71.101  1.00  0.00    -0.401 C  
HETATM   20  C   UNL     1     -11.732  10.177  70.769  1.00  0.00    -0.446 C  
HETATM   21  C   UNL     1     -12.990   9.344  70.470  1.00  0.00     0.316 C  
HETATM   22  N   UNL     1     -13.336   8.369  71.510  1.00  0.00    -0.314 NA 
HETATM   23  C   UNL     1     -12.179   7.544  71.883  1.00  0.00    -0.306 C  
HETATM   24  C   UNL     1     -13.977   8.997  72.659  1.00  0.00    -0.308 C  
HETATM   25  C   UNL     1     -10.928   8.349  72.241  1.00  0.00    -0.431 C  
ENDBRANCH  18  19
ENDBRANCH   8   9
ENDBRANCH   7   8
ENDBRANCH   4   7
ENDBRANCH   2   4
TORSDOF 5
ENDMDL
MODEL      132
REMARK 921   NORMALIZED FREE ENERGY PREDICTED BY IDOCK:   -4.49 KCAL/MOL
REMARK 922        TOTAL FREE ENERGY PREDICTED BY IDOCK:   -6.14 KCAL/MOL
REMARK 923 INTER-LIGAND FREE ENERGY PREDICTED BY IDOCK:   -5.68 KCAL/MOL
REMARK 924 INTRA-LIGAND FREE ENERGY PREDICTED BY IDOCK:   -0.46 KCAL/MOL
REMARK 927      BINDING AFFINITY PREDICTED BY RF-SCORE:    0.00 PKD
ROOT
HETATM    1  C   UNL     1      -7.307   7.613  69.988  1.00  0.00    -0.080 C  
HETATM    2  N   UNL     1      -8.048   7.618  68.724  1.00  0.00    -0.125 N  
HETATM    3  H   UNL     1      -7.765   8.215  67.947  1.00  0.00     0.000 HD 
ENDROOT
BRANCH   2   4
HETATM    4  S   UNL     1      -9.387   6.597  68.602  1.00  0.00    -0.128 S  
HETATM    5  O   UNL     1      -9.719   6.161  69.940  1.00  0.00    -0.159 OA 
HETATM    6  O   UNL     1      -9.072   5.656  67.553  1.00  0.00    -0.109 OA 
BRANCH   4   7
HETATM    7  C   UNL     1     -10.638   7.723  68.015  1.00  0.00    -0.139 C  
BRANCH   7   8
HETATM    8  C   UNL     1     -10.086   9.134  67.865  1.00  0.00    -0.246 C  
BRANCH   8   9
HETATM    9  C   UNL     1     -10.779  10.157  68.742  1.00  0.00    -0.247 A  
HETATM   10  C   UNL     1     -10.872  11.493  68.297  1.00  0.00    -0.257 A  
HETATM   11  C   UNL     1     -11.464  12.485  69.113  1.00  0.00    -0.361 A  
HETATM   12  C   UNL     1     -11.980  12.083  70.345  1.00  0.00    -0.291 A  
HETATM   13  C   UNL     1     -11.897  10.777  70.824  1.00  0.00    -0.443 A  
HETATM   14  N   UNL     1     -12.532  13.185  70.939  1.00  0.00    -0.359 NA 
HETATM   15  C   UNL     1     -11.275   9.829  70.010  1.00  0.00    -0.297 A  
HETATM   16  H   UNL     1     -12.982  13.193  71.854  1.00  0.00     0.000 HD 
HETATM   17  C   UNL     1     -12.392  14.272  70.126  1.00  0.00    -0.353 A  
HETATM   18  C   UNL     1     -11.665  13.909  69.003  1.00  0.00    -0.378 A  
BRANCH  18  19
HETATM   19  C   UNL     1     -11.199  14.839  67.890  1.00  0.00    -0.318 C  
HETATM   20  C   UNL     1     -11.514  16.327  68.153  1.00  0.00    -0.173 C  
HETATM   21  C   UNL     1     -10.615  16.929  69.246  1.00  0.00    -0.325 C  
HETATM   22  N   UNL     1      -9.177  16.747  69.020  1.00  0.00    -0.237 NA 
HETATM   23  C   UNL     1      -8.851  15.347  68.719  1.00  0.00    -0.196 C  
HETATM   24  C   UNL     1      -8.656  17.675  68.024  1.00  0.00    -0.248 C  
HETATM   25  C   UNL     1      -9.693  14.737  67.595  1.00  0.00    -0.213 C  
ENDBRANCH  18  19
ENDBRANCH   8   9
ENDBRANCH   7   8
ENDBRANCH   4   7
ENDBRANCH   2   4
TORSDOF 5
ENDMDL
MODEL      133
REMARK 921   NORMALIZED FREE ENERGY PREDICTED BY IDOCK:   -4.47 KCAL/MOL
REMARK 922        TOTAL FREE ENERGY PREDICTED BY IDOCK:   -6.12 KCAL/MOL
REMARK 923 INTER-LIGAND FREE ENERGY PREDICTED BY IDOCK:   -5.82 KCAL/MOL
REMARK 924 INTRA-LIGAND FREE ENERGY PREDICTED BY IDOCK:   -0.30 KCAL/MOL
REMARK 927      BINDING AFFINITY PREDICTED BY RF-SCORE:    0.00 PKD
ROOT
HETATM    1  C   UNL     1     -10.802  12.425  64.072  1.00  0.00    -0.397 C  
HETATM    2  N   UNL     1     -11.763  12.302  65.172  1.00  0.00    -0.370 N  
HETATM    3  H   UNL     1     -12.620  11.758  65.067  1.00  0.00     0.000 HD 
ENDROOT
BRANCH   2   4
HETATM    4  S   UNL     1     -11.397  13.092  66.618  1.00  0.00    -0.342 S  
HETATM    5  O   UNL     1     -12.268  14.243  66.711  1.00  0.00    -0.441 OA 
HETATM    6  O   UNL     1      -9.959  13.224  66.644  1.00  0.00    -0.258 OA 
BRANCH   4   7
HETATM    7  C   UNL     1     -11.890  11.873  67.822  1.00  0.00    -0.219 C  
BRANCH   7   8
HETATM    8  C   UNL     1     -10.778  11.607  68.826  1.00  0.00    -0.254 C  
BRANCH   8   9
HETATM    9  C   UNL     1     -10.839  10.229  69.455  1.00  0.00    -0.292 A  
HETATM   10  C   UNL     1     -10.712   9.092  68.630  1.00  0.00    -0.137 A  
HETATM   11  C   UNL     1     -10.819   7.791  69.175  1.00  0.00    -0.066 A  
HETATM   12  C   UNL     1     -11.016   7.682  70.551  1.00  0.00    -0.249 A  
HETATM   13  C   UNL     1     -11.157   8.781  71.397  1.00  0.00    -0.361 A  
HETATM   14  N   UNL     1     -11.049   6.349  70.859  1.00  0.00    -0.281 NA 
HETATM   15  C   UNL     1     -11.084  10.051  70.823  1.00  0.00    -0.407 A  
HETATM   16  H   UNL     1     -11.184   5.967  71.794  1.00  0.00     0.000 HD 
HETATM   17  C   UNL     1     -10.875   5.606  69.728  1.00  0.00    -0.300 A  
HETATM   18  C   UNL     1     -10.800   6.453  68.633  1.00  0.00    -0.379 A  
BRANCH  18  19
HETATM   19  C   UNL     1     -10.705   6.034  67.172  1.00  0.00    -0.409 C  
HETATM   20  C   UNL     1      -9.744   6.908  66.338  1.00  0.00    -0.127 C  
HETATM   21  C   UNL     1      -8.269   6.636  66.674  1.00  0.00    -0.112 C  
HETATM   22  N   UNL     1      -7.874   5.226  66.590  1.00  0.00    -0.100 NA 
HETATM   23  C   UNL     1      -8.799   4.361  67.335  1.00  0.00    -0.108 C  
HETATM   24  C   UNL     1      -7.682   4.791  65.211  1.00  0.00    -0.086 C  
HETATM   25  C   UNL     1     -10.273   4.570  66.980  1.00  0.00    -0.123 C  
ENDBRANCH  18  19
ENDBRANCH   8   9
ENDBRANCH   7   8
ENDBRANCH   4   7
ENDBRANCH   2   4
TORSDOF 5
ENDMDL
MODEL      134
REMARK 921   NORMALIZED FREE ENERGY PREDICTED BY IDOCK:   -4.47 KCAL/MOL
REMARK 922        TOTAL FREE ENERGY PREDICTED BY IDOCK:   -6.12 KCAL/MOL
REMARK 923 INTER-LIGAND FREE ENERGY PREDICTED BY IDOCK:   -5.95 KCAL/MOL
REMARK 924 INTRA-LIGAND FREE ENERGY PREDICTED BY IDOCK:   -0.17 KCAL/MOL
REMARK 927      BINDING AFFINITY PREDICTED BY RF-SCORE:    0.00 PKD
ROOT
HETATM    1  C   UNL     1      -7.800  19.049  68.821  1.00  0.00    -0.342 C  
HETATM    2  N   UNL     1      -7.754  17.716  68.213  1.00  0.00    -0.243 N  
HETATM    3  H   UNL     1      -7.054  17.030  68.495  1.00  0.00     0.000 HD 
ENDROOT
BRANCH   2   4
HETATM    4  S   UNL     1      -8.904  17.360  67.029  1.00  0.00    -0.241 S  
HETATM    5  O   UNL     1      -8.202  17.240  65.770  1.00  0.00    -0.533 OA 
HETATM    6  O   UNL     1      -9.970  18.316  67.215  1.00  0.00    -0.309 OA 
BRANCH   4   7
HETATM    7  C   UNL     1      -9.466  15.753  67.554  1.00  0.00    -0.218 C  
BRANCH   7   8
HETATM    8  C   UNL     1     -10.688  15.308  66.763  1.00  0.00    -0.313 C  
BRANCH   8   9
HETATM    9  C   UNL     1     -10.551  13.927  66.153  1.00  0.00    -0.291 A  
HETATM   10  C   UNL     1     -10.056  12.872  66.948  1.00  0.00    -0.241 A  
HETATM   11  C   UNL     1      -9.865  11.584  66.398  1.00  0.00    -0.233 A  
HETATM   12  C   UNL     1     -10.218  11.395  65.062  1.00  0.00    -0.281 A  
HETATM   13  C   UNL     1     -10.700  12.414  64.242  1.00  0.00    -0.390 A  
HETATM   14  N   UNL     1      -9.988  10.080  64.757  1.00  0.00    -0.385 NA 
HETATM   15  C   UNL     1     -10.843  13.682  64.806  1.00  0.00    -0.402 A  
HETATM   16  H   UNL     1     -10.153   9.653  63.846  1.00  0.00     0.000 HD 
HETATM   17  C   UNL     1      -9.507   9.426  65.853  1.00  0.00    -0.251 A  
HETATM   18  C   UNL     1      -9.338  10.333  66.887  1.00  0.00    -0.183 A  
BRANCH  18  19
HETATM   19  C   UNL     1      -8.733  10.041  68.254  1.00  0.00    -0.119 C  
HETATM   20  C   UNL     1      -9.775   9.950  69.388  1.00  0.00    -0.228 C  
HETATM   21  C   UNL     1     -10.611   8.663  69.310  1.00  0.00    -0.192 C  
HETATM   22  N   UNL     1      -9.823   7.427  69.247  1.00  0.00    -0.166 NA 
HETATM   23  C   UNL     1      -8.787   7.501  68.207  1.00  0.00    -0.125 C  
HETATM   24  C   UNL     1      -9.289   7.050  70.550  1.00  0.00    -0.159 C  
HETATM   25  C   UNL     1      -7.902   8.747  68.294  1.00  0.00    -0.101 C  
ENDBRANCH  18  19
ENDBRANCH   8   9
ENDBRANCH   7   8
ENDBRANCH   4   7
ENDBRANCH   2   4
TORSDOF 5
ENDMDL
MODEL      135
REMARK 921   NORMALIZED FREE ENERGY PREDICTED BY IDOCK:   -4.46 KCAL/MOL
REMARK 922        TOTAL FREE ENERGY PREDICTED BY IDOCK:   -6.10 KCAL/MOL
REMARK 923 INTER-LIGAND FREE ENERGY PREDICTED BY IDOCK:   -5.84 KCAL/MOL
REMARK 924 INTRA-LIGAND FREE ENERGY PREDICTED BY IDOCK:   -0.26 KCAL/MOL
REMARK 927      BINDING AFFINITY PREDICTED BY RF-SCORE:    0.00 PKD
ROOT
HETATM    1  C   UNL     1      -9.062   6.310  71.288  1.00  0.00    -0.146 C  
HETATM    2  N   UNL     1     -10.378   6.859  71.624  1.00  0.00    -0.199 N  
HETATM    3  H   UNL     1     -11.165   6.248  71.845  1.00  0.00     0.000 HD 
ENDROOT
BRANCH   2   4
HETATM    4  S   UNL     1     -10.543   8.539  71.634  1.00  0.00    -0.311 S  
HETATM    5  O   UNL     1      -9.323   9.087  72.185  1.00  0.00    -0.356 OA 
HETATM    6  O   UNL     1     -11.831   8.806  72.229  1.00  0.00    -0.360 OA 
BRANCH   4   7
HETATM    7  C   UNL     1     -10.623   8.896  69.890  1.00  0.00    -0.221 C  
BRANCH   7   8
HETATM    8  C   UNL     1      -9.580   9.929  69.488  1.00  0.00    -0.242 C  
BRANCH   8   9
HETATM    9  C   UNL     1      -9.895  10.641  68.187  1.00  0.00    -0.170 A  
HETATM   10  C   UNL     1     -10.055  12.042  68.194  1.00  0.00    -0.200 A  
HETATM   11  C   UNL     1     -10.402  12.733  67.009  1.00  0.00    -0.240 A  
HETATM   12  C   UNL     1     -10.540  11.982  65.842  1.00  0.00    -0.265 A  
HETATM   13  C   UNL     1     -10.400  10.596  65.798  1.00  0.00    -0.287 A  
HETATM   14  N   UNL     1     -10.836  12.850  64.826  1.00  0.00    -0.310 NA 
HETATM   15  C   UNL     1     -10.093   9.940  66.991  1.00  0.00    -0.275 A  
HETATM   16  H   UNL     1     -10.996  12.583  63.855  1.00  0.00     0.000 HD 
HETATM   17  C   UNL     1     -10.885  14.127  65.305  1.00  0.00    -0.349 A  
HETATM   18  C   UNL     1     -10.695  14.106  66.677  1.00  0.00    -0.289 A  
BRANCH  18  19
HETATM   19  C   UNL     1     -10.772  15.302  67.617  1.00  0.00    -0.282 C  
HETATM   20  C   UNL     1      -9.743  15.255  68.766  1.00  0.00    -0.212 C  
HETATM   21  C   UNL     1      -8.312  15.532  68.279  1.00  0.00    -0.147 C  
HETATM   22  N   UNL     1      -8.159  16.773  67.513  1.00  0.00    -0.170 NA 
HETATM   23  C   UNL     1      -9.157  16.871  66.439  1.00  0.00    -0.283 C  
HETATM   24  C   UNL     1      -8.137  17.951  68.373  1.00  0.00    -0.299 C  
HETATM   25  C   UNL     1     -10.599  16.655  66.906  1.00  0.00    -0.229 C  
ENDBRANCH  18  19
ENDBRANCH   8   9
ENDBRANCH   7   8
ENDBRANCH   4   7
ENDBRANCH   2   4
TORSDOF 5
ENDMDL
MODEL      136
REMARK 921   NORMALIZED FREE ENERGY PREDICTED BY IDOCK:   -4.42 KCAL/MOL
REMARK 922        TOTAL FREE ENERGY PREDICTED BY IDOCK:   -6.06 KCAL/MOL
REMARK 923 INTER-LIGAND FREE ENERGY PREDICTED BY IDOCK:   -5.81 KCAL/MOL
REMARK 924 INTRA-LIGAND FREE ENERGY PREDICTED BY IDOCK:   -0.25 KCAL/MOL
REMARK 927      BINDING AFFINITY PREDICTED BY RF-SCORE:    0.00 PKD
ROOT
HETATM    1  C   UNL     1     -10.241  19.578  68.100  1.00  0.00    -0.444 C  
HETATM    2  N   UNL     1     -10.737  19.147  66.790  1.00  0.00    -0.426 N  
HETATM    3  H   UNL     1     -11.444  19.685  66.289  1.00  0.00     0.000 HD 
ENDROOT
BRANCH   2   4
HETATM    4  S   UNL     1     -10.093  17.727  66.142  1.00  0.00    -0.262 S  
HETATM    5  O   UNL     1      -8.669  17.929  65.993  1.00  0.00    -0.492 OA 
HETATM    6  O   UNL     1     -10.934  17.390  65.018  1.00  0.00    -0.703 OA 
BRANCH   4   7
HETATM    7  C   UNL     1     -10.396  16.567  67.462  1.00  0.00    -0.294 C  
BRANCH   7   8
HETATM    8  C   UNL     1      -9.416  15.404  67.411  1.00  0.00    -0.207 C  
BRANCH   8   9
HETATM    9  C   UNL     1     -10.048  14.060  67.714  1.00  0.00    -0.240 A  
HETATM   10  C   UNL     1      -9.217  12.929  67.864  1.00  0.00    -0.208 A  
HETATM   11  C   UNL     1      -9.776  11.650  68.095  1.00  0.00    -0.189 A  
HETATM   12  C   UNL     1     -11.164  11.563  68.201  1.00  0.00    -0.271 A  
HETATM   13  C   UNL     1     -12.017  12.654  68.048  1.00  0.00    -0.300 A  
HETATM   14  N   UNL     1     -11.475  10.256  68.460  1.00  0.00    -0.509 NA 
HETATM   15  C   UNL     1     -11.437  13.896  67.785  1.00  0.00    -0.354 A  
HETATM   16  H   UNL     1     -12.420   9.892  68.584  1.00  0.00     0.000 HD 
HETATM   17  C   UNL     1     -10.335   9.509  68.526  1.00  0.00    -0.207 A  
HETATM   18  C   UNL     1      -9.246  10.315  68.232  1.00  0.00    -0.139 A  
BRANCH  18  19
HETATM   19  C   UNL     1      -7.798   9.863  68.100  1.00  0.00    -0.085 C  
HETATM   20  C   UNL     1      -6.776  10.894  68.624  1.00  0.00    -0.059 C  
HETATM   21  C   UNL     1      -6.772  10.983  70.159  1.00  0.00    -0.025 C  
HETATM   22  N   UNL     1      -6.592   9.697  70.842  1.00  0.00    -0.202 NA 
HETATM   23  C   UNL     1      -7.519   8.679  70.331  1.00  0.00    -0.069 C  
HETATM   24  C   UNL     1      -5.202   9.256  70.825  1.00  0.00    -0.029 C  
HETATM   25  C   UNL     1      -7.504   8.529  68.808  1.00  0.00    -0.092 C  
ENDBRANCH  18  19
ENDBRANCH   8   9
ENDBRANCH   7   8
ENDBRANCH   4   7
ENDBRANCH   2   4
TORSDOF 5
ENDMDL
MODEL      137
REMARK 921   NORMALIZED FREE ENERGY PREDICTED BY IDOCK:   -4.40 KCAL/MOL
REMARK 922        TOTAL FREE ENERGY PREDICTED BY IDOCK:   -6.03 KCAL/MOL
REMARK 923 INTER-LIGAND FREE ENERGY PREDICTED BY IDOCK:   -5.73 KCAL/MOL
REMARK 924 INTRA-LIGAND FREE ENERGY PREDICTED BY IDOCK:   -0.31 KCAL/MOL
REMARK 927      BINDING AFFINITY PREDICTED BY RF-SCORE:    0.00 PKD
ROOT
HETATM    1  C   UNL     1     -12.704  11.909  63.340  1.00  0.00    -0.366 C  
HETATM    2  N   UNL     1     -11.771  13.018  63.559  1.00  0.00    -0.652 N  
HETATM    3  H   UNL     1     -11.095  13.289  62.844  1.00  0.00     0.000 HD 
ENDROOT
BRANCH   2   4
HETATM    4  S   UNL     1     -11.857  13.829  65.037  1.00  0.00    -0.388 S  
HETATM    5  O   UNL     1     -13.241  14.192  65.248  1.00  0.00    -0.760 OA 
HETATM    6  O   UNL     1     -10.809  14.821  65.004  1.00  0.00    -0.372 OA 
BRANCH   4   7
HETATM    7  C   UNL     1     -11.398  12.537  66.176  1.00  0.00    -0.343 C  
BRANCH   7   8
HETATM    8  C   UNL     1     -10.259  11.692  65.624  1.00  0.00    -0.284 C  
BRANCH   8   9
HETATM    9  C   UNL     1      -8.926  11.948  66.299  1.00  0.00    -0.157 A  
HETATM   10  C   UNL     1      -8.741  13.146  67.021  1.00  0.00    -0.193 A  
HETATM   11  C   UNL     1      -7.494  13.443  67.618  1.00  0.00    -0.182 A  
HETATM   12  C   UNL     1      -6.479  12.495  67.494  1.00  0.00    -0.153 A  
HETATM   13  C   UNL     1      -6.619  11.306  66.780  1.00  0.00    -0.140 A  
HETATM   14  N   UNL     1      -5.388  12.968  68.173  1.00  0.00    -0.083 NA 
HETATM   15  C   UNL     1      -7.851  11.060  66.172  1.00  0.00    -0.117 A  
HETATM   16  H   UNL     1      -4.493  12.486  68.251  1.00  0.00     0.000 HD 
HETATM   17  C   UNL     1      -5.676  14.181  68.728  1.00  0.00    -0.082 A  
HETATM   18  C   UNL     1      -6.954  14.562  68.352  1.00  0.00    -0.107 A  
BRANCH  18  19
HETATM   19  C   UNL     1      -7.631  15.888  68.671  1.00  0.00    -0.161 C  
HETATM   20  C   UNL     1      -6.698  16.913  69.348  1.00  0.00    -0.220 C  
HETATM   21  C   UNL     1      -5.665  17.497  68.371  1.00  0.00    -0.152 C  
HETATM   22  N   UNL     1      -6.239  18.066  67.146  1.00  0.00    -0.153 NA 
HETATM   23  C   UNL     1      -7.171  17.130  66.502  1.00  0.00    -0.273 C  
HETATM   24  C   UNL     1      -6.825  19.381  67.374  1.00  0.00    -0.205 C  
HETATM   25  C   UNL     1      -8.246  16.576  67.440  1.00  0.00    -0.183 C  
ENDBRANCH  18  19
ENDBRANCH   8   9
ENDBRANCH   7   8
ENDBRANCH   4   7
ENDBRANCH   2   4
TORSDOF 5
ENDMDL
MODEL      138
REMARK 921   NORMALIZED FREE ENERGY PREDICTED BY IDOCK:   -4.40 KCAL/MOL
REMARK 922        TOTAL FREE ENERGY PREDICTED BY IDOCK:   -6.02 KCAL/MOL
REMARK 923 INTER-LIGAND FREE ENERGY PREDICTED BY IDOCK:   -5.69 KCAL/MOL
REMARK 924 INTRA-LIGAND FREE ENERGY PREDICTED BY IDOCK:   -0.33 KCAL/MOL
REMARK 927      BINDING AFFINITY PREDICTED BY RF-SCORE:    0.00 PKD
ROOT
HETATM    1  C   UNL     1      -9.991  14.654  68.683  1.00  0.00    -0.234 C  
HETATM    2  N   UNL     1     -10.887  13.506  68.842  1.00  0.00    -0.294 N  
HETATM    3  H   UNL     1     -11.415  13.362  69.703  1.00  0.00     0.000 HD 
ENDROOT
BRANCH   2   4
HETATM    4  S   UNL     1     -11.013  12.430  67.547  1.00  0.00    -0.266 S  
HETATM    5  O   UNL     1      -9.725  12.397  66.889  1.00  0.00    -0.206 OA 
HETATM    6  O   UNL     1     -12.216  12.802  66.841  1.00  0.00    -0.454 OA 
BRANCH   4   7
HETATM    7  C   UNL     1     -11.290  10.887  68.394  1.00  0.00    -0.304 C  
BRANCH   7   8
HETATM    8  C   UNL     1     -10.108  10.524  69.282  1.00  0.00    -0.244 C  
BRANCH   8   9
HETATM    9  C   UNL     1     -10.481   9.661  70.472  1.00  0.00    -0.367 A  
HETATM   10  C   UNL     1      -9.495   8.845  71.064  1.00  0.00    -0.318 A  
HETATM   11  C   UNL     1      -9.820   7.987  72.141  1.00  0.00    -0.286 A  
HETATM   12  C   UNL     1     -11.133   8.011  72.610  1.00  0.00    -0.387 A  
HETATM   13  C   UNL     1     -12.137   8.795  72.045  1.00  0.00    -0.447 A  
HETATM   14  N   UNL     1     -11.209   7.144  73.665  1.00  0.00    -0.504 NA 
HETATM   15  C   UNL     1     -11.793   9.603  70.960  1.00  0.00    -0.428 A  
HETATM   16  H   UNL     1     -12.052   6.952  74.206  1.00  0.00     0.000 HD 
HETATM   17  C   UNL     1      -9.990   6.573  73.888  1.00  0.00    -0.277 A  
HETATM   18  C   UNL     1      -9.100   7.007  72.918  1.00  0.00    -0.157 A  
BRANCH  18  19
HETATM   19  C   UNL     1      -7.662   6.540  72.738  1.00  0.00    -0.102 C  
HETATM   20  C   UNL     1      -7.302   5.302  73.585  1.00  0.00    -0.091 C  
HETATM   21  C   UNL     1      -7.951   4.017  73.045  1.00  0.00    -0.085 C  
HETATM   22  N   UNL     1      -7.691   3.753  71.626  1.00  0.00    -0.060 NA 
HETATM   23  C   UNL     1      -7.979   4.932  70.796  1.00  0.00    -0.083 C  
HETATM   24  C   UNL     1      -6.353   3.219  71.402  1.00  0.00    -0.018 C  
HETATM   25  C   UNL     1      -7.299   6.216  71.279  1.00  0.00    -0.081 C  
ENDBRANCH  18  19
ENDBRANCH   8   9
ENDBRANCH   7   8
ENDBRANCH   4   7
ENDBRANCH   2   4
TORSDOF 5
ENDMDL
MODEL      139
REMARK 921   NORMALIZED FREE ENERGY PREDICTED BY IDOCK:   -4.38 KCAL/MOL
REMARK 922        TOTAL FREE ENERGY PREDICTED BY IDOCK:   -6.00 KCAL/MOL
REMARK 923 INTER-LIGAND FREE ENERGY PREDICTED BY IDOCK:   -5.99 KCAL/MOL
REMARK 924 INTRA-LIGAND FREE ENERGY PREDICTED BY IDOCK:   -0.01 KCAL/MOL
REMARK 927      BINDING AFFINITY PREDICTED BY RF-SCORE:    0.00 PKD
ROOT
HETATM    1  C   UNL     1      -7.743   6.942  63.242  1.00  0.00    -0.110 C  
HETATM    2  N   UNL     1      -8.336   8.179  63.757  1.00  0.00    -0.381 N  
HETATM    3  H   UNL     1      -9.298   8.202  64.099  1.00  0.00     0.000 HD 
ENDROOT
BRANCH   2   4
HETATM    4  S   UNL     1      -7.370   9.563  63.763  1.00  0.00    -0.118 S  
HETATM    5  O   UNL     1      -7.384  10.103  62.422  1.00  0.00    -0.122 OA 
HETATM    6  O   UNL     1      -6.139   9.182  64.416  1.00  0.00    -0.069 OA 
BRANCH   4   7
HETATM    7  C   UNL     1      -8.294  10.634  64.847  1.00  0.00    -0.085 C  
BRANCH   7   8
HETATM    8  C   UNL     1      -9.740  10.177  64.976  1.00  0.00    -0.384 C  
BRANCH   8   9
HETATM    9  C   UNL     1     -10.378  10.534  66.304  1.00  0.00    -0.276 A  
HETATM   10  C   UNL     1     -10.206   9.667  67.404  1.00  0.00    -0.283 A  
HETATM   11  C   UNL     1     -10.830   9.942  68.643  1.00  0.00    -0.244 A  
HETATM   12  C   UNL     1     -11.583  11.111  68.739  1.00  0.00    -0.322 A  
HETATM   13  C   UNL     1     -11.785  11.987  67.673  1.00  0.00    -0.365 A  
HETATM   14  N   UNL     1     -12.056  11.192  70.021  1.00  0.00    -0.338 NA 
HETATM   15  C   UNL     1     -11.185  11.668  66.454  1.00  0.00    -0.349 A  
HETATM   16  H   UNL     1     -12.643  11.944  70.383  1.00  0.00     0.000 HD 
HETATM   17  C   UNL     1     -11.625  10.119  70.745  1.00  0.00    -0.357 A  
HETATM   18  C   UNL     1     -10.916   9.265  69.914  1.00  0.00    -0.231 A  
BRANCH  18  19
HETATM   19  C   UNL     1     -10.346   7.905  70.293  1.00  0.00    -0.212 C  
HETATM   20  C   UNL     1      -9.347   7.957  71.468  1.00  0.00    -0.179 C  
HETATM   21  C   UNL     1     -10.043   8.214  72.814  1.00  0.00    -0.297 C  
HETATM   22  N   UNL     1     -11.138   7.287  73.120  1.00  0.00    -0.323 NA 
HETATM   23  C   UNL     1     -12.082   7.178  72.000  1.00  0.00    -0.292 C  
HETATM   24  C   UNL     1     -10.650   5.991  73.575  1.00  0.00    -0.268 C  
HETATM   25  C   UNL     1     -11.421   6.866  70.655  1.00  0.00    -0.383 C  
ENDBRANCH  18  19
ENDBRANCH   8   9
ENDBRANCH   7   8
ENDBRANCH   4   7
ENDBRANCH   2   4
TORSDOF 5
ENDMDL
MODEL      140
REMARK 921   NORMALIZED FREE ENERGY PREDICTED BY IDOCK:   -4.38 KCAL/MOL
REMARK 922        TOTAL FREE ENERGY PREDICTED BY IDOCK:   -6.00 KCAL/MOL
REMARK 923 INTER-LIGAND FREE ENERGY PREDICTED BY IDOCK:   -5.60 KCAL/MOL
REMARK 924 INTRA-LIGAND FREE ENERGY PREDICTED BY IDOCK:   -0.40 KCAL/MOL
REMARK 927      BINDING AFFINITY PREDICTED BY RF-SCORE:    0.00 PKD
ROOT
HETATM    1  C   UNL     1     -10.618  11.847  63.242  1.00  0.00    -0.365 C  
HETATM    2  N   UNL     1     -10.328  10.510  63.768  1.00  0.00    -0.436 N  
HETATM    3  H   UNL     1     -10.555   9.671  63.234  1.00  0.00     0.000 HD 
ENDROOT
BRANCH   2   4
HETATM    4  S   UNL     1      -9.603  10.411  65.289  1.00  0.00    -0.284 S  
HETATM    5  O   UNL     1      -8.190  10.663  65.110  1.00  0.00    -0.159 OA 
HETATM    6  O   UNL     1     -10.086   9.184  65.878  1.00  0.00    -0.273 OA 
BRANCH   4   7
HETATM    7  C   UNL     1     -10.353  11.793  66.129  1.00  0.00    -0.230 C  
BRANCH   7   8
HETATM    8  C   UNL     1      -9.682  12.056  67.469  1.00  0.00    -0.188 C  
BRANCH   8   9
HETATM    9  C   UNL     1     -10.417  11.450  68.649  1.00  0.00    -0.224 A  
HETATM   10  C   UNL     1      -9.863  10.326  69.297  1.00  0.00    -0.244 A  
HETATM   11  C   UNL     1     -10.547   9.702  70.367  1.00  0.00    -0.354 A  
HETATM   12  C   UNL     1     -11.759  10.262  70.771  1.00  0.00    -0.360 A  
HETATM   13  C   UNL     1     -12.342  11.364  70.149  1.00  0.00    -0.344 A  
HETATM   14  N   UNL     1     -12.218   9.529  71.832  1.00  0.00    -0.374 NA 
HETATM   15  C   UNL     1     -11.660  11.935  69.073  1.00  0.00    -0.376 A  
HETATM   16  H   UNL     1     -13.088   9.705  72.333  1.00  0.00     0.000 HD 
HETATM   17  C   UNL     1     -11.338   8.526  72.120  1.00  0.00    -0.372 A  
HETATM   18  C   UNL     1     -10.311   8.540  71.189  1.00  0.00    -0.273 A  
BRANCH  18  19
HETATM   19  C   UNL     1      -9.173   7.533  71.086  1.00  0.00    -0.151 C  
HETATM   20  C   UNL     1      -7.840   8.151  70.614  1.00  0.00    -0.091 C  
HETATM   21  C   UNL     1      -7.182   9.018  71.700  1.00  0.00     0.036 C  
HETATM   22  N   UNL     1      -7.000   8.344  72.990  1.00  0.00    -0.207 NA 
HETATM   23  C   UNL     1      -8.242   7.703  73.444  1.00  0.00    -0.151 C  
HETATM   24  C   UNL     1      -5.865   7.429  72.977  1.00  0.00    -0.044 C  
HETATM   25  C   UNL     1      -8.890   6.789  72.401  1.00  0.00    -0.136 C  
ENDBRANCH  18  19
ENDBRANCH   8   9
ENDBRANCH   7   8
ENDBRANCH   4   7
ENDBRANCH   2   4
TORSDOF 5
ENDMDL
MODEL      141
REMARK 921   NORMALIZED FREE ENERGY PREDICTED BY IDOCK:   -4.37 KCAL/MOL
REMARK 922        TOTAL FREE ENERGY PREDICTED BY IDOCK:   -5.99 KCAL/MOL
REMARK 923 INTER-LIGAND FREE ENERGY PREDICTED BY IDOCK:   -5.92 KCAL/MOL
REMARK 924 INTRA-LIGAND FREE ENERGY PREDICTED BY IDOCK:   -0.07 KCAL/MOL
REMARK 927      BINDING AFFINITY PREDICTED BY RF-SCORE:    0.00 PKD
ROOT
HETATM    1  C   UNL     1     -11.480  15.928  69.076  1.00  0.00    -0.380 C  
HETATM    2  N   UNL     1     -10.629  17.035  69.521  1.00  0.00    -0.320 N  
HETATM    3  H   UNL     1     -10.438  17.191  70.511  1.00  0.00     0.000 HD 
ENDROOT
BRANCH   2   4
HETATM    4  S   UNL     1      -9.977  18.042  68.333  1.00  0.00    -0.395 S  
HETATM    5  O   UNL     1     -10.307  19.403  68.694  1.00  0.00    -0.391 OA 
HETATM    6  O   UNL     1     -10.380  17.473  67.068  1.00  0.00    -0.319 OA 
BRANCH   4   7
HETATM    7  C   UNL     1      -8.230  17.771  68.560  1.00  0.00    -0.296 C  
BRANCH   7   8
HETATM    8  C   UNL     1      -7.645  16.948  67.421  1.00  0.00    -0.185 C  
BRANCH   8   9
HETATM    9  C   UNL     1      -7.545  15.467  67.727  1.00  0.00    -0.167 A  
HETATM   10  C   UNL     1      -8.611  14.617  67.362  1.00  0.00    -0.212 A  
HETATM   11  C   UNL     1      -8.575  13.239  67.680  1.00  0.00    -0.196 A  
HETATM   12  C   UNL     1      -7.438  12.757  68.328  1.00  0.00    -0.124 A  
HETATM   13  C   UNL     1      -6.371  13.566  68.714  1.00  0.00    -0.093 A  
HETATM   14  N   UNL     1      -7.603  11.409  68.498  1.00  0.00    -0.121 NA 
HETATM   15  C   UNL     1      -6.453  14.927  68.419  1.00  0.00    -0.106 A  
HETATM   16  H   UNL     1      -6.930  10.789  68.949  1.00  0.00     0.000 HD 
HETATM   17  C   UNL     1      -8.801  11.016  67.976  1.00  0.00    -0.138 A  
HETATM   18  C   UNL     1      -9.484  12.131  67.518  1.00  0.00    -0.180 A  
BRANCH  18  19
HETATM   19  C   UNL     1     -10.898  12.153  66.952  1.00  0.00    -0.291 C  
HETATM   20  C   UNL     1     -11.287  13.501  66.309  1.00  0.00    -0.327 C  
HETATM   21  C   UNL     1     -10.578  13.733  64.965  1.00  0.00    -0.389 C  
HETATM   22  N   UNL     1     -10.739  12.644  63.995  1.00  0.00    -0.398 NA 
HETATM   23  C   UNL     1     -10.421  11.339  64.592  1.00  0.00    -0.325 C  
HETATM   24  C   UNL     1     -12.048  12.668  63.354  1.00  0.00    -0.525 C  
HETATM   25  C   UNL     1     -11.157  11.057  65.904  1.00  0.00    -0.038 C  
ENDBRANCH  18  19
ENDBRANCH   8   9
ENDBRANCH   7   8
ENDBRANCH   4   7
ENDBRANCH   2   4
TORSDOF 5
ENDMDL
MODEL      142
REMARK 921   NORMALIZED FREE ENERGY PREDICTED BY IDOCK:   -4.35 KCAL/MOL
REMARK 922        TOTAL FREE ENERGY PREDICTED BY IDOCK:   -5.96 KCAL/MOL
REMARK 923 INTER-LIGAND FREE ENERGY PREDICTED BY IDOCK:   -5.68 KCAL/MOL
REMARK 924 INTRA-LIGAND FREE ENERGY PREDICTED BY IDOCK:   -0.28 KCAL/MOL
REMARK 927      BINDING AFFINITY PREDICTED BY RF-SCORE:    0.00 PKD
ROOT
HETATM    1  C   UNL     1     -10.258   6.892  68.739  1.00  0.00    -0.174 C  
HETATM    2  N   UNL     1      -9.443   7.307  69.885  1.00  0.00    -0.157 N  
HETATM    3  H   UNL     1      -8.856   6.639  70.385  1.00  0.00     0.000 HD 
ENDROOT
BRANCH   2   4
HETATM    4  S   UNL     1      -9.514   8.930  70.343  1.00  0.00    -0.212 S  
HETATM    5  O   UNL     1      -8.155   9.375  70.560  1.00  0.00    -0.161 OA 
HETATM    6  O   UNL     1     -10.511   9.003  71.385  1.00  0.00    -0.269 OA 
BRANCH   4   7
HETATM    7  C   UNL     1     -10.161   9.687  68.866  1.00  0.00    -0.201 C  
BRANCH   7   8
HETATM    8  C   UNL     1      -9.321  10.884  68.444  1.00  0.00    -0.172 C  
BRANCH   8   9
HETATM    9  C   UNL     1     -10.076  12.198  68.464  1.00  0.00    -0.192 A  
HETATM   10  C   UNL     1      -9.353  13.407  68.395  1.00  0.00    -0.165 A  
HETATM   11  C   UNL     1     -10.021  14.652  68.465  1.00  0.00    -0.235 A  
HETATM   12  C   UNL     1     -11.411  14.632  68.566  1.00  0.00    -0.302 A  
HETATM   13  C   UNL     1     -12.160  13.459  68.647  1.00  0.00    -0.281 A  
HETATM   14  N   UNL     1     -11.842  15.931  68.579  1.00  0.00    -0.444 NA 
HETATM   15  C   UNL     1     -11.468  12.248  68.612  1.00  0.00    -0.355 A  
HETATM   16  H   UNL     1     -12.816  16.225  68.649  1.00  0.00     0.000 HD 
HETATM   17  C   UNL     1     -10.775  16.776  68.485  1.00  0.00    -0.358 A  
HETATM   18  C   UNL     1      -9.605  16.033  68.485  1.00  0.00    -0.215 A  
BRANCH  18  19
HETATM   19  C   UNL     1      -8.185  16.585  68.493  1.00  0.00    -0.212 C  
HETATM   20  C   UNL     1      -7.369  16.213  67.238  1.00  0.00    -0.226 C  
HETATM   21  C   UNL     1      -7.830  16.986  65.991  1.00  0.00    -0.132 C  
HETATM   22  N   UNL     1      -7.867  18.443  66.158  1.00  0.00    -0.427 NA 
HETATM   23  C   UNL     1      -8.598  18.829  67.372  1.00  0.00    -0.273 C  
HETATM   24  C   UNL     1      -6.538  19.038  66.085  1.00  0.00    -0.215 C  
HETATM   25  C   UNL     1      -8.122  18.115  68.640  1.00  0.00    -0.301 C  
ENDBRANCH  18  19
ENDBRANCH   8   9
ENDBRANCH   7   8
ENDBRANCH   4   7
ENDBRANCH   2   4
TORSDOF 5
ENDMDL
MODEL      143
REMARK 921   NORMALIZED FREE ENERGY PREDICTED BY IDOCK:   -4.34 KCAL/MOL
REMARK 922        TOTAL FREE ENERGY PREDICTED BY IDOCK:   -5.95 KCAL/MOL
REMARK 923 INTER-LIGAND FREE ENERGY PREDICTED BY IDOCK:   -5.75 KCAL/MOL
REMARK 924 INTRA-LIGAND FREE ENERGY PREDICTED BY IDOCK:   -0.20 KCAL/MOL
REMARK 927      BINDING AFFINITY PREDICTED BY RF-SCORE:    0.00 PKD
ROOT
HETATM    1  C   UNL     1      -7.585  18.890  66.025  1.00  0.00    -0.231 C  
HETATM    2  N   UNL     1      -8.774  19.639  66.440  1.00  0.00    -0.357 N  
HETATM    3  H   UNL     1      -8.732  20.643  66.616  1.00  0.00     0.000 HD 
ENDROOT
BRANCH   2   4
HETATM    4  S   UNL     1     -10.216  18.779  66.613  1.00  0.00    -0.433 S  
HETATM    5  O   UNL     1     -10.327  17.891  65.476  1.00  0.00    -0.616 OA 
HETATM    6  O   UNL     1     -11.230  19.763  66.909  1.00  0.00    -0.264 OA 
BRANCH   4   7
HETATM    7  C   UNL     1      -9.885  17.826  68.083  1.00  0.00    -0.326 C  
BRANCH   7   8
HETATM    8  C   UNL     1     -10.472  16.426  67.979  1.00  0.00    -0.303 C  
BRANCH   8   9
HETATM    9  C   UNL     1      -9.442  15.352  67.688  1.00  0.00    -0.205 A  
HETATM   10  C   UNL     1      -9.877  14.030  67.456  1.00  0.00    -0.236 A  
HETATM   11  C   UNL     1      -8.941  12.993  67.235  1.00  0.00    -0.212 A  
HETATM   12  C   UNL     1      -7.589  13.336  67.220  1.00  0.00    -0.067 A  
HETATM   13  C   UNL     1      -7.121  14.628  67.456  1.00  0.00    -0.203 A  
HETATM   14  N   UNL     1      -6.878  12.198  66.953  1.00  0.00    -0.357 NA 
HETATM   15  C   UNL     1      -8.068  15.622  67.707  1.00  0.00    -0.158 A  
HETATM   16  H   UNL     1      -5.862  12.145  66.885  1.00  0.00     0.000 HD 
HETATM   17  C   UNL     1      -7.729  11.144  66.792  1.00  0.00    -0.153 A  
HETATM   18  C   UNL     1      -9.027  11.567  67.031  1.00  0.00    -0.174 A  
BRANCH  18  19
HETATM   19  C   UNL     1     -10.272  10.690  67.054  1.00  0.00    -0.267 C  
HETATM   20  C   UNL     1     -10.224   9.518  66.051  1.00  0.00    -0.242 C  
HETATM   21  C   UNL     1      -9.249   8.415  66.490  1.00  0.00    -0.189 C  
HETATM   22  N   UNL     1      -9.472   7.910  67.849  1.00  0.00    -0.143 NA 
HETATM   23  C   UNL     1      -9.570   9.006  68.823  1.00  0.00    -0.152 C  
HETATM   24  C   UNL     1     -10.602   6.992  67.916  1.00  0.00    -0.218 C  
HETATM   25  C   UNL     1     -10.577  10.093  68.439  1.00  0.00    -0.249 C  
ENDBRANCH  18  19
ENDBRANCH   8   9
ENDBRANCH   7   8
ENDBRANCH   4   7
ENDBRANCH   2   4
TORSDOF 5
ENDMDL
MODEL      144
REMARK 921   NORMALIZED FREE ENERGY PREDICTED BY IDOCK:   -4.32 KCAL/MOL
REMARK 922        TOTAL FREE ENERGY PREDICTED BY IDOCK:   -5.93 KCAL/MOL
REMARK 923 INTER-LIGAND FREE ENERGY PREDICTED BY IDOCK:   -5.44 KCAL/MOL
REMARK 924 INTRA-LIGAND FREE ENERGY PREDICTED BY IDOCK:   -0.48 KCAL/MOL
REMARK 927      BINDING AFFINITY PREDICTED BY RF-SCORE:    0.00 PKD
ROOT
HETATM    1  C   UNL     1      -6.669   7.810  66.825  1.00  0.00    -0.067 C  
HETATM    2  N   UNL     1      -7.562   8.931  67.130  1.00  0.00    -0.091 N  
HETATM    3  H   UNL     1      -7.862   9.123  68.086  1.00  0.00     0.000 HD 
ENDROOT
BRANCH   2   4
HETATM    4  S   UNL     1      -8.076   9.892  65.840  1.00  0.00    -0.125 S  
HETATM    5  O   UNL     1      -8.972   9.090  65.037  1.00  0.00    -0.202 OA 
HETATM    6  O   UNL     1      -6.879  10.480  65.286  1.00  0.00    -0.123 OA 
BRANCH   4   7
HETATM    7  C   UNL     1      -9.004  11.155  66.689  1.00  0.00    -0.170 C  
BRANCH   7   8
HETATM    8  C   UNL     1      -8.683  11.173  68.176  1.00  0.00    -0.144 C  
BRANCH   8   9
HETATM    9  C   UNL     1      -9.865  10.827  69.060  1.00  0.00    -0.208 A  
HETATM   10  C   UNL     1      -9.684   9.912  70.119  1.00  0.00    -0.255 A  
HETATM   11  C   UNL     1     -10.776   9.525  70.931  1.00  0.00    -0.403 A  
HETATM   12  C   UNL     1     -12.015  10.107  70.665  1.00  0.00    -0.332 A  
HETATM   13  C   UNL     1     -12.235  11.006  69.622  1.00  0.00    -0.370 A  
HETATM   14  N   UNL     1     -12.904   9.622  71.585  1.00  0.00    -0.373 NA 
HETATM   15  C   UNL     1     -11.145  11.339  68.817  1.00  0.00    -0.288 A  
HETATM   16  H   UNL     1     -13.892   9.871  71.632  1.00  0.00     0.000 HD 
HETATM   17  C   UNL     1     -12.274   8.757  72.430  1.00  0.00    -0.326 A  
HETATM   18  C   UNL     1     -10.958   8.600  72.023  1.00  0.00    -0.432 A  
BRANCH  18  19
HETATM   19  C   UNL     1      -9.933   7.650  72.628  1.00  0.00    -0.279 C  
HETATM   20  C   UNL     1     -10.552   6.571  73.541  1.00  0.00    -0.312 C  
HETATM   21  C   UNL     1     -11.309   5.496  72.745  1.00  0.00    -0.303 C  
HETATM   22  N   UNL     1     -10.527   4.867  71.675  1.00  0.00    -0.167 NA 
HETATM   23  C   UNL     1      -9.885   5.869  70.814  1.00  0.00    -0.183 C  
HETATM   24  C   UNL     1      -9.586   3.879  72.190  1.00  0.00    -0.147 C  
HETATM   25  C   UNL     1      -9.076   6.921  71.578  1.00  0.00    -0.144 C  
ENDBRANCH  18  19
ENDBRANCH   8   9
ENDBRANCH   7   8
ENDBRANCH   4   7
ENDBRANCH   2   4
TORSDOF 5
ENDMDL
MODEL      145
REMARK 921   NORMALIZED FREE ENERGY PREDICTED BY IDOCK:   -4.29 KCAL/MOL
REMARK 922        TOTAL FREE ENERGY PREDICTED BY IDOCK:   -5.89 KCAL/MOL
REMARK 923 INTER-LIGAND FREE ENERGY PREDICTED BY IDOCK:   -5.67 KCAL/MOL
REMARK 924 INTRA-LIGAND FREE ENERGY PREDICTED BY IDOCK:   -0.22 KCAL/MOL
REMARK 927      BINDING AFFINITY PREDICTED BY RF-SCORE:    0.00 PKD
ROOT
HETATM    1  C   UNL     1     -12.205  16.185  72.711  1.00  0.00    -0.531 C  
HETATM    2  N   UNL     1     -11.454  15.980  71.469  1.00  0.00    -0.418 N  
HETATM    3  H   UNL     1     -10.479  16.270  71.386  1.00  0.00     0.000 HD 
ENDROOT
BRANCH   2   4
HETATM    4  S   UNL     1     -12.264  15.248  70.181  1.00  0.00    -0.363 S  
HETATM    5  O   UNL     1     -12.112  16.111  69.031  1.00  0.00    -0.228 OA 
HETATM    6  O   UNL     1     -13.565  14.882  70.689  1.00  0.00    -0.250 OA 
BRANCH   4   7
HETATM    7  C   UNL     1     -11.295  13.769  69.950  1.00  0.00    -0.083 C  
BRANCH   7   8
HETATM    8  C   UNL     1     -12.129  12.651  69.341  1.00  0.00    -0.236 C  
BRANCH   8   9
HETATM    9  C   UNL     1     -11.624  11.261  69.676  1.00  0.00    -0.401 A  
HETATM   10  C   UNL     1     -11.139  10.439  68.638  1.00  0.00    -0.313 A  
HETATM   11  C   UNL     1     -10.710   9.118  68.906  1.00  0.00    -0.167 A  
HETATM   12  C   UNL     1     -10.754   8.682  70.230  1.00  0.00    -0.227 A  
HETATM   13  C   UNL     1     -11.237   9.461  71.280  1.00  0.00    -0.437 A  
HETATM   14  N   UNL     1     -10.262   7.405  70.260  1.00  0.00    -0.198 NA 
HETATM   15  C   UNL     1     -11.686  10.747  70.977  1.00  0.00    -0.242 A  
HETATM   16  H   UNL     1     -10.178   6.830  71.097  1.00  0.00     0.000 HD 
HETATM   17  C   UNL     1      -9.903   7.015  69.002  1.00  0.00    -0.154 A  
HETATM   18  C   UNL     1     -10.230   8.019  68.104  1.00  0.00    -0.251 A  
BRANCH  18  19
HETATM   19  C   UNL     1     -10.089   7.955  66.589  1.00  0.00    -0.310 C  
HETATM   20  C   UNL     1      -9.675   9.296  65.947  1.00  0.00    -0.355 C  
HETATM   21  C   UNL     1      -8.204   9.646  66.226  1.00  0.00    -0.116 C  
HETATM   22  N   UNL     1      -7.249   8.594  65.863  1.00  0.00    -0.076 NA 
HETATM   23  C   UNL     1      -7.641   7.292  66.419  1.00  0.00    -0.092 C  
HETATM   24  C   UNL     1      -7.006   8.544  64.426  1.00  0.00    -0.081 C  
HETATM   25  C   UNL     1      -9.086   6.891  66.110  1.00  0.00    -0.144 C  
ENDBRANCH  18  19
ENDBRANCH   8   9
ENDBRANCH   7   8
ENDBRANCH   4   7
ENDBRANCH   2   4
TORSDOF 5
ENDMDL
MODEL      146
REMARK 921   NORMALIZED FREE ENERGY PREDICTED BY IDOCK:   -4.29 KCAL/MOL
REMARK 922        TOTAL FREE ENERGY PREDICTED BY IDOCK:   -5.88 KCAL/MOL
REMARK 923 INTER-LIGAND FREE ENERGY PREDICTED BY IDOCK:   -5.83 KCAL/MOL
REMARK 924 INTRA-LIGAND FREE ENERGY PREDICTED BY IDOCK:   -0.05 KCAL/MOL
REMARK 927      BINDING AFFINITY PREDICTED BY RF-SCORE:    0.00 PKD
ROOT
HETATM    1  C   UNL     1     -11.027  15.694  69.374  1.00  0.00    -0.283 C  
HETATM    2  N   UNL     1     -11.822  15.518  68.156  1.00  0.00    -0.419 N  
HETATM    3  H   UNL     1     -12.374  16.284  67.769  1.00  0.00     0.000 HD 
ENDROOT
BRANCH   2   4
HETATM    4  S   UNL     1     -11.789  14.001  67.416  1.00  0.00    -0.409 S  
HETATM    5  O   UNL     1     -12.756  14.025  66.341  1.00  0.00    -0.369 OA 
HETATM    6  O   UNL     1     -11.871  13.037  68.489  1.00  0.00    -0.313 OA 
BRANCH   4   7
HETATM    7  C   UNL     1     -10.141  13.974  66.737  1.00  0.00    -0.264 C  
BRANCH   7   8
HETATM    8  C   UNL     1      -9.258  12.971  67.465  1.00  0.00    -0.195 C  
BRANCH   8   9
HETATM    9  C   UNL     1      -9.466  11.537  67.018  1.00  0.00    -0.193 A  
HETATM   10  C   UNL     1      -9.439  10.507  67.982  1.00  0.00    -0.157 A  
HETATM   11  C   UNL     1      -9.575   9.154  67.594  1.00  0.00    -0.181 A  
HETATM   12  C   UNL     1      -9.771   8.889  66.239  1.00  0.00    -0.275 A  
HETATM   13  C   UNL     1      -9.792   9.878  65.256  1.00  0.00    -0.373 A  
HETATM   14  N   UNL     1      -9.915   7.535  66.101  1.00  0.00    -0.434 NA 
HETATM   15  C   UNL     1      -9.619  11.200  65.668  1.00  0.00    -0.259 A  
HETATM   16  H   UNL     1     -10.067   7.049  65.217  1.00  0.00     0.000 HD 
HETATM   17  C   UNL     1      -9.823   6.930  67.320  1.00  0.00    -0.152 A  
HETATM   18  C   UNL     1      -9.536   7.886  68.282  1.00  0.00    -0.164 A  
BRANCH  18  19
HETATM   19  C   UNL     1      -9.256   7.628  69.756  1.00  0.00    -0.147 C  
HETATM   20  C   UNL     1     -10.529   7.536  70.623  1.00  0.00    -0.221 C  
HETATM   21  C   UNL     1     -11.306   6.232  70.382  1.00  0.00    -0.372 C  
HETATM   22  N   UNL     1     -10.506   5.011  70.525  1.00  0.00    -0.211 NA 
HETATM   23  C   UNL     1      -9.261   5.087  69.749  1.00  0.00    -0.118 C  
HETATM   24  C   UNL     1     -10.279   4.664  71.923  1.00  0.00    -0.184 C  
HETATM   25  C   UNL     1      -8.438   6.350  70.011  1.00  0.00    -0.135 C  
ENDBRANCH  18  19
ENDBRANCH   8   9
ENDBRANCH   7   8
ENDBRANCH   4   7
ENDBRANCH   2   4
TORSDOF 5
ENDMDL
MODEL      147
REMARK 921   NORMALIZED FREE ENERGY PREDICTED BY IDOCK:   -4.29 KCAL/MOL
REMARK 922        TOTAL FREE ENERGY PREDICTED BY IDOCK:   -5.88 KCAL/MOL
REMARK 923 INTER-LIGAND FREE ENERGY PREDICTED BY IDOCK:   -5.57 KCAL/MOL
REMARK 924 INTRA-LIGAND FREE ENERGY PREDICTED BY IDOCK:   -0.31 KCAL/MOL
REMARK 927      BINDING AFFINITY PREDICTED BY RF-SCORE:    0.00 PKD
ROOT
HETATM    1  C   UNL     1      -7.039   7.279  66.488  1.00  0.00    -0.078 C  
HETATM    2  N   UNL     1      -8.308   6.547  66.496  1.00  0.00    -0.113 N  
HETATM    3  H   UNL     1      -8.714   6.183  65.634  1.00  0.00     0.000 HD 
ENDROOT
BRANCH   2   4
HETATM    4  S   UNL     1      -9.071   6.328  67.985  1.00  0.00    -0.110 S  
HETATM    5  O   UNL     1      -8.573   5.091  68.546  1.00  0.00    -0.094 OA 
HETATM    6  O   UNL     1     -10.479   6.537  67.742  1.00  0.00    -0.174 OA 
BRANCH   4   7
HETATM    7  C   UNL     1      -8.432   7.706  68.917  1.00  0.00    -0.129 C  
BRANCH   7   8
HETATM    8  C   UNL     1      -9.282   7.984  70.148  1.00  0.00    -0.152 C  
BRANCH   8   9
HETATM    9  C   UNL     1     -10.145   9.224  70.027  1.00  0.00    -0.240 A  
HETATM   10  C   UNL     1      -9.900  10.130  68.974  1.00  0.00    -0.211 A  
HETATM   11  C   UNL     1     -10.650  11.324  68.861  1.00  0.00    -0.239 A  
HETATM   12  C   UNL     1     -11.653  11.546  69.804  1.00  0.00    -0.326 A  
HETATM   13  C   UNL     1     -11.918  10.681  70.864  1.00  0.00    -0.469 A  
HETATM   14  N   UNL     1     -12.267  12.727  69.482  1.00  0.00    -0.171 NA 
HETATM   15  C   UNL     1     -11.136   9.530  70.968  1.00  0.00    -0.433 A  
HETATM   16  H   UNL     1     -13.038  13.146  70.001  1.00  0.00     0.000 HD 
HETATM   17  C   UNL     1     -11.692  13.260  68.366  1.00  0.00    -0.354 A  
HETATM   18  C   UNL     1     -10.627  12.464  67.977  1.00  0.00    -0.238 A  
BRANCH  18  19
HETATM   19  C   UNL     1      -9.656  12.748  66.839  1.00  0.00    -0.235 C  
HETATM   20  C   UNL     1      -8.911  11.496  66.332  1.00  0.00    -0.193 C  
HETATM   21  C   UNL     1      -9.825  10.559  65.526  1.00  0.00    -0.265 C  
HETATM   22  N   UNL     1     -10.537  11.208  64.419  1.00  0.00    -0.348 NA 
HETATM   23  C   UNL     1     -11.218  12.433  64.860  1.00  0.00    -0.311 C  
HETATM   24  C   UNL     1      -9.675  11.426  63.264  1.00  0.00    -0.394 C  
HETATM   25  C   UNL     1     -10.317  13.410  65.618  1.00  0.00    -0.295 C  
ENDBRANCH  18  19
ENDBRANCH   8   9
ENDBRANCH   7   8
ENDBRANCH   4   7
ENDBRANCH   2   4
TORSDOF 5
ENDMDL
MODEL      148
REMARK 921   NORMALIZED FREE ENERGY PREDICTED BY IDOCK:   -4.28 KCAL/MOL
REMARK 922        TOTAL FREE ENERGY PREDICTED BY IDOCK:   -5.88 KCAL/MOL
REMARK 923 INTER-LIGAND FREE ENERGY PREDICTED BY IDOCK:   -5.25 KCAL/MOL
REMARK 924 INTRA-LIGAND FREE ENERGY PREDICTED BY IDOCK:   -0.63 KCAL/MOL
REMARK 927      BINDING AFFINITY PREDICTED BY RF-SCORE:    0.00 PKD
ROOT
HETATM    1  C   UNL     1     -11.283  16.452  68.951  1.00  0.00    -0.304 C  
HETATM    2  N   UNL     1     -10.441  17.619  69.225  1.00  0.00    -0.379 N  
HETATM    3  H   UNL     1     -10.030  17.770  70.147  1.00  0.00     0.000 HD 
ENDROOT
BRANCH   2   4
HETATM    4  S   UNL     1     -10.176  18.704  67.959  1.00  0.00    -0.387 S  
HETATM    5  O   UNL     1     -10.285  20.039  68.507  1.00  0.00    -0.442 OA 
HETATM    6  O   UNL     1     -11.018  18.258  66.874  1.00  0.00    -0.205 OA 
BRANCH   4   7
HETATM    7  C   UNL     1      -8.474  18.364  67.552  1.00  0.00    -0.253 C  
BRANCH   7   8
HETATM    8  C   UNL     1      -8.369  17.379  66.396  1.00  0.00    -0.302 C  
BRANCH   8   9
HETATM    9  C   UNL     1      -7.830  16.021  66.798  1.00  0.00    -0.288 A  
HETATM   10  C   UNL     1      -8.705  14.915  66.825  1.00  0.00    -0.278 A  
HETATM   11  C   UNL     1      -8.249  13.645  67.247  1.00  0.00    -0.164 A  
HETATM   12  C   UNL     1      -6.904  13.526  67.596  1.00  0.00    -0.170 A  
HETATM   13  C   UNL     1      -6.011  14.597  67.592  1.00  0.00    -0.051 A  
HETATM   14  N   UNL     1      -6.679  12.218  67.930  1.00  0.00    -0.083 NA 
HETATM   15  C   UNL     1      -6.501  15.845  67.206  1.00  0.00    -0.174 A  
HETATM   16  H   UNL     1      -5.782  11.837  68.231  1.00  0.00     0.000 HD 
HETATM   17  C   UNL     1      -7.831  11.500  67.801  1.00  0.00    -0.126 A  
HETATM   18  C   UNL     1      -8.864  12.355  67.449  1.00  0.00    -0.188 A  
BRANCH  18  19
HETATM   19  C   UNL     1     -10.333  11.983  67.299  1.00  0.00    -0.232 C  
HETATM   20  C   UNL     1     -10.665  10.559  67.793  1.00  0.00    -0.319 C  
HETATM   21  C   UNL     1     -10.633  10.451  69.326  1.00  0.00    -0.232 C  
HETATM   22  N   UNL     1     -11.465  11.437  70.024  1.00  0.00    -0.277 NA 
HETATM   23  C   UNL     1     -11.207  12.800  69.541  1.00  0.00    -0.077 C  
HETATM   24  C   UNL     1     -12.880  11.084  69.989  1.00  0.00     0.013 C  
HETATM   25  C   UNL     1     -11.288  12.950  68.020  1.00  0.00    -0.333 C  
ENDBRANCH  18  19
ENDBRANCH   8   9
ENDBRANCH   7   8
ENDBRANCH   4   7
ENDBRANCH   2   4
TORSDOF 5
ENDMDL
MODEL      149
REMARK 921   NORMALIZED FREE ENERGY PREDICTED BY IDOCK:   -4.27 KCAL/MOL
REMARK 922        TOTAL FREE ENERGY PREDICTED BY IDOCK:   -5.86 KCAL/MOL
REMARK 923 INTER-LIGAND FREE ENERGY PREDICTED BY IDOCK:   -5.48 KCAL/MOL
REMARK 924 INTRA-LIGAND FREE ENERGY PREDICTED BY IDOCK:   -0.38 KCAL/MOL
REMARK 927      BINDING AFFINITY PREDICTED BY RF-SCORE:    0.00 PKD
ROOT
HETATM    1  C   UNL     1     -11.526   6.238  69.841  1.00  0.00    -0.389 C  
HETATM    2  N   UNL     1     -11.588   7.640  70.262  1.00  0.00    -0.477 N  
HETATM    3  H   UNL     1     -11.125   8.374  69.726  1.00  0.00     0.000 HD 
ENDROOT
BRANCH   2   4
HETATM    4  S   UNL     1     -12.454   7.994  71.667  1.00  0.00    -0.328 S  
HETATM    5  O   UNL     1     -11.491   8.324  72.695  1.00  0.00    -0.395 OA 
HETATM    6  O   UNL     1     -13.399   6.914  71.831  1.00  0.00    -0.294 OA 
BRANCH   4   7
HETATM    7  C   UNL     1     -13.333   9.466  71.179  1.00  0.00    -0.215 C  
BRANCH   7   8
HETATM    8  C   UNL     1     -12.551  10.721  71.536  1.00  0.00    -0.500 C  
BRANCH   8   9
HETATM    9  C   UNL     1     -11.882  11.383  70.347  1.00  0.00    -0.428 A  
HETATM   10  C   UNL     1     -10.752  10.769  69.767  1.00  0.00    -0.241 A  
HETATM   11  C   UNL     1     -10.071  11.386  68.691  1.00  0.00    -0.217 A  
HETATM   12  C   UNL     1     -10.581  12.592  68.211  1.00  0.00    -0.231 A  
HETATM   13  C   UNL     1     -11.687  13.234  68.766  1.00  0.00    -0.366 A  
HETATM   14  N   UNL     1      -9.798  12.981  67.159  1.00  0.00    -0.226 NA 
HETATM   15  C   UNL     1     -12.315  12.618  69.850  1.00  0.00    -0.126 A  
HETATM   16  H   UNL     1      -9.931  13.832  66.612  1.00  0.00     0.000 HD 
HETATM   17  C   UNL     1      -8.812  12.062  66.948  1.00  0.00    -0.197 A  
HETATM   18  C   UNL     1      -8.888  11.080  67.923  1.00  0.00    -0.134 A  
BRANCH  18  19
HETATM   19  C   UNL     1      -7.919   9.921  68.115  1.00  0.00    -0.100 C  
HETATM   20  C   UNL     1      -8.584   8.533  68.011  1.00  0.00    -0.134 C  
HETATM   21  C   UNL     1      -8.968   8.177  66.565  1.00  0.00    -0.158 C  
HETATM   22  N   UNL     1      -7.869   8.286  65.600  1.00  0.00    -0.098 NA 
HETATM   23  C   UNL     1      -7.183   9.581  65.707  1.00  0.00    -0.097 C  
HETATM   24  C   UNL     1      -6.954   7.154  65.678  1.00  0.00    -0.060 C  
HETATM   25  C   UNL     1      -6.740   9.936  67.128  1.00  0.00    -0.074 C  
ENDBRANCH  18  19
ENDBRANCH   8   9
ENDBRANCH   7   8
ENDBRANCH   4   7
ENDBRANCH   2   4
TORSDOF 5
ENDMDL
MODEL      150
REMARK 921   NORMALIZED FREE ENERGY PREDICTED BY IDOCK:   -4.25 KCAL/MOL
REMARK 922        TOTAL FREE ENERGY PREDICTED BY IDOCK:   -5.84 KCAL/MOL
REMARK 923 INTER-LIGAND FREE ENERGY PREDICTED BY IDOCK:   -5.59 KCAL/MOL
REMARK 924 INTRA-LIGAND FREE ENERGY PREDICTED BY IDOCK:   -0.25 KCAL/MOL
REMARK 927      BINDING AFFINITY PREDICTED BY RF-SCORE:    0.00 PKD
ROOT
HETATM    1  C   UNL     1      -8.511   4.202  71.161  1.00  0.00    -0.084 C  
HETATM    2  N   UNL     1      -9.896   4.272  71.633  1.00  0.00    -0.180 N  
HETATM    3  H   UNL     1     -10.675   4.347  70.978  1.00  0.00     0.000 HD 
ENDROOT
BRANCH   2   4
HETATM    4  S   UNL     1     -10.155   4.222  73.301  1.00  0.00    -0.154 S  
HETATM    5  O   UNL     1      -8.873   3.986  73.928  1.00  0.00    -0.093 OA 
HETATM    6  O   UNL     1     -11.273   3.331  73.501  1.00  0.00    -0.222 OA 
BRANCH   4   7
HETATM    7  C   UNL     1     -10.679   5.894  73.627  1.00  0.00    -0.235 C  
BRANCH   7   8
HETATM    8  C   UNL     1      -9.844   6.898  72.845  1.00  0.00    -0.195 C  
BRANCH   8   9
HETATM    9  C   UNL     1     -10.669   7.927  72.097  1.00  0.00    -0.316 A  
HETATM   10  C   UNL     1     -10.093   8.600  70.998  1.00  0.00    -0.273 A  
HETATM   11  C   UNL     1     -10.814   9.604  70.310  1.00  0.00    -0.339 A  
HETATM   12  C   UNL     1     -12.115   9.869  70.737  1.00  0.00    -0.308 A  
HETATM   13  C   UNL     1     -12.714   9.234  71.823  1.00  0.00    -0.462 A  
HETATM   14  N   UNL     1     -12.629  10.835  69.914  1.00  0.00    -0.439 NA 
HETATM   15  C   UNL     1     -11.963   8.275  72.504  1.00  0.00    -0.420 A  
HETATM   16  H   UNL     1     -13.565  11.232  69.990  1.00  0.00     0.000 HD 
HETATM   17  C   UNL     1     -11.703  11.188  68.976  1.00  0.00    -0.339 A  
HETATM   18  C   UNL     1     -10.523  10.504  69.221  1.00  0.00    -0.258 A  
BRANCH  18  19
HETATM   19  C   UNL     1      -9.208  10.676  68.473  1.00  0.00    -0.170 C  
HETATM   20  C   UNL     1      -8.615   9.352  67.949  1.00  0.00    -0.120 C  
HETATM   21  C   UNL     1      -9.402   8.793  66.753  1.00  0.00    -0.179 C  
HETATM   22  N   UNL     1      -9.583   9.740  65.647  1.00  0.00    -0.244 NA 
HETATM   23  C   UNL     1     -10.102  11.030  66.121  1.00  0.00    -0.237 C  
HETATM   24  C   UNL     1      -8.377   9.878  64.840  1.00  0.00    -0.150 C  
HETATM   25  C   UNL     1      -9.303  11.638  67.276  1.00  0.00    -0.170 C  
ENDBRANCH  18  19
ENDBRANCH   8   9
ENDBRANCH   7   8
ENDBRANCH   4   7
ENDBRANCH   2   4
TORSDOF 5
ENDMDL
MODEL      151
REMARK 921   NORMALIZED FREE ENERGY PREDICTED BY IDOCK:   -4.23 KCAL/MOL
REMARK 922        TOTAL FREE ENERGY PREDICTED BY IDOCK:   -5.81 KCAL/MOL
REMARK 923 INTER-LIGAND FREE ENERGY PREDICTED BY IDOCK:   -5.71 KCAL/MOL
REMARK 924 INTRA-LIGAND FREE ENERGY PREDICTED BY IDOCK:   -0.10 KCAL/MOL
REMARK 927      BINDING AFFINITY PREDICTED BY RF-SCORE:    0.00 PKD
ROOT
HETATM    1  C   UNL     1      -9.243   4.932  64.699  1.00  0.00    -0.025 C  
HETATM    2  N   UNL     1      -9.143   6.223  65.386  1.00  0.00    -0.368 N  
HETATM    3  H   UNL     1      -9.149   7.100  64.865  1.00  0.00     0.000 HD 
ENDROOT
BRANCH   2   4
HETATM    4  S   UNL     1      -9.017   6.203  67.069  1.00  0.00    -0.116 S  
HETATM    5  O   UNL     1      -7.609   6.257  67.396  1.00  0.00    -0.090 OA 
HETATM    6  O   UNL     1      -9.858   5.117  67.514  1.00  0.00    -0.144 OA 
BRANCH   4   7
HETATM    7  C   UNL     1      -9.790   7.750  67.500  1.00  0.00    -0.171 C  
BRANCH   7   8
HETATM    8  C   UNL     1      -8.806   8.907  67.395  1.00  0.00    -0.136 C  
BRANCH   8   9
HETATM    9  C   UNL     1      -9.296  10.048  66.525  1.00  0.00    -0.201 A  
HETATM   10  C   UNL     1      -9.063  11.376  66.940  1.00  0.00    -0.178 A  
HETATM   11  C   UNL     1      -9.553  12.464  66.180  1.00  0.00    -0.238 A  
HETATM   12  C   UNL     1     -10.235  12.171  65.000  1.00  0.00    -0.283 A  
HETATM   13  C   UNL     1     -10.494  10.873  64.563  1.00  0.00    -0.393 A  
HETATM   14  N   UNL     1     -10.579  13.360  64.416  1.00  0.00    -0.459 NA 
HETATM   15  C   UNL     1     -10.029   9.821  65.353  1.00  0.00    -0.302 A  
HETATM   16  H   UNL     1     -11.091  13.457  63.540  1.00  0.00     0.000 HD 
HETATM   17  C   UNL     1     -10.135  14.399  65.181  1.00  0.00    -0.326 A  
HETATM   18  C   UNL     1      -9.551  13.899  66.334  1.00  0.00    -0.292 A  
BRANCH  18  19
HETATM   19  C   UNL     1      -9.015  14.715  67.502  1.00  0.00    -0.193 C  
HETATM   20  C   UNL     1      -8.297  16.013  67.074  1.00  0.00    -0.251 C  
HETATM   21  C   UNL     1      -9.279  17.084  66.572  1.00  0.00    -0.271 C  
HETATM   22  N   UNL     1     -10.370  17.393  67.502  1.00  0.00    -0.339 NA 
HETATM   23  C   UNL     1     -11.044  16.173  67.967  1.00  0.00    -0.317 C  
HETATM   24  C   UNL     1      -9.933  18.249  68.598  1.00  0.00    -0.389 C  
HETATM   25  C   UNL     1     -10.095  15.109  68.524  1.00  0.00    -0.228 C  
ENDBRANCH  18  19
ENDBRANCH   8   9
ENDBRANCH   7   8
ENDBRANCH   4   7
ENDBRANCH   2   4
TORSDOF 5
ENDMDL
MODEL      152
REMARK 921   NORMALIZED FREE ENERGY PREDICTED BY IDOCK:   -4.21 KCAL/MOL
REMARK 922        TOTAL FREE ENERGY PREDICTED BY IDOCK:   -5.78 KCAL/MOL
REMARK 923 INTER-LIGAND FREE ENERGY PREDICTED BY IDOCK:   -5.48 KCAL/MOL
REMARK 924 INTRA-LIGAND FREE ENERGY PREDICTED BY IDOCK:   -0.30 KCAL/MOL
REMARK 927      BINDING AFFINITY PREDICTED BY RF-SCORE:    0.00 PKD
ROOT
HETATM    1  C   UNL     1     -12.084  13.734  68.792  1.00  0.00    -0.309 C  
HETATM    2  N   UNL     1     -12.263  14.428  67.514  1.00  0.00    -0.619 N  
HETATM    3  H   UNL     1     -12.305  15.447  67.466  1.00  0.00     0.000 HD 
ENDROOT
BRANCH   2   4
HETATM    4  S   UNL     1     -12.396  13.480  66.124  1.00  0.00    -0.373 S  
HETATM    5  O   UNL     1     -13.622  13.861  65.459  1.00  0.00    -0.579 OA 
HETATM    6  O   UNL     1     -12.154  12.121  66.548  1.00  0.00    -0.627 OA 
BRANCH   4   7
HETATM    7  C   UNL     1     -11.000  14.048  65.173  1.00  0.00    -0.353 C  
BRANCH   7   8
HETATM    8  C   UNL     1      -9.729  13.305  65.558  1.00  0.00    -0.063 C  
BRANCH   8   9
HETATM    9  C   UNL     1      -9.525  12.009  64.797  1.00  0.00     0.090 A  
HETATM   10  C   UNL     1      -8.983  10.895  65.472  1.00  0.00    -0.213 A  
HETATM   11  C   UNL     1      -8.730   9.687  64.781  1.00  0.00    -0.219 A  
HETATM   12  C   UNL     1      -9.069   9.635  63.430  1.00  0.00    -0.178 A  
HETATM   13  C   UNL     1      -9.596  10.717  62.726  1.00  0.00    -0.333 A  
HETATM   14  N   UNL     1      -8.777   8.375  62.981  1.00  0.00    -0.417 NA 
HETATM   15  C   UNL     1      -9.800  11.905  63.428  1.00  0.00    -0.374 A  
HETATM   16  H   UNL     1      -8.917   8.047  62.025  1.00  0.00     0.000 HD 
HETATM   17  C   UNL     1      -8.269   7.624  64.000  1.00  0.00     0.021 A  
HETATM   18  C   UNL     1      -8.148   8.415  65.131  1.00  0.00    -0.147 A  
BRANCH  18  19
HETATM   19  C   UNL     1      -7.534   7.998  66.462  1.00  0.00    -0.088 C  
HETATM   20  C   UNL     1      -8.265   8.578  67.690  1.00  0.00    -0.118 C  
HETATM   21  C   UNL     1      -9.627   7.905  67.930  1.00  0.00    -0.147 C  
HETATM   22  N   UNL     1      -9.576   6.442  68.014  1.00  0.00    -0.119 NA 
HETATM   23  C   UNL     1      -8.843   5.861  66.881  1.00  0.00    -0.115 C  
HETATM   24  C   UNL     1      -9.078   5.983  69.305  1.00  0.00    -0.124 C  
HETATM   25  C   UNL     1      -7.459   6.474  66.654  1.00  0.00    -0.079 C  
ENDBRANCH  18  19
ENDBRANCH   8   9
ENDBRANCH   7   8
ENDBRANCH   4   7
ENDBRANCH   2   4
TORSDOF 5
ENDMDL
MODEL      153
REMARK 921   NORMALIZED FREE ENERGY PREDICTED BY IDOCK:   -4.20 KCAL/MOL
REMARK 922        TOTAL FREE ENERGY PREDICTED BY IDOCK:   -5.77 KCAL/MOL
REMARK 923 INTER-LIGAND FREE ENERGY PREDICTED BY IDOCK:   -5.66 KCAL/MOL
REMARK 924 INTRA-LIGAND FREE ENERGY PREDICTED BY IDOCK:   -0.11 KCAL/MOL
REMARK 927      BINDING AFFINITY PREDICTED BY RF-SCORE:    0.00 PKD
ROOT
HETATM    1  C   UNL     1      -7.211   6.827  69.146  1.00  0.00    -0.091 C  
HETATM    2  N   UNL     1      -8.566   6.673  68.612  1.00  0.00    -0.125 N  
HETATM    3  H   UNL     1      -9.386   6.792  69.208  1.00  0.00     0.000 HD 
ENDROOT
BRANCH   2   4
HETATM    4  S   UNL     1      -8.720   6.291  66.975  1.00  0.00    -0.108 S  
HETATM    5  O   UNL     1     -10.129   6.347  66.651  1.00  0.00    -0.176 OA 
HETATM    6  O   UNL     1      -7.942   5.091  66.774  1.00  0.00    -0.102 OA 
BRANCH   4   7
HETATM    7  C   UNL     1      -7.878   7.664  66.211  1.00  0.00    -0.091 C  
BRANCH   7   8
HETATM    8  C   UNL     1      -8.110   7.688  64.707  1.00  0.00    -0.121 C  
BRANCH   8   9
HETATM    9  C   UNL     1      -8.695   8.992  64.201  1.00  0.00    -0.126 A  
HETATM   10  C   UNL     1      -9.108   9.967  65.133  1.00  0.00    -0.257 A  
HETATM   11  C   UNL     1      -9.707  11.172  64.697  1.00  0.00    -0.308 A  
HETATM   12  C   UNL     1      -9.837  11.367  63.323  1.00  0.00    -0.404 A  
HETATM   13  C   UNL     1      -9.453  10.423  62.372  1.00  0.00    -0.256 A  
HETATM   14  N   UNL     1     -10.400  12.600  63.133  1.00  0.00    -0.470 NA 
HETATM   15  C   UNL     1      -8.898   9.229  62.835  1.00  0.00    -0.185 A  
HETATM   16  H   UNL     1     -10.618  13.011  62.226  1.00  0.00     0.000 HD 
HETATM   17  C   UNL     1     -10.627  13.198  64.338  1.00  0.00    -0.421 A  
HETATM   18  C   UNL     1     -10.282  12.321  65.354  1.00  0.00    -0.297 A  
BRANCH  18  19
HETATM   19  C   UNL     1     -10.469  12.551  66.848  1.00  0.00    -0.244 C  
HETATM   20  C   UNL     1      -9.419  13.500  67.465  1.00  0.00    -0.222 C  
HETATM   21  C   UNL     1      -9.643  14.964  67.052  1.00  0.00    -0.238 C  
HETATM   22  N   UNL     1     -10.996  15.469  67.309  1.00  0.00    -0.318 NA 
HETATM   23  C   UNL     1     -12.021  14.562  66.775  1.00  0.00    -0.342 C  
HETATM   24  C   UNL     1     -11.204  15.792  68.715  1.00  0.00    -0.342 C  
HETATM   25  C   UNL     1     -11.856  13.105  67.215  1.00  0.00    -0.420 C  
ENDBRANCH  18  19
ENDBRANCH   8   9
ENDBRANCH   7   8
ENDBRANCH   4   7
ENDBRANCH   2   4
TORSDOF 5
ENDMDL
MODEL      154
REMARK 921   NORMALIZED FREE ENERGY PREDICTED BY IDOCK:   -4.20 KCAL/MOL
REMARK 922        TOTAL FREE ENERGY PREDICTED BY IDOCK:   -5.77 KCAL/MOL
REMARK 923 INTER-LIGAND FREE ENERGY PREDICTED BY IDOCK:   -5.33 KCAL/MOL
REMARK 924 INTRA-LIGAND FREE ENERGY PREDICTED BY IDOCK:   -0.44 KCAL/MOL
REMARK 927      BINDING AFFINITY PREDICTED BY RF-SCORE:    0.00 PKD
ROOT
HETATM    1  C   UNL     1      -6.225   6.009  65.681  1.00  0.00    -0.037 C  
HETATM    2  N   UNL     1      -7.240   7.038  65.441  1.00  0.00    -0.071 N  
HETATM    3  H   UNL     1      -8.071   7.109  66.029  1.00  0.00     0.000 HD 
ENDROOT
BRANCH   2   4
HETATM    4  S   UNL     1      -6.982   8.101  64.155  1.00  0.00    -0.072 S  
HETATM    5  O   UNL     1      -7.960   7.788  63.136  1.00  0.00    -0.140 OA 
HETATM    6  O   UNL     1      -5.565   8.057  63.885  1.00  0.00    -0.051 OA 
BRANCH   4   7
HETATM    7  C   UNL     1      -7.383   9.667  64.905  1.00  0.00    -0.118 C  
BRANCH   7   8
HETATM    8  C   UNL     1      -7.469   9.549  66.420  1.00  0.00    -0.097 C  
BRANCH   8   9
HETATM    9  C   UNL     1      -8.791  10.019  66.995  1.00  0.00    -0.147 A  
HETATM   10  C   UNL     1      -9.105   9.711  68.335  1.00  0.00    -0.123 A  
HETATM   11  C   UNL     1     -10.351  10.088  68.888  1.00  0.00    -0.217 A  
HETATM   12  C   UNL     1     -11.229  10.801  68.073  1.00  0.00    -0.307 A  
HETATM   13  C   UNL     1     -10.959  11.114  66.742  1.00  0.00    -0.309 A  
HETATM   14  N   UNL     1     -12.340  11.090  68.817  1.00  0.00    -0.731 NA 
HETATM   15  C   UNL     1      -9.736  10.697  66.215  1.00  0.00    -0.245 A  
HETATM   16  H   UNL     1     -13.155  11.602  68.479  1.00  0.00     0.000 HD 
HETATM   17  C   UNL     1     -12.198  10.591  70.079  1.00  0.00    -0.250 A  
HETATM   18  C   UNL     1     -11.005   9.890  70.159  1.00  0.00    -0.356 A  
BRANCH  18  19
HETATM   19  C   UNL     1     -10.504   9.094  71.357  1.00  0.00    -0.414 C  
HETATM   20  C   UNL     1     -11.605   8.767  72.388  1.00  0.00    -0.321 C  
HETATM   21  C   UNL     1     -12.579   7.691  71.881  1.00  0.00    -0.303 C  
HETATM   22  N   UNL     1     -11.934   6.456  71.420  1.00  0.00    -0.303 NA 
HETATM   23  C   UNL     1     -10.848   6.736  70.472  1.00  0.00    -0.258 C  
HETATM   24  C   UNL     1     -11.512   5.609  72.529  1.00  0.00    -0.279 C  
HETATM   25  C   UNL     1      -9.831   7.765  70.974  1.00  0.00    -0.186 C  
ENDBRANCH  18  19
ENDBRANCH   8   9
ENDBRANCH   7   8
ENDBRANCH   4   7
ENDBRANCH   2   4
TORSDOF 5
ENDMDL
MODEL      155
REMARK 921   NORMALIZED FREE ENERGY PREDICTED BY IDOCK:   -4.19 KCAL/MOL
REMARK 922        TOTAL FREE ENERGY PREDICTED BY IDOCK:   -5.76 KCAL/MOL
REMARK 923 INTER-LIGAND FREE ENERGY PREDICTED BY IDOCK:   -5.28 KCAL/MOL
REMARK 924 INTRA-LIGAND FREE ENERGY PREDICTED BY IDOCK:   -0.47 KCAL/MOL
REMARK 927      BINDING AFFINITY PREDICTED BY RF-SCORE:    0.00 PKD
ROOT
HETATM    1  C   UNL     1     -12.869  12.529  64.481  1.00  0.00    -0.262 C  
HETATM    2  N   UNL     1     -12.843  13.884  65.037  1.00  0.00    -0.733 N  
HETATM    3  H   UNL     1     -13.583  14.216  65.657  1.00  0.00     0.000 HD 
ENDROOT
BRANCH   2   4
HETATM    4  S   UNL     1     -11.543  14.875  64.614  1.00  0.00    -0.354 S  
HETATM    5  O   UNL     1     -12.076  15.977  63.843  1.00  0.00    -0.880 OA 
HETATM    6  O   UNL     1     -10.532  13.993  64.080  1.00  0.00    -0.142 OA 
BRANCH   4   7
HETATM    7  C   UNL     1     -11.015  15.466  66.211  1.00  0.00    -0.278 C  
BRANCH   7   8
HETATM    8  C   UNL     1      -9.525  15.777  66.220  1.00  0.00    -0.349 C  
BRANCH   8   9
HETATM    9  C   UNL     1      -8.730  14.929  67.193  1.00  0.00    -0.240 A  
HETATM   10  C   UNL     1      -8.834  13.524  67.123  1.00  0.00    -0.231 A  
HETATM   11  C   UNL     1      -8.148  12.704  68.049  1.00  0.00    -0.161 A  
HETATM   12  C   UNL     1      -7.347  13.335  69.000  1.00  0.00     0.036 A  
HETATM   13  C   UNL     1      -7.228  14.720  69.108  1.00  0.00    -0.148 A  
HETATM   14  N   UNL     1      -6.757  12.359  69.756  1.00  0.00    -0.356 NA 
HETATM   15  C   UNL     1      -7.945  15.502  68.202  1.00  0.00    -0.132 A  
HETATM   16  H   UNL     1      -6.118  12.525  70.533  1.00  0.00     0.000 HD 
HETATM   17  C   UNL     1      -7.150  11.128  69.316  1.00  0.00    -0.123 A  
HETATM   18  C   UNL     1      -8.079  11.284  68.299  1.00  0.00    -0.137 A  
BRANCH  18  19
HETATM   19  C   UNL     1      -8.843  10.170  67.596  1.00  0.00    -0.125 C  
HETATM   20  C   UNL     1      -8.902  10.330  66.062  1.00  0.00    -0.166 C  
HETATM   21  C   UNL     1      -7.550  10.037  65.393  1.00  0.00    -0.138 C  
HETATM   22  N   UNL     1      -6.965   8.738  65.745  1.00  0.00    -0.075 NA 
HETATM   23  C   UNL     1      -6.939   8.535  67.200  1.00  0.00    -0.075 C  
HETATM   24  C   UNL     1      -7.602   7.638  65.032  1.00  0.00    -0.097 C  
HETATM   25  C   UNL     1      -8.287   8.766  67.887  1.00  0.00    -0.118 C  
ENDBRANCH  18  19
ENDBRANCH   8   9
ENDBRANCH   7   8
ENDBRANCH   4   7
ENDBRANCH   2   4
TORSDOF 5
ENDMDL
MODEL      156
REMARK 921   NORMALIZED FREE ENERGY PREDICTED BY IDOCK:   -4.19 KCAL/MOL
REMARK 922        TOTAL FREE ENERGY PREDICTED BY IDOCK:   -5.76 KCAL/MOL
REMARK 923 INTER-LIGAND FREE ENERGY PREDICTED BY IDOCK:   -5.44 KCAL/MOL
REMARK 924 INTRA-LIGAND FREE ENERGY PREDICTED BY IDOCK:   -0.32 KCAL/MOL
REMARK 927      BINDING AFFINITY PREDICTED BY RF-SCORE:    0.00 PKD
ROOT
HETATM    1  C   UNL     1     -13.622   9.697  71.975  1.00  0.00    -0.385 C  
HETATM    2  N   UNL     1     -13.289   8.463  72.692  1.00  0.00    -0.622 N  
HETATM    3  H   UNL     1     -13.862   8.133  73.469  1.00  0.00     0.000 HD 
ENDROOT
BRANCH   2   4
HETATM    4  S   UNL     1     -11.925   7.609  72.184  1.00  0.00    -0.288 S  
HETATM    5  O   UNL     1     -12.386   6.371  71.597  1.00  0.00    -0.312 OA 
HETATM    6  O   UNL     1     -11.010   7.625  73.301  1.00  0.00    -0.400 OA 
BRANCH   4   7
HETATM    7  C   UNL     1     -11.296   8.678  70.903  1.00  0.00    -0.272 C  
BRANCH   7   8
HETATM    8  C   UNL     1      -9.987   9.332  71.323  1.00  0.00    -0.341 C  
BRANCH   8   9
HETATM    9  C   UNL     1      -9.086   9.696  70.159  1.00  0.00    -0.280 A  
HETATM   10  C   UNL     1      -9.278  10.929  69.502  1.00  0.00     0.218 A  
HETATM   11  C   UNL     1      -8.491  11.277  68.379  1.00  0.00    -0.153 A  
HETATM   12  C   UNL     1      -7.505  10.376  67.979  1.00  0.00    -0.090 A  
HETATM   13  C   UNL     1      -7.292   9.144  68.596  1.00  0.00    -0.076 A  
HETATM   14  N   UNL     1      -6.850  10.929  66.912  1.00  0.00    -0.105 NA 
HETATM   15  C   UNL     1      -8.110   8.815  69.678  1.00  0.00    -0.101 A  
HETATM   16  H   UNL     1      -6.079  10.492  66.407  1.00  0.00     0.000 HD 
HETATM   17  C   UNL     1      -7.380  12.153  66.624  1.00  0.00     0.201 A  
HETATM   18  C   UNL     1      -8.459  12.390  67.461  1.00  0.00    -0.175 A  
BRANCH  18  19
HETATM   19  C   UNL     1      -9.393  13.592  67.411  1.00  0.00    -0.228 C  
HETATM   20  C   UNL     1      -9.501  14.235  66.013  1.00  0.00    -0.213 C  
HETATM   21  C   UNL     1     -10.309  13.369  65.033  1.00  0.00    -0.347 C  
HETATM   22  N   UNL     1     -11.638  12.981  65.517  1.00  0.00    -0.332 NA 
HETATM   23  C   UNL     1     -11.575  12.408  66.868  1.00  0.00    -0.370 C  
HETATM   24  C   UNL     1     -12.601  14.070  65.409  1.00  0.00    -0.505 C  
HETATM   25  C   UNL     1     -10.824  13.277  67.880  1.00  0.00    -0.260 C  
ENDBRANCH  18  19
ENDBRANCH   8   9
ENDBRANCH   7   8
ENDBRANCH   4   7
ENDBRANCH   2   4
TORSDOF 5
ENDMDL
MODEL      157
REMARK 921   NORMALIZED FREE ENERGY PREDICTED BY IDOCK:   -4.18 KCAL/MOL
REMARK 922        TOTAL FREE ENERGY PREDICTED BY IDOCK:   -5.74 KCAL/MOL
REMARK 923 INTER-LIGAND FREE ENERGY PREDICTED BY IDOCK:   -5.53 KCAL/MOL
REMARK 924 INTRA-LIGAND FREE ENERGY PREDICTED BY IDOCK:   -0.21 KCAL/MOL
REMARK 927      BINDING AFFINITY PREDICTED BY RF-SCORE:    0.00 PKD
ROOT
HETATM    1  C   UNL     1      -9.643  10.305  64.089  1.00  0.00    -0.315 C  
HETATM    2  N   UNL     1      -8.928   9.027  64.142  1.00  0.00    -0.426 N  
HETATM    3  H   UNL     1      -9.432   8.142  64.214  1.00  0.00     0.000 HD 
ENDROOT
BRANCH   2   4
HETATM    4  S   UNL     1      -7.242   9.073  64.078  1.00  0.00    -0.097 S  
HETATM    5  O   UNL     1      -6.876   9.699  62.826  1.00  0.00    -0.098 OA 
HETATM    6  O   UNL     1      -6.797   7.743  64.420  1.00  0.00    -0.057 OA 
BRANCH   4   7
HETATM    7  C   UNL     1      -6.867  10.175  65.428  1.00  0.00    -0.128 C  
BRANCH   7   8
HETATM    8  C   UNL     1      -6.968   9.462  66.768  1.00  0.00    -0.081 C  
BRANCH   8   9
HETATM    9  C   UNL     1      -8.293   9.673  67.474  1.00  0.00    -0.118 A  
HETATM   10  C   UNL     1      -8.843  10.971  67.527  1.00  0.00    -0.131 A  
HETATM   11  C   UNL     1     -10.051  11.214  68.222  1.00  0.00    -0.196 A  
HETATM   12  C   UNL     1     -10.684  10.122  68.815  1.00  0.00    -0.220 A  
HETATM   13  C   UNL     1     -10.167   8.828  68.794  1.00  0.00    -0.224 A  
HETATM   14  N   UNL     1     -11.839  10.579  69.391  1.00  0.00    -0.478 NA 
HETATM   15  C   UNL     1      -8.955   8.628  68.130  1.00  0.00    -0.141 A  
HETATM   16  H   UNL     1     -12.506  10.002  69.902  1.00  0.00     0.000 HD 
HETATM   17  C   UNL     1     -11.965  11.921  69.181  1.00  0.00    -0.276 A  
HETATM   18  C   UNL     1     -10.839  12.386  68.520  1.00  0.00    -0.270 A  
BRANCH  18  19
HETATM   19  C   UNL     1     -10.528  13.837  68.178  1.00  0.00    -0.252 C  
HETATM   20  C   UNL     1      -9.403  14.000  67.133  1.00  0.00    -0.244 C  
HETATM   21  C   UNL     1      -9.858  13.602  65.720  1.00  0.00    -0.211 C  
HETATM   22  N   UNL     1     -11.079  14.274  65.261  1.00  0.00    -0.319 NA 
HETATM   23  C   UNL     1     -12.155  14.177  66.256  1.00  0.00    -0.442 C  
HETATM   24  C   UNL     1     -10.824  15.645  64.835  1.00  0.00    -0.418 C  
HETATM   25  C   UNL     1     -11.746  14.622  67.662  1.00  0.00    -0.389 C  
ENDBRANCH  18  19
ENDBRANCH   8   9
ENDBRANCH   7   8
ENDBRANCH   4   7
ENDBRANCH   2   4
TORSDOF 5
ENDMDL
MODEL      158
REMARK 921   NORMALIZED FREE ENERGY PREDICTED BY IDOCK:   -4.16 KCAL/MOL
REMARK 922        TOTAL FREE ENERGY PREDICTED BY IDOCK:   -5.72 KCAL/MOL
REMARK 923 INTER-LIGAND FREE ENERGY PREDICTED BY IDOCK:   -6.55 KCAL/MOL
REMARK 924 INTRA-LIGAND FREE ENERGY PREDICTED BY IDOCK:    0.83 KCAL/MOL
REMARK 927      BINDING AFFINITY PREDICTED BY RF-SCORE:    0.00 PKD
ROOT
HETATM    1  C   UNL     1     -11.687  15.634  71.644  1.00  0.00    -0.446 C  
HETATM    2  N   UNL     1     -11.131  14.593  70.775  1.00  0.00    -0.509 N  
HETATM    3  H   UNL     1     -10.912  13.664  71.137  1.00  0.00     0.000 HD 
ENDROOT
BRANCH   2   4
HETATM    4  S   UNL     1     -10.867  14.988  69.155  1.00  0.00    -0.262 S  
HETATM    5  O   UNL     1      -9.444  14.895  68.917  1.00  0.00    -0.204 OA 
HETATM    6  O   UNL     1     -11.597  16.212  68.923  1.00  0.00    -0.357 OA 
BRANCH   4   7
HETATM    7  C   UNL     1     -11.699  13.649  68.325  1.00  0.00    -0.363 C  
BRANCH   7   8
HETATM    8  C   UNL     1     -11.938  13.972  66.856  1.00  0.00    -0.479 C  
BRANCH   8   9
HETATM    9  C   UNL     1     -11.428  12.907  65.906  1.00  0.00    -0.387 A  
HETATM   10  C   UNL     1     -10.441  12.003  66.354  1.00  0.00    -0.267 A  
HETATM   11  C   UNL     1      -9.904  11.031  65.478  1.00  0.00    -0.292 A  
HETATM   12  C   UNL     1     -10.411  10.982  64.180  1.00  0.00    -0.366 A  
HETATM   13  C   UNL     1     -11.377  11.864  63.698  1.00  0.00    -0.536 A  
HETATM   14  N   UNL     1      -9.782   9.955  63.531  1.00  0.00    -0.498 NA 
HETATM   15  C   UNL     1     -11.861  12.834  64.576  1.00  0.00    -0.436 A  
HETATM   16  H   UNL     1      -9.950   9.684  62.562  1.00  0.00     0.000 HD 
HETATM   17  C   UNL     1      -8.897   9.345  64.371  1.00  0.00    -0.188 A  
HETATM   18  C   UNL     1      -8.876  10.023  65.579  1.00  0.00    -0.189 A  
BRANCH  18  19
HETATM   19  C   UNL     1      -7.958   9.736  66.760  1.00  0.00    -0.105 C  
HETATM   20  C   UNL     1      -6.611  10.486  66.694  1.00  0.00    -0.094 C  
HETATM   21  C   UNL     1      -6.765  11.988  66.979  1.00  0.00    -0.099 C  
HETATM   22  N   UNL     1      -7.459  12.303  68.232  1.00  0.00    -0.110 NA 
HETATM   23  C   UNL     1      -8.725  11.566  68.347  1.00  0.00    -0.160 C  
HETATM   24  C   UNL     1      -6.597  12.130  69.396  1.00  0.00    -0.090 C  
HETATM   25  C   UNL     1      -8.592  10.058  68.124  1.00  0.00    -0.118 C  
ENDBRANCH  18  19
ENDBRANCH   8   9
ENDBRANCH   7   8
ENDBRANCH   4   7
ENDBRANCH   2   4
TORSDOF 5
ENDMDL
MODEL      159
REMARK 921   NORMALIZED FREE ENERGY PREDICTED BY IDOCK:   -4.14 KCAL/MOL
REMARK 922        TOTAL FREE ENERGY PREDICTED BY IDOCK:   -5.70 KCAL/MOL
REMARK 923 INTER-LIGAND FREE ENERGY PREDICTED BY IDOCK:   -5.39 KCAL/MOL
REMARK 924 INTRA-LIGAND FREE ENERGY PREDICTED BY IDOCK:   -0.31 KCAL/MOL
REMARK 927      BINDING AFFINITY PREDICTED BY RF-SCORE:    0.00 PKD
ROOT
HETATM    1  C   UNL     1      -8.286   5.272  72.310  1.00  0.00    -0.118 C  
HETATM    2  N   UNL     1      -9.706   5.576  72.506  1.00  0.00    -0.152 N  
HETATM    3  H   UNL     1     -10.273   5.049  73.171  1.00  0.00     0.000 HD 
ENDROOT
BRANCH   2   4
HETATM    4  S   UNL     1     -10.368   6.830  71.589  1.00  0.00    -0.196 S  
HETATM    5  O   UNL     1      -9.417   7.919  71.600  1.00  0.00    -0.144 OA 
HETATM    6  O   UNL     1     -11.720   6.997  72.069  1.00  0.00    -0.276 OA 
BRANCH   4   7
HETATM    7  C   UNL     1     -10.415   6.095  69.966  1.00  0.00    -0.234 C  
BRANCH   7   8
HETATM    8  C   UNL     1     -11.242   6.934  69.003  1.00  0.00    -0.131 C  
BRANCH   8   9
HETATM    9  C   UNL     1     -10.425   7.583  67.903  1.00  0.00    -0.266 A  
HETATM   10  C   UNL     1     -10.509   8.979  67.719  1.00  0.00    -0.305 A  
HETATM   11  C   UNL     1      -9.803   9.611  66.668  1.00  0.00    -0.285 A  
HETATM   12  C   UNL     1      -9.002   8.809  65.856  1.00  0.00    -0.195 A  
HETATM   13  C   UNL     1      -8.902   7.426  66.000  1.00  0.00    -0.173 A  
HETATM   14  N   UNL     1      -8.391   9.626  64.945  1.00  0.00    -0.138 NA 
HETATM   15  C   UNL     1      -9.640   6.828  67.023  1.00  0.00    -0.188 A  
HETATM   16  H   UNL     1      -7.747   9.315  64.218  1.00  0.00     0.000 HD 
HETATM   17  C   UNL     1      -8.770  10.921  65.152  1.00  0.00    -0.122 A  
HETATM   18  C   UNL     1      -9.710  10.962  66.169  1.00  0.00    -0.252 A  
BRANCH  18  19
HETATM   19  C   UNL     1     -10.465  12.193  66.651  1.00  0.00    -0.248 C  
HETATM   20  C   UNL     1      -9.901  13.521  66.102  1.00  0.00    -0.292 C  
HETATM   21  C   UNL     1     -10.219  13.717  64.610  1.00  0.00    -0.311 C  
HETATM   22  N   UNL     1     -11.640  13.590  64.268  1.00  0.00    -0.392 NA 
HETATM   23  C   UNL     1     -12.219  12.357  64.819  1.00  0.00    -0.423 C  
HETATM   24  C   UNL     1     -12.400  14.781  64.628  1.00  0.00    -0.333 C  
HETATM   25  C   UNL     1     -11.967  12.163  66.316  1.00  0.00    -0.213 C  
ENDBRANCH  18  19
ENDBRANCH   8   9
ENDBRANCH   7   8
ENDBRANCH   4   7
ENDBRANCH   2   4
TORSDOF 5
ENDMDL
MODEL      160
REMARK 921   NORMALIZED FREE ENERGY PREDICTED BY IDOCK:   -4.12 KCAL/MOL
REMARK 922        TOTAL FREE ENERGY PREDICTED BY IDOCK:   -5.66 KCAL/MOL
REMARK 923 INTER-LIGAND FREE ENERGY PREDICTED BY IDOCK:   -5.51 KCAL/MOL
REMARK 924 INTRA-LIGAND FREE ENERGY PREDICTED BY IDOCK:   -0.15 KCAL/MOL
REMARK 927      BINDING AFFINITY PREDICTED BY RF-SCORE:    0.00 PKD
ROOT
HETATM    1  C   UNL     1      -9.751  16.317  69.076  1.00  0.00    -0.252 C  
HETATM    2  N   UNL     1      -9.682  15.828  67.696  1.00  0.00    -0.222 N  
HETATM    3  H   UNL     1      -9.020  16.224  67.028  1.00  0.00     0.000 HD 
ENDROOT
BRANCH   2   4
HETATM    4  S   UNL     1     -10.737  14.587  67.255  1.00  0.00    -0.292 S  
HETATM    5  O   UNL     1     -10.354  14.147  65.931  1.00  0.00    -0.294 OA 
HETATM    6  O   UNL     1     -12.065  15.080  67.536  1.00  0.00    -0.186 OA 
BRANCH   4   7
HETATM    7  C   UNL     1     -10.320  13.328  68.446  1.00  0.00    -0.251 C  
BRANCH   7   8
HETATM    8  C   UNL     1     -11.452  13.112  69.441  1.00  0.00    -0.321 C  
BRANCH   8   9
HETATM    9  C   UNL     1     -11.600  11.673  69.894  1.00  0.00    -0.366 A  
HETATM   10  C   UNL     1     -10.948  10.655  69.168  1.00  0.00    -0.296 A  
HETATM   11  C   UNL     1     -11.108   9.297  69.530  1.00  0.00    -0.099 A  
HETATM   12  C   UNL     1     -11.898   9.015  70.644  1.00  0.00    -0.154 A  
HETATM   13  C   UNL     1     -12.566   9.993  71.380  1.00  0.00    -0.518 A  
HETATM   14  N   UNL     1     -11.880   7.660  70.830  1.00  0.00    -0.372 NA 
HETATM   15  C   UNL     1     -12.418  11.320  70.975  1.00  0.00    -0.503 A  
HETATM   16  H   UNL     1     -12.375   7.163  71.571  1.00  0.00     0.000 HD 
HETATM   17  C   UNL     1     -11.102   7.069  69.877  1.00  0.00    -0.264 A  
HETATM   18  C   UNL     1     -10.654   8.037  68.993  1.00  0.00    -0.169 A  
BRANCH  18  19
HETATM   19  C   UNL     1      -9.840   7.796  67.728  1.00  0.00    -0.200 C  
HETATM   20  C   UNL     1      -8.319   7.970  67.927  1.00  0.00    -0.129 C  
HETATM   21  C   UNL     1      -7.701   6.815  68.733  1.00  0.00    -0.110 C  
HETATM   22  N   UNL     1      -7.994   5.479  68.204  1.00  0.00    -0.096 NA 
HETATM   23  C   UNL     1      -9.431   5.298  67.958  1.00  0.00    -0.122 C  
HETATM   24  C   UNL     1      -7.177   5.157  67.040  1.00  0.00    -0.081 C  
HETATM   25  C   UNL     1     -10.063   6.406  67.110  1.00  0.00    -0.217 C  
ENDBRANCH  18  19
ENDBRANCH   8   9
ENDBRANCH   7   8
ENDBRANCH   4   7
ENDBRANCH   2   4
TORSDOF 5
ENDMDL
MODEL      161
REMARK 921   NORMALIZED FREE ENERGY PREDICTED BY IDOCK:   -4.10 KCAL/MOL
REMARK 922        TOTAL FREE ENERGY PREDICTED BY IDOCK:   -5.65 KCAL/MOL
REMARK 923 INTER-LIGAND FREE ENERGY PREDICTED BY IDOCK:   -6.69 KCAL/MOL
REMARK 924 INTRA-LIGAND FREE ENERGY PREDICTED BY IDOCK:    1.05 KCAL/MOL
REMARK 927      BINDING AFFINITY PREDICTED BY RF-SCORE:    0.00 PKD
ROOT
HETATM    1  C   UNL     1      -9.945  16.151  65.741  1.00  0.00    -0.340 C  
HETATM    2  N   UNL     1     -10.976  15.424  64.996  1.00  0.00    -0.417 N  
HETATM    3  H   UNL     1     -11.417  15.830  64.170  1.00  0.00     0.000 HD 
ENDROOT
BRANCH   2   4
HETATM    4  S   UNL     1     -11.406  13.890  65.554  1.00  0.00    -0.316 S  
HETATM    5  O   UNL     1     -10.252  13.034  65.392  1.00  0.00    -0.292 OA 
HETATM    6  O   UNL     1     -12.672  13.584  64.931  1.00  0.00    -0.632 OA 
BRANCH   4   7
HETATM    7  C   UNL     1     -11.674  14.208  67.288  1.00  0.00    -0.392 C  
BRANCH   7   8
HETATM    8  C   UNL     1     -10.573  13.591  68.139  1.00  0.00    -0.253 C  
BRANCH   8   9
HETATM    9  C   UNL     1     -11.073  12.553  69.125  1.00  0.00    -0.254 A  
HETATM   10  C   UNL     1     -10.573  11.237  69.048  1.00  0.00    -0.241 A  
HETATM   11  C   UNL     1     -11.056  10.230  69.916  1.00  0.00    -0.362 A  
HETATM   12  C   UNL     1     -12.009  10.600  70.864  1.00  0.00    -0.363 A  
HETATM   13  C   UNL     1     -12.535  11.887  70.964  1.00  0.00    -0.390 A  
HETATM   14  N   UNL     1     -12.299   9.491  71.611  1.00  0.00    -0.372 NA 
HETATM   15  C   UNL     1     -12.064  12.848  70.069  1.00  0.00    -0.357 A  
HETATM   16  H   UNL     1     -12.969   9.461  72.380  1.00  0.00     0.000 HD 
HETATM   17  C   UNL     1     -11.560   8.430  71.176  1.00  0.00    -0.279 A  
HETATM   18  C   UNL     1     -10.819   8.815  70.069  1.00  0.00    -0.231 A  
BRANCH  18  19
HETATM   19  C   UNL     1      -9.936   7.914  69.216  1.00  0.00    -0.190 C  
HETATM   20  C   UNL     1     -10.589   7.486  67.885  1.00  0.00    -0.250 C  
HETATM   21  C   UNL     1     -10.659   8.640  66.872  1.00  0.00    -0.200 C  
HETATM   22  N   UNL     1      -9.376   9.305  66.617  1.00  0.00    -0.159 NA 
HETATM   23  C   UNL     1      -8.706   9.683  67.868  1.00  0.00    -0.119 C  
HETATM   24  C   UNL     1      -8.520   8.526  65.730  1.00  0.00    -0.154 C  
HETATM   25  C   UNL     1      -8.571   8.537  68.875  1.00  0.00    -0.127 C  
ENDBRANCH  18  19
ENDBRANCH   8   9
ENDBRANCH   7   8
ENDBRANCH   4   7
ENDBRANCH   2   4
TORSDOF 5
ENDMDL
MODEL      162
REMARK 921   NORMALIZED FREE ENERGY PREDICTED BY IDOCK:   -4.08 KCAL/MOL
REMARK 922        TOTAL FREE ENERGY PREDICTED BY IDOCK:   -5.61 KCAL/MOL
REMARK 923 INTER-LIGAND FREE ENERGY PREDICTED BY IDOCK:   -5.28 KCAL/MOL
REMARK 924 INTRA-LIGAND FREE ENERGY PREDICTED BY IDOCK:   -0.34 KCAL/MOL
REMARK 927      BINDING AFFINITY PREDICTED BY RF-SCORE:    0.00 PKD
ROOT
HETATM    1  C   UNL     1     -12.175  12.202  63.964  1.00  0.00    -0.446 C  
HETATM    2  N   UNL     1     -10.928  12.302  64.726  1.00  0.00    -0.293 N  
HETATM    3  H   UNL     1     -10.065  11.874  64.387  1.00  0.00     0.000 HD 
ENDROOT
BRANCH   2   4
HETATM    4  S   UNL     1     -10.971  13.153  66.183  1.00  0.00    -0.286 S  
HETATM    5  O   UNL     1     -12.354  13.484  66.447  1.00  0.00    -0.407 OA 
HETATM    6  O   UNL     1      -9.954  14.172  66.075  1.00  0.00    -0.301 OA 
BRANCH   4   7
HETATM    7  C   UNL     1     -10.425  11.908  67.336  1.00  0.00    -0.217 C  
BRANCH   7   8
HETATM    8  C   UNL     1     -11.233  11.956  68.625  1.00  0.00    -0.311 C  
BRANCH   8   9
HETATM    9  C   UNL     1     -11.087  10.715  69.483  1.00  0.00    -0.328 A  
HETATM   10  C   UNL     1     -10.085   9.774  69.165  1.00  0.00    -0.200 A  
HETATM   11  C   UNL     1      -9.955   8.580  69.912  1.00  0.00    -0.189 A  
HETATM   12  C   UNL     1     -10.826   8.392  70.984  1.00  0.00    -0.238 A  
HETATM   13  C   UNL     1     -11.835   9.292  71.322  1.00  0.00    -0.415 A  
HETATM   14  N   UNL     1     -10.497   7.204  71.579  1.00  0.00    -0.204 NA 
HETATM   15  C   UNL     1     -11.960  10.444  70.544  1.00  0.00    -0.427 A  
HETATM   16  H   UNL     1     -10.969   6.804  72.390  1.00  0.00     0.000 HD 
HETATM   17  C   UNL     1      -9.445   6.632  70.925  1.00  0.00    -0.164 A  
HETATM   18  C   UNL     1      -9.112   7.412  69.829  1.00  0.00    -0.141 A  
BRANCH  18  19
HETATM   19  C   UNL     1      -8.060   7.087  68.776  1.00  0.00    -0.121 C  
HETATM   20  C   UNL     1      -7.269   5.795  69.069  1.00  0.00    -0.078 C  
HETATM   21  C   UNL     1      -8.113   4.530  68.841  1.00  0.00    -0.077 C  
HETATM   22  N   UNL     1      -8.745   4.449  67.520  1.00  0.00    -0.104 NA 
HETATM   23  C   UNL     1      -9.468   5.685  67.191  1.00  0.00    -0.117 C  
HETATM   24  C   UNL     1      -7.800   4.054  66.482  1.00  0.00    -0.093 C  
HETATM   25  C   UNL     1      -8.633   6.958  67.355  1.00  0.00    -0.121 C  
ENDBRANCH  18  19
ENDBRANCH   8   9
ENDBRANCH   7   8
ENDBRANCH   4   7
ENDBRANCH   2   4
TORSDOF 5
ENDMDL
MODEL      163
REMARK 921   NORMALIZED FREE ENERGY PREDICTED BY IDOCK:   -4.05 KCAL/MOL
REMARK 922        TOTAL FREE ENERGY PREDICTED BY IDOCK:   -5.58 KCAL/MOL
REMARK 923 INTER-LIGAND FREE ENERGY PREDICTED BY IDOCK:   -5.52 KCAL/MOL
REMARK 924 INTRA-LIGAND FREE ENERGY PREDICTED BY IDOCK:   -0.06 KCAL/MOL
REMARK 927      BINDING AFFINITY PREDICTED BY RF-SCORE:    0.00 PKD
ROOT
HETATM    1  C   UNL     1     -11.705  16.141  72.601  1.00  0.00    -0.388 C  
HETATM    2  N   UNL     1     -11.591  16.043  71.143  1.00  0.00    -0.430 N  
HETATM    3  H   UNL     1     -10.841  16.516  70.638  1.00  0.00     0.000 HD 
ENDROOT
BRANCH   2   4
HETATM    4  S   UNL     1     -12.747  15.119  70.331  1.00  0.00    -0.300 S  
HETATM    5  O   UNL     1     -12.257  14.900  68.988  1.00  0.00    -0.237 OA 
HETATM    6  O   UNL     1     -14.014  15.764  70.581  1.00  0.00    -0.186 OA 
BRANCH   4   7
HETATM    7  C   UNL     1     -12.684  13.590  71.246  1.00  0.00    -0.348 C  
BRANCH   7   8
HETATM    8  C   UNL     1     -12.277  12.427  70.353  1.00  0.00    -0.370 C  
BRANCH   8   9
HETATM    9  C   UNL     1     -12.484  11.067  70.989  1.00  0.00    -0.512 A  
HETATM   10  C   UNL     1     -11.365  10.237  71.213  1.00  0.00    -0.122 A  
HETATM   11  C   UNL     1     -11.526   8.941  71.755  1.00  0.00    -0.423 A  
HETATM   12  C   UNL     1     -12.819   8.538  72.089  1.00  0.00    -0.369 A  
HETATM   13  C   UNL     1     -13.950   9.325  71.872  1.00  0.00    -0.359 A  
HETATM   14  N   UNL     1     -12.734   7.282  72.625  1.00  0.00    -0.258 NA 
HETATM   15  C   UNL     1     -13.760  10.584  71.302  1.00  0.00     0.221 A  
HETATM   16  H   UNL     1     -13.526   6.732  72.957  1.00  0.00     0.000 HD 
HETATM   17  C   UNL     1     -11.432   6.874  72.650  1.00  0.00    -0.196 A  
HETATM   18  C   UNL     1     -10.641   7.841  72.050  1.00  0.00    -0.279 A  
BRANCH  18  19
HETATM   19  C   UNL     1      -9.145   7.743  71.781  1.00  0.00    -0.171 C  
HETATM   20  C   UNL     1      -8.274   8.389  72.879  1.00  0.00    -0.181 C  
HETATM   21  C   UNL     1      -8.254   7.558  74.172  1.00  0.00    -0.189 C  
HETATM   22  N   UNL     1      -7.876   6.153  73.987  1.00  0.00    -0.100 NA 
HETATM   23  C   UNL     1      -8.656   5.521  72.914  1.00  0.00    -0.119 C  
HETATM   24  C   UNL     1      -6.438   5.989  73.812  1.00  0.00    -0.070 C  
HETATM   25  C   UNL     1      -8.647   6.299  71.595  1.00  0.00    -0.133 C  
ENDBRANCH  18  19
ENDBRANCH   8   9
ENDBRANCH   7   8
ENDBRANCH   4   7
ENDBRANCH   2   4
TORSDOF 5
ENDMDL
MODEL      164
REMARK 921   NORMALIZED FREE ENERGY PREDICTED BY IDOCK:   -4.04 KCAL/MOL
REMARK 922        TOTAL FREE ENERGY PREDICTED BY IDOCK:   -5.57 KCAL/MOL
REMARK 923 INTER-LIGAND FREE ENERGY PREDICTED BY IDOCK:   -5.20 KCAL/MOL
REMARK 924 INTRA-LIGAND FREE ENERGY PREDICTED BY IDOCK:   -0.36 KCAL/MOL
REMARK 927      BINDING AFFINITY PREDICTED BY RF-SCORE:    0.00 PKD
ROOT
HETATM    1  C   UNL     1     -11.336  15.554  67.987  1.00  0.00    -0.330 C  
HETATM    2  N   UNL     1     -12.208  14.465  67.538  1.00  0.00    -0.619 N  
HETATM    3  H   UNL     1     -12.943  14.094  68.141  1.00  0.00     0.000 HD 
ENDROOT
BRANCH   2   4
HETATM    4  S   UNL     1     -11.951  13.850  65.987  1.00  0.00    -0.436 S  
HETATM    5  O   UNL     1     -10.749  14.468  65.473  1.00  0.00    -0.304 OA 
HETATM    6  O   UNL     1     -13.217  13.964  65.302  1.00  0.00    -0.774 OA 
BRANCH   4   7
HETATM    7  C   UNL     1     -11.634  12.131  66.337  1.00  0.00    -0.364 C  
BRANCH   7   8
HETATM    8  C   UNL     1     -10.684  11.524  65.315  1.00  0.00    -0.337 C  
BRANCH   8   9
HETATM    9  C   UNL     1      -9.426  10.936  65.923  1.00  0.00    -0.241 A  
HETATM   10  C   UNL     1      -9.166   9.559  65.762  1.00  0.00    -0.267 A  
HETATM   11  C   UNL     1      -8.030   8.966  66.362  1.00  0.00    -0.103 A  
HETATM   12  C   UNL     1      -7.171   9.798  67.079  1.00  0.00    -0.090 A  
HETATM   13  C   UNL     1      -7.400  11.160  67.269  1.00  0.00    -0.118 A  
HETATM   14  N   UNL     1      -6.134   9.028  67.531  1.00  0.00    -0.050 NA 
HETATM   15  C   UNL     1      -8.548  11.707  66.695  1.00  0.00    -0.179 A  
HETATM   16  H   UNL     1      -5.352   9.368  68.091  1.00  0.00     0.000 HD 
HETATM   17  C   UNL     1      -6.300   7.737  67.123  1.00  0.00    -0.055 A  
HETATM   18  C   UNL     1      -7.507   7.624  66.451  1.00  0.00    -0.084 A  
BRANCH  18  19
HETATM   19  C   UNL     1      -8.126   6.339  65.915  1.00  0.00    -0.123 C  
HETATM   20  C   UNL     1      -7.271   5.082  66.182  1.00  0.00    -0.077 C  
HETATM   21  C   UNL     1      -7.296   4.662  67.661  1.00  0.00    -0.074 C  
HETATM   22  N   UNL     1      -8.640   4.490  68.222  1.00  0.00    -0.097 NA 
HETATM   23  C   UNL     1      -9.495   5.652  67.943  1.00  0.00    -0.113 C  
HETATM   24  C   UNL     1      -9.249   3.230  67.813  1.00  0.00    -0.195 C  
HETATM   25  C   UNL     1      -9.534   6.058  66.468  1.00  0.00    -0.177 C  
ENDBRANCH  18  19
ENDBRANCH   8   9
ENDBRANCH   7   8
ENDBRANCH   4   7
ENDBRANCH   2   4
TORSDOF 5
ENDMDL
MODEL      165
REMARK 921   NORMALIZED FREE ENERGY PREDICTED BY IDOCK:   -4.01 KCAL/MOL
REMARK 922        TOTAL FREE ENERGY PREDICTED BY IDOCK:   -5.53 KCAL/MOL
REMARK 923 INTER-LIGAND FREE ENERGY PREDICTED BY IDOCK:   -5.18 KCAL/MOL
REMARK 924 INTRA-LIGAND FREE ENERGY PREDICTED BY IDOCK:   -0.35 KCAL/MOL
REMARK 927      BINDING AFFINITY PREDICTED BY RF-SCORE:    0.00 PKD
ROOT
HETATM    1  C   UNL     1     -10.934  13.913  68.653  1.00  0.00    -0.261 C  
HETATM    2  N   UNL     1     -11.989  13.334  67.818  1.00  0.00    -0.341 N  
HETATM    3  H   UNL     1     -12.931  13.186  68.183  1.00  0.00     0.000 HD 
ENDROOT
BRANCH   2   4
HETATM    4  S   UNL     1     -11.589  12.921  66.231  1.00  0.00    -0.392 S  
HETATM    5  O   UNL     1     -11.979  14.028  65.387  1.00  0.00    -0.348 OA 
HETATM    6  O   UNL     1     -12.110  11.590  66.026  1.00  0.00    -0.128 OA 
BRANCH   4   7
HETATM    7  C   UNL     1      -9.810  12.840  66.324  1.00  0.00    -0.267 C  
BRANCH   7   8
HETATM    8  C   UNL     1      -9.320  11.400  66.294  1.00  0.00    -0.228 C  
BRANCH   8   9
HETATM    9  C   UNL     1      -8.671  10.948  67.588  1.00  0.00    -0.127 A  
HETATM   10  C   UNL     1      -9.392  10.106  68.459  1.00  0.00    -0.151 A  
HETATM   11  C   UNL     1      -8.838   9.709  69.699  1.00  0.00    -0.212 A  
HETATM   12  C   UNL     1      -7.550  10.151  70.001  1.00  0.00    -0.152 A  
HETATM   13  C   UNL     1      -6.812  10.993  69.171  1.00  0.00    -0.094 A  
HETATM   14  N   UNL     1      -7.207   9.621  71.215  1.00  0.00    -0.301 NA 
HETATM   15  C   UNL     1      -7.400  11.396  67.972  1.00  0.00    -0.090 A  
HETATM   16  H   UNL     1      -6.319   9.776  71.692  1.00  0.00     0.000 HD 
HETATM   17  C   UNL     1      -8.228   8.852  71.693  1.00  0.00    -0.040 A  
HETATM   18  C   UNL     1      -9.303   8.931  70.822  1.00  0.00    -0.280 A  
BRANCH  18  19
HETATM   19  C   UNL     1     -10.677   8.305  71.024  1.00  0.00    -0.256 C  
HETATM   20  C   UNL     1     -10.844   6.938  70.328  1.00  0.00    -0.294 C  
HETATM   21  C   UNL     1     -10.058   5.822  71.036  1.00  0.00    -0.205 C  
HETATM   22  N   UNL     1     -10.338   5.698  72.471  1.00  0.00    -0.194 NA 
HETATM   23  C   UNL     1     -10.234   6.993  73.156  1.00  0.00    -0.255 C  
HETATM   24  C   UNL     1     -11.605   5.023  72.727  1.00  0.00    -0.118 C  
HETATM   25  C   UNL     1     -11.051   8.111  72.504  1.00  0.00    -0.446 C  
ENDBRANCH  18  19
ENDBRANCH   8   9
ENDBRANCH   7   8
ENDBRANCH   4   7
ENDBRANCH   2   4
TORSDOF 5
ENDMDL
MODEL      166
REMARK 921   NORMALIZED FREE ENERGY PREDICTED BY IDOCK:   -4.01 KCAL/MOL
REMARK 922        TOTAL FREE ENERGY PREDICTED BY IDOCK:   -5.52 KCAL/MOL
REMARK 923 INTER-LIGAND FREE ENERGY PREDICTED BY IDOCK:   -5.21 KCAL/MOL
REMARK 924 INTRA-LIGAND FREE ENERGY PREDICTED BY IDOCK:   -0.31 KCAL/MOL
REMARK 927      BINDING AFFINITY PREDICTED BY RF-SCORE:    0.00 PKD
ROOT
HETATM    1  C   UNL     1     -10.418  16.227  66.301  1.00  0.00    -0.308 C  
HETATM    2  N   UNL     1     -11.493  15.301  66.667  1.00  0.00    -0.186 N  
HETATM    3  H   UNL     1     -12.142  15.518  67.424  1.00  0.00     0.000 HD 
ENDROOT
BRANCH   2   4
HETATM    4  S   UNL     1     -11.617  13.864  65.790  1.00  0.00    -0.351 S  
HETATM    5  O   UNL     1     -10.407  13.732  65.008  1.00  0.00    -0.359 OA 
HETATM    6  O   UNL     1     -12.921  13.891  65.171  1.00  0.00    -0.744 OA 
BRANCH   4   7
HETATM    7  C   UNL     1     -11.618  12.651  67.096  1.00  0.00    -0.368 C  
BRANCH   7   8
HETATM    8  C   UNL     1     -10.786  11.433  66.721  1.00  0.00    -0.336 C  
BRANCH   8   9
HETATM    9  C   UNL     1      -9.634  11.165  67.669  1.00  0.00    -0.180 A  
HETATM   10  C   UNL     1      -9.758  10.136  68.626  1.00  0.00    -0.167 A  
HETATM   11  C   UNL     1      -8.725   9.894  69.561  1.00  0.00    -0.200 A  
HETATM   12  C   UNL     1      -7.578  10.682  69.473  1.00  0.00    -0.124 A  
HETATM   13  C   UNL     1      -7.423  11.714  68.549  1.00  0.00    -0.113 A  
HETATM   14  N   UNL     1      -6.707  10.252  70.437  1.00  0.00    -0.227 NA 
HETATM   15  C   UNL     1      -8.475  11.952  67.664  1.00  0.00    -0.156 A  
HETATM   16  H   UNL     1      -5.784  10.647  70.611  1.00  0.00     0.000 HD 
HETATM   17  C   UNL     1      -7.258   9.214  71.132  1.00  0.00    -0.073 A  
HETATM   18  C   UNL     1      -8.548   8.996  70.676  1.00  0.00    -0.245 A  
BRANCH  18  19
HETATM   19  C   UNL     1      -9.550   7.999  71.245  1.00  0.00    -0.191 C  
HETATM   20  C   UNL     1     -10.229   7.122  70.172  1.00  0.00    -0.204 C  
HETATM   21  C   UNL     1      -9.273   6.068  69.589  1.00  0.00    -0.138 C  
HETATM   22  N   UNL     1      -8.614   5.224  70.591  1.00  0.00    -0.119 NA 
HETATM   23  C   UNL     1      -7.998   6.028  71.654  1.00  0.00    -0.110 C  
HETATM   24  C   UNL     1      -9.503   4.190  71.108  1.00  0.00    -0.163 C  
HETATM   25  C   UNL     1      -8.944   7.049  72.292  1.00  0.00    -0.144 C  
ENDBRANCH  18  19
ENDBRANCH   8   9
ENDBRANCH   7   8
ENDBRANCH   4   7
ENDBRANCH   2   4
TORSDOF 5
ENDMDL
MODEL      167
REMARK 921   NORMALIZED FREE ENERGY PREDICTED BY IDOCK:   -3.97 KCAL/MOL
REMARK 922        TOTAL FREE ENERGY PREDICTED BY IDOCK:   -5.48 KCAL/MOL
REMARK 923 INTER-LIGAND FREE ENERGY PREDICTED BY IDOCK:   -4.92 KCAL/MOL
REMARK 924 INTRA-LIGAND FREE ENERGY PREDICTED BY IDOCK:   -0.56 KCAL/MOL
REMARK 927      BINDING AFFINITY PREDICTED BY RF-SCORE:    0.00 PKD
ROOT
HETATM    1  C   UNL     1      -8.324   7.977  65.860  1.00  0.00    -0.134 C  
HETATM    2  N   UNL     1      -9.075   6.755  65.562  1.00  0.00    -0.368 N  
HETATM    3  H   UNL     1      -9.093   6.362  64.620  1.00  0.00     0.000 HD 
ENDROOT
BRANCH   2   4
HETATM    4  S   UNL     1      -9.908   6.022  66.834  1.00  0.00    -0.171 S  
HETATM    5  O   UNL     1      -9.491   4.638  66.880  1.00  0.00    -0.140 OA 
HETATM    6  O   UNL     1     -11.294   6.392  66.663  1.00  0.00    -0.171 OA 
BRANCH   4   7
HETATM    7  C   UNL     1      -9.244   6.893  68.240  1.00  0.00    -0.123 C  
BRANCH   7   8
HETATM    8  C   UNL     1     -10.200   6.844  69.423  1.00  0.00    -0.194 C  
BRANCH   8   9
HETATM    9  C   UNL     1     -10.841   8.179  69.746  1.00  0.00    -0.190 A  
HETATM   10  C   UNL     1     -10.580   9.285  68.910  1.00  0.00    -0.222 A  
HETATM   11  C   UNL     1     -11.118  10.559  69.212  1.00  0.00    -0.298 A  
HETATM   12  C   UNL     1     -11.935  10.663  70.337  1.00  0.00    -0.346 A  
HETATM   13  C   UNL     1     -12.206   9.597  71.193  1.00  0.00    -0.437 A  
HETATM   14  N   UNL     1     -12.368  11.959  70.412  1.00  0.00    -0.286 NA 
HETATM   15  C   UNL     1     -11.632   8.362  70.887  1.00  0.00    -0.288 A  
HETATM   16  H   UNL     1     -12.980  12.331  71.138  1.00  0.00     0.000 HD 
HETATM   17  C   UNL     1     -11.860  12.681  69.371  1.00  0.00    -0.296 A  
HETATM   18  C   UNL     1     -11.011  11.875  68.630  1.00  0.00    -0.271 A  
BRANCH  18  19
HETATM   19  C   UNL     1     -10.161  12.309  67.443  1.00  0.00    -0.213 C  
HETATM   20  C   UNL     1      -9.751  13.796  67.486  1.00  0.00    -0.230 C  
HETATM   21  C   UNL     1      -8.681  14.076  68.554  1.00  0.00    -0.156 C  
HETATM   22  N   UNL     1      -7.490  13.224  68.461  1.00  0.00    -0.113 NA 
HETATM   23  C   UNL     1      -7.850  11.802  68.370  1.00  0.00    -0.141 C  
HETATM   24  C   UNL     1      -6.593  13.649  67.393  1.00  0.00     0.030 C  
HETATM   25  C   UNL     1      -8.873  11.486  67.276  1.00  0.00    -0.160 C  
ENDBRANCH  18  19
ENDBRANCH   8   9
ENDBRANCH   7   8
ENDBRANCH   4   7
ENDBRANCH   2   4
TORSDOF 5
ENDMDL
MODEL      168
REMARK 921   NORMALIZED FREE ENERGY PREDICTED BY IDOCK:   -3.97 KCAL/MOL
REMARK 922        TOTAL FREE ENERGY PREDICTED BY IDOCK:   -5.47 KCAL/MOL
REMARK 923 INTER-LIGAND FREE ENERGY PREDICTED BY IDOCK:   -5.19 KCAL/MOL
REMARK 924 INTRA-LIGAND FREE ENERGY PREDICTED BY IDOCK:   -0.28 KCAL/MOL
REMARK 927      BINDING AFFINITY PREDICTED BY RF-SCORE:    0.00 PKD
ROOT
HETATM    1  C   UNL     1     -12.202  13.843  69.323  1.00  0.00    -0.277 C  
HETATM    2  N   UNL     1     -11.930  14.493  68.038  1.00  0.00    -0.522 N  
HETATM    3  H   UNL     1     -11.702  15.486  67.985  1.00  0.00     0.000 HD 
ENDROOT
BRANCH   2   4
HETATM    4  S   UNL     1     -12.007  13.536  66.649  1.00  0.00    -0.396 S  
HETATM    5  O   UNL     1     -12.882  14.207  65.713  1.00  0.00    -0.502 OA 
HETATM    6  O   UNL     1     -12.273  12.194  67.109  1.00  0.00    -0.507 OA 
BRANCH   4   7
HETATM    7  C   UNL     1     -10.326  13.627  66.064  1.00  0.00    -0.304 C  
BRANCH   7   8
HETATM    8  C   UNL     1      -9.392  12.795  66.932  1.00  0.00    -0.234 C  
BRANCH   8   9
HETATM    9  C   UNL     1      -9.360  11.326  66.560  1.00  0.00    -0.201 A  
HETATM   10  C   UNL     1      -9.329  10.358  67.587  1.00  0.00    -0.161 A  
HETATM   11  C   UNL     1      -9.245   8.981  67.276  1.00  0.00    -0.159 A  
HETATM   12  C   UNL     1      -9.230   8.624  65.929  1.00  0.00    -0.202 A  
HETATM   13  C   UNL     1      -9.248   9.550  64.887  1.00  0.00    -0.284 A  
HETATM   14  N   UNL     1      -9.185   7.257  65.865  1.00  0.00    -0.379 NA 
HETATM   15  C   UNL     1      -9.295  10.902  65.227  1.00  0.00    -0.246 A  
HETATM   16  H   UNL     1      -9.161   6.711  65.004  1.00  0.00     0.000 HD 
HETATM   17  C   UNL     1      -9.175   6.733  67.125  1.00  0.00    -0.134 A  
HETATM   18  C   UNL     1      -9.137   7.766  68.048  1.00  0.00    -0.128 A  
BRANCH  18  19
HETATM   19  C   UNL     1      -9.017   7.623  69.559  1.00  0.00    -0.139 C  
HETATM   20  C   UNL     1      -8.464   6.255  70.010  1.00  0.00    -0.134 C  
HETATM   21  C   UNL     1      -6.961   6.109  69.721  1.00  0.00    -0.070 C  
HETATM   22  N   UNL     1      -6.130   7.194  70.256  1.00  0.00    -0.024 NA 
HETATM   23  C   UNL     1      -6.659   8.513  69.884  1.00  0.00    -0.042 C  
HETATM   24  C   UNL     1      -5.908   7.059  71.691  1.00  0.00    -0.037 C  
HETATM   25  C   UNL     1      -8.142   8.706  70.212  1.00  0.00    -0.109 C  
ENDBRANCH  18  19
ENDBRANCH   8   9
ENDBRANCH   7   8
ENDBRANCH   4   7
ENDBRANCH   2   4
TORSDOF 5
ENDMDL
MODEL      169
REMARK 921   NORMALIZED FREE ENERGY PREDICTED BY IDOCK:   -3.93 KCAL/MOL
REMARK 922        TOTAL FREE ENERGY PREDICTED BY IDOCK:   -5.42 KCAL/MOL
REMARK 923 INTER-LIGAND FREE ENERGY PREDICTED BY IDOCK:   -4.98 KCAL/MOL
REMARK 924 INTRA-LIGAND FREE ENERGY PREDICTED BY IDOCK:   -0.44 KCAL/MOL
REMARK 927      BINDING AFFINITY PREDICTED BY RF-SCORE:    0.00 PKD
ROOT
HETATM    1  C   UNL     1      -6.901   8.097  63.062  1.00  0.00    -0.086 C  
HETATM    2  N   UNL     1      -8.172   8.823  63.125  1.00  0.00    -0.181 N  
HETATM    3  H   UNL     1      -8.810   8.843  62.329  1.00  0.00     0.000 HD 
ENDROOT
BRANCH   2   4
HETATM    4  S   UNL     1      -8.541   9.625  64.564  1.00  0.00    -0.203 S  
HETATM    5  O   UNL     1      -9.810  10.293  64.371  1.00  0.00    -0.327 OA 
HETATM    6  O   UNL     1      -7.348  10.353  64.927  1.00  0.00    -0.134 OA 
BRANCH   4   7
HETATM    7  C   UNL     1      -8.751   8.257  65.687  1.00  0.00    -0.156 C  
BRANCH   7   8
HETATM    8  C   UNL     1      -8.158   8.568  67.054  1.00  0.00    -0.103 C  
BRANCH   8   9
HETATM    9  C   UNL     1      -9.195   8.904  68.108  1.00  0.00    -0.145 A  
HETATM   10  C   UNL     1      -9.959  10.082  67.966  1.00  0.00    -0.176 A  
HETATM   11  C   UNL     1     -10.897  10.454  68.957  1.00  0.00    -0.273 A  
HETATM   12  C   UNL     1     -11.057   9.599  70.047  1.00  0.00    -0.255 A  
HETATM   13  C   UNL     1     -10.313   8.434  70.227  1.00  0.00    -0.212 A  
HETATM   14  N   UNL     1     -12.031  10.132  70.849  1.00  0.00    -0.336 NA 
HETATM   15  C   UNL     1      -9.370   8.113  69.250  1.00  0.00    -0.151 A  
HETATM   16  H   UNL     1     -12.358   9.722  71.724  1.00  0.00     0.000 HD 
HETATM   17  C   UNL     1     -12.499  11.292  70.304  1.00  0.00    -0.250 A  
HETATM   18  C   UNL     1     -11.775  11.582  69.159  1.00  0.00    -0.395 A  
BRANCH  18  19
HETATM   19  C   UNL     1     -11.906  12.833  68.301  1.00  0.00    -0.357 C  
HETATM   20  C   UNL     1     -12.385  14.074  69.083  1.00  0.00    -0.169 C  
HETATM   21  C   UNL     1     -11.296  14.635  70.011  1.00  0.00    -0.242 C  
HETATM   22  N   UNL     1     -10.017  14.916  69.349  1.00  0.00    -0.178 NA 
HETATM   23  C   UNL     1      -9.557  13.769  68.556  1.00  0.00    -0.176 C  
HETATM   24  C   UNL     1     -10.057  16.155  68.581  1.00  0.00    -0.231 C  
HETATM   25  C   UNL     1     -10.604  13.223  67.581  1.00  0.00    -0.242 C  
ENDBRANCH  18  19
ENDBRANCH   8   9
ENDBRANCH   7   8
ENDBRANCH   4   7
ENDBRANCH   2   4
TORSDOF 5
ENDMDL
MODEL      170
REMARK 921   NORMALIZED FREE ENERGY PREDICTED BY IDOCK:   -3.91 KCAL/MOL
REMARK 922        TOTAL FREE ENERGY PREDICTED BY IDOCK:   -5.39 KCAL/MOL
REMARK 923 INTER-LIGAND FREE ENERGY PREDICTED BY IDOCK:   -5.09 KCAL/MOL
REMARK 924 INTRA-LIGAND FREE ENERGY PREDICTED BY IDOCK:   -0.30 KCAL/MOL
REMARK 927      BINDING AFFINITY PREDICTED BY RF-SCORE:    0.00 PKD
ROOT
HETATM    1  C   UNL     1     -12.677  15.777  73.525  1.00  0.00    -0.575 C  
HETATM    2  N   UNL     1     -12.793  14.511  72.798  1.00  0.00    -0.423 N  
HETATM    3  H   UNL     1     -12.700  13.615  73.277  1.00  0.00     0.000 HD 
ENDROOT
BRANCH   2   4
HETATM    4  S   UNL     1     -13.086  14.590  71.137  1.00  0.00    -0.364 S  
HETATM    5  O   UNL     1     -14.029  15.664  70.918  1.00  0.00    -0.479 OA 
HETATM    6  O   UNL     1     -13.367  13.236  70.721  1.00  0.00     0.083 OA 
BRANCH   4   7
HETATM    7  C   UNL     1     -11.484  15.067  70.518  1.00  0.00    -0.290 C  
BRANCH   7   8
HETATM    8  C   UNL     1     -11.424  14.963  69.000  1.00  0.00    -0.322 C  
BRANCH   8   9
HETATM    9  C   UNL     1     -10.228  14.184  68.488  1.00  0.00    -0.247 A  
HETATM   10  C   UNL     1     -10.186  12.787  68.681  1.00  0.00    -0.162 A  
HETATM   11  C   UNL     1      -9.062  12.036  68.264  1.00  0.00    -0.190 A  
HETATM   12  C   UNL     1      -8.027  12.723  67.629  1.00  0.00    -0.165 A  
HETATM   13  C   UNL     1      -8.029  14.103  67.430  1.00  0.00    -0.201 A  
HETATM   14  N   UNL     1      -7.075  11.804  67.282  1.00  0.00    -0.130 NA 
HETATM   15  C   UNL     1      -9.136  14.820  67.886  1.00  0.00    -0.183 A  
HETATM   16  H   UNL     1      -6.199  12.019  66.805  1.00  0.00     0.000 HD 
HETATM   17  C   UNL     1      -7.469  10.556  67.669  1.00  0.00    -0.092 A  
HETATM   18  C   UNL     1      -8.670  10.651  68.355  1.00  0.00    -0.141 A  
BRANCH  18  19
HETATM   19  C   UNL     1      -9.409   9.510  69.042  1.00  0.00    -0.155 C  
HETATM   20  C   UNL     1     -10.720   9.106  68.335  1.00  0.00    -0.163 C  
HETATM   21  C   UNL     1     -10.464   8.355  67.017  1.00  0.00    -0.305 C  
HETATM   22  N   UNL     1      -9.576   7.194  67.141  1.00  0.00    -0.143 NA 
HETATM   23  C   UNL     1      -8.338   7.536  67.853  1.00  0.00    -0.123 C  
HETATM   24  C   UNL     1     -10.257   6.039  67.713  1.00  0.00    -0.179 C  
HETATM   25  C   UNL     1      -8.563   8.235  69.196  1.00  0.00    -0.138 C  
ENDBRANCH  18  19
ENDBRANCH   8   9
ENDBRANCH   7   8
ENDBRANCH   4   7
ENDBRANCH   2   4
TORSDOF 5
ENDMDL
MODEL      171
REMARK 921   NORMALIZED FREE ENERGY PREDICTED BY IDOCK:   -3.90 KCAL/MOL
REMARK 922        TOTAL FREE ENERGY PREDICTED BY IDOCK:   -5.38 KCAL/MOL
REMARK 923 INTER-LIGAND FREE ENERGY PREDICTED BY IDOCK:   -5.12 KCAL/MOL
REMARK 924 INTRA-LIGAND FREE ENERGY PREDICTED BY IDOCK:   -0.26 KCAL/MOL
REMARK 927      BINDING AFFINITY PREDICTED BY RF-SCORE:    0.00 PKD
ROOT
HETATM    1  C   UNL     1      -7.754  17.643  68.781  1.00  0.00    -0.246 C  
HETATM    2  N   UNL     1      -7.880  16.699  67.667  1.00  0.00    -0.170 N  
HETATM    3  H   UNL     1      -7.079  16.159  67.338  1.00  0.00     0.000 HD 
ENDROOT
BRANCH   2   4
HETATM    4  S   UNL     1      -9.399  16.538  66.949  1.00  0.00    -0.243 S  
HETATM    5  O   UNL     1      -9.316  17.127  65.630  1.00  0.00    -0.515 OA 
HETATM    6  O   UNL     1     -10.351  17.006  67.930  1.00  0.00    -0.308 OA 
BRANCH   4   7
HETATM    7  C   UNL     1      -9.537  14.767  66.805  1.00  0.00    -0.254 C  
BRANCH   7   8
HETATM    8  C   UNL     1      -9.730  14.115  68.166  1.00  0.00    -0.225 C  
BRANCH   8   9
HETATM    9  C   UNL     1      -9.501  12.616  68.163  1.00  0.00    -0.218 A  
HETATM   10  C   UNL     1     -10.016  11.841  69.223  1.00  0.00     0.279 A  
HETATM   11  C   UNL     1      -9.776  10.448  69.280  1.00  0.00    -0.231 A  
HETATM   12  C   UNL     1      -9.049   9.876  68.236  1.00  0.00    -0.122 A  
HETATM   13  C   UNL     1      -8.516  10.610  67.178  1.00  0.00    -0.128 A  
HETATM   14  N   UNL     1      -8.974   8.531  68.476  1.00  0.00    -0.139 NA 
HETATM   15  C   UNL     1      -8.739  11.987  67.170  1.00  0.00    -0.183 A  
HETATM   16  H   UNL     1      -8.496   7.856  67.880  1.00  0.00     0.000 HD 
HETATM   17  C   UNL     1      -9.631   8.227  69.633  1.00  0.00    -0.167 A  
HETATM   18  C   UNL     1     -10.089   9.397  70.217  1.00  0.00    -0.288 A  
BRANCH  18  19
HETATM   19  C   UNL     1     -10.788   9.519  71.565  1.00  0.00    -0.321 C  
HETATM   20  C   UNL     1     -12.006  10.466  71.548  1.00  0.00    -0.300 C  
HETATM   21  C   UNL     1     -13.207   9.860  70.805  1.00  0.00    -0.172 C  
HETATM   22  N   UNL     1     -13.606   8.529  71.277  1.00  0.00    -0.203 NA 
HETATM   23  C   UNL     1     -12.458   7.615  71.350  1.00  0.00    -0.333 C  
HETATM   24  C   UNL     1     -14.359   8.591  72.524  1.00  0.00    -0.233 C  
HETATM   25  C   UNL     1     -11.266   8.172  72.133  1.00  0.00    -0.393 C  
ENDBRANCH  18  19
ENDBRANCH   8   9
ENDBRANCH   7   8
ENDBRANCH   4   7
ENDBRANCH   2   4
TORSDOF 5
ENDMDL
MODEL      172
REMARK 921   NORMALIZED FREE ENERGY PREDICTED BY IDOCK:   -3.80 KCAL/MOL
REMARK 922        TOTAL FREE ENERGY PREDICTED BY IDOCK:   -5.26 KCAL/MOL
REMARK 923 INTER-LIGAND FREE ENERGY PREDICTED BY IDOCK:   -5.04 KCAL/MOL
REMARK 924 INTRA-LIGAND FREE ENERGY PREDICTED BY IDOCK:   -0.22 KCAL/MOL
REMARK 927      BINDING AFFINITY PREDICTED BY RF-SCORE:    0.00 PKD
ROOT
HETATM    1  C   UNL     1      -9.476  13.109  66.811  1.00  0.00    -0.252 C  
HETATM    2  N   UNL     1      -8.788  12.798  68.066  1.00  0.00    -0.189 N  
HETATM    3  H   UNL     1      -8.963  13.339  68.913  1.00  0.00     0.000 HD 
ENDROOT
BRANCH   2   4
HETATM    4  S   UNL     1      -7.697  11.510  68.057  1.00  0.00    -0.127 S  
HETATM    5  O   UNL     1      -6.442  12.006  68.580  1.00  0.00    -0.052 OA 
HETATM    6  O   UNL     1      -7.791  10.921  66.742  1.00  0.00    -0.127 OA 
BRANCH   4   7
HETATM    7  C   UNL     1      -8.442  10.406  69.242  1.00  0.00    -0.154 C  
BRANCH   7   8
HETATM    8  C   UNL     1      -9.952  10.591  69.296  1.00  0.00    -0.233 C  
BRANCH   8   9
HETATM    9  C   UNL     1     -10.654   9.611  70.215  1.00  0.00    -0.333 A  
HETATM   10  C   UNL     1     -10.182   8.283  70.292  1.00  0.00    -0.199 A  
HETATM   11  C   UNL     1     -10.846   7.329  71.097  1.00  0.00    -0.260 A  
HETATM   12  C   UNL     1     -11.950   7.760  71.831  1.00  0.00    -0.301 A  
HETATM   13  C   UNL     1     -12.452   9.059  71.773  1.00  0.00    -0.438 A  
HETATM   14  N   UNL     1     -12.404   6.693  72.558  1.00  0.00    -0.503 NA 
HETATM   15  C   UNL     1     -11.797   9.968  70.941  1.00  0.00    -0.459 A  
HETATM   16  H   UNL     1     -13.206   6.712  73.187  1.00  0.00     0.000 HD 
HETATM   17  C   UNL     1     -11.624   5.600  72.317  1.00  0.00    -0.181 A  
HETATM   18  C   UNL     1     -10.679   5.919  71.355  1.00  0.00    -0.319 A  
BRANCH  18  19
HETATM   19  C   UNL     1      -9.674   4.963  70.725  1.00  0.00    -0.268 C  
HETATM   20  C   UNL     1      -8.206   5.297  71.060  1.00  0.00    -0.116 C  
HETATM   21  C   UNL     1      -7.848   4.961  72.517  1.00  0.00    -0.093 C  
HETATM   22  N   UNL     1      -8.159   3.584  72.917  1.00  0.00    -0.079 NA 
HETATM   23  C   UNL     1      -9.538   3.218  72.567  1.00  0.00    -0.128 C  
HETATM   24  C   UNL     1      -7.177   2.631  72.414  1.00  0.00    -0.038 C  
HETATM   25  C   UNL     1      -9.905   3.491  71.106  1.00  0.00    -0.185 C  
ENDBRANCH  18  19
ENDBRANCH   8   9
ENDBRANCH   7   8
ENDBRANCH   4   7
ENDBRANCH   2   4
TORSDOF 5
ENDMDL
MODEL      173
REMARK 921   NORMALIZED FREE ENERGY PREDICTED BY IDOCK:   -3.80 KCAL/MOL
REMARK 922        TOTAL FREE ENERGY PREDICTED BY IDOCK:   -5.26 KCAL/MOL
REMARK 923 INTER-LIGAND FREE ENERGY PREDICTED BY IDOCK:   -4.65 KCAL/MOL
REMARK 924 INTRA-LIGAND FREE ENERGY PREDICTED BY IDOCK:   -0.60 KCAL/MOL
REMARK 927      BINDING AFFINITY PREDICTED BY RF-SCORE:    0.00 PKD
ROOT
HETATM    1  C   UNL     1      -9.477  10.098  64.906  1.00  0.00    -0.289 C  
HETATM    2  N   UNL     1      -9.045   8.971  64.075  1.00  0.00    -0.386 N  
HETATM    3  H   UNL     1      -9.719   8.303  63.699  1.00  0.00     0.000 HD 
ENDROOT
BRANCH   2   4
HETATM    4  S   UNL     1      -7.393   8.820  63.764  1.00  0.00    -0.103 S  
HETATM    5  O   UNL     1      -6.920  10.111  63.316  1.00  0.00    -0.129 OA 
HETATM    6  O   UNL     1      -7.252   7.636  62.949  1.00  0.00    -0.078 OA 
BRANCH   4   7
HETATM    7  C   UNL     1      -6.755   8.483  65.394  1.00  0.00    -0.063 C  
BRANCH   7   8
HETATM    8  C   UNL     1      -6.826   6.998  65.719  1.00  0.00    -0.056 C  
BRANCH   8   9
HETATM    9  C   UNL     1      -7.979   6.626  66.629  1.00  0.00    -0.105 A  
HETATM   10  C   UNL     1      -8.465   7.582  67.547  1.00  0.00    -0.119 A  
HETATM   11  C   UNL     1      -9.504   7.252  68.448  1.00  0.00    -0.142 A  
HETATM   12  C   UNL     1     -10.046   5.970  68.366  1.00  0.00    -0.164 A  
HETATM   13  C   UNL     1      -9.586   4.996  67.481  1.00  0.00    -0.169 A  
HETATM   14  N   UNL     1     -11.050   5.887  69.292  1.00  0.00    -0.345 NA 
HETATM   15  C   UNL     1      -8.535   5.341  66.630  1.00  0.00    -0.107 A  
HETATM   16  H   UNL     1     -11.623   5.061  69.462  1.00  0.00     0.000 HD 
HETATM   17  C   UNL     1     -11.169   7.072  69.957  1.00  0.00    -0.269 A  
HETATM   18  C   UNL     1     -10.179   7.939  69.522  1.00  0.00    -0.208 A  
BRANCH  18  19
HETATM   19  C   UNL     1      -9.892   9.330  70.072  1.00  0.00    -0.232 C  
HETATM   20  C   UNL     1      -9.829  10.425  68.986  1.00  0.00    -0.222 C  
HETATM   21  C   UNL     1     -11.217  10.765  68.419  1.00  0.00    -0.284 C  
HETATM   22  N   UNL     1     -12.220  11.113  69.431  1.00  0.00    -0.332 NA 
HETATM   23  C   UNL     1     -12.271  10.112  70.506  1.00  0.00    -0.264 C  
HETATM   24  C   UNL     1     -12.048  12.471  69.932  1.00  0.00    -0.252 C  
HETATM   25  C   UNL     1     -10.909   9.795  71.129  1.00  0.00    -0.333 C  
ENDBRANCH  18  19
ENDBRANCH   8   9
ENDBRANCH   7   8
ENDBRANCH   4   7
ENDBRANCH   2   4
TORSDOF 5
ENDMDL
MODEL      174
REMARK 921   NORMALIZED FREE ENERGY PREDICTED BY IDOCK:   -3.79 KCAL/MOL
REMARK 922        TOTAL FREE ENERGY PREDICTED BY IDOCK:   -5.24 KCAL/MOL
REMARK 923 INTER-LIGAND FREE ENERGY PREDICTED BY IDOCK:   -4.93 KCAL/MOL
REMARK 924 INTRA-LIGAND FREE ENERGY PREDICTED BY IDOCK:   -0.31 KCAL/MOL
REMARK 927      BINDING AFFINITY PREDICTED BY RF-SCORE:    0.00 PKD
ROOT
HETATM    1  C   UNL     1      -6.819  11.111  66.455  1.00  0.00    -0.126 C  
HETATM    2  N   UNL     1      -7.955  11.121  67.382  1.00  0.00    -0.121 N  
HETATM    3  H   UNL     1      -7.826  10.938  68.378  1.00  0.00     0.000 HD 
ENDROOT
BRANCH   2   4
HETATM    4  S   UNL     1      -9.481  11.448  66.740  1.00  0.00    -0.186 S  
HETATM    5  O   UNL     1      -9.672  10.562  65.613  1.00  0.00    -0.204 OA 
HETATM    6  O   UNL     1      -9.551  12.883  66.598  1.00  0.00    -0.245 OA 
BRANCH   4   7
HETATM    7  C   UNL     1     -10.543  10.944  68.080  1.00  0.00    -0.198 C  
BRANCH   7   8
HETATM    8  C   UNL     1     -10.500   9.437  68.283  1.00  0.00    -0.260 C  
BRANCH   8   9
HETATM    9  C   UNL     1     -10.740   9.007  69.717  1.00  0.00    -0.233 A  
HETATM   10  C   UNL     1      -9.929   7.996  70.275  1.00  0.00    -0.189 A  
HETATM   11  C   UNL     1     -10.159   7.532  71.592  1.00  0.00    -0.204 A  
HETATM   12  C   UNL     1     -11.185   8.137  72.317  1.00  0.00    -0.359 A  
HETATM   13  C   UNL     1     -12.014   9.130  71.797  1.00  0.00    -0.449 A  
HETATM   14  N   UNL     1     -11.201   7.566  73.561  1.00  0.00    -0.573 NA 
HETATM   15  C   UNL     1     -11.784   9.539  70.483  1.00  0.00    -0.285 A  
HETATM   16  H   UNL     1     -11.852   7.808  74.308  1.00  0.00     0.000 HD 
HETATM   17  C   UNL     1     -10.219   6.624  73.654  1.00  0.00    -0.302 A  
HETATM   18  C   UNL     1      -9.583   6.507  72.428  1.00  0.00    -0.148 A  
BRANCH  18  19
HETATM   19  C   UNL     1      -8.495   5.505  72.067  1.00  0.00    -0.127 C  
HETATM   20  C   UNL     1      -8.475   4.258  72.976  1.00  0.00    -0.094 C  
HETATM   21  C   UNL     1      -9.655   3.313  72.696  1.00  0.00    -0.123 C  
HETATM   22  N   UNL     1      -9.797   2.915  71.292  1.00  0.00    -0.127 NA 
HETATM   23  C   UNL     1      -9.772   4.078  70.395  1.00  0.00    -0.193 C  
HETATM   24  C   UNL     1      -8.834   1.888  70.912  1.00  0.00    -0.060 C  
HETATM   25  C   UNL     1      -8.575   5.008  70.613  1.00  0.00    -0.125 C  
ENDBRANCH  18  19
ENDBRANCH   8   9
ENDBRANCH   7   8
ENDBRANCH   4   7
ENDBRANCH   2   4
TORSDOF 5
ENDMDL
MODEL      175
REMARK 921   NORMALIZED FREE ENERGY PREDICTED BY IDOCK:   -3.74 KCAL/MOL
REMARK 922        TOTAL FREE ENERGY PREDICTED BY IDOCK:   -5.18 KCAL/MOL
REMARK 923 INTER-LIGAND FREE ENERGY PREDICTED BY IDOCK:   -4.78 KCAL/MOL
REMARK 924 INTRA-LIGAND FREE ENERGY PREDICTED BY IDOCK:   -0.40 KCAL/MOL
REMARK 927      BINDING AFFINITY PREDICTED BY RF-SCORE:    0.00 PKD
ROOT
HETATM    1  C   UNL     1     -13.140   7.062  71.488  1.00  0.00    -0.339 C  
HETATM    2  N   UNL     1     -12.062   7.563  70.631  1.00  0.00    -0.513 N  
HETATM    3  H   UNL     1     -12.220   8.328  69.974  1.00  0.00     0.000 HD 
ENDROOT
BRANCH   2   4
HETATM    4  S   UNL     1     -10.549   6.826  70.771  1.00  0.00    -0.229 S  
HETATM    5  O   UNL     1     -10.667   5.494  70.220  1.00  0.00    -0.294 OA 
HETATM    6  O   UNL     1     -10.127   7.049  72.134  1.00  0.00    -0.180 OA 
BRANCH   4   7
HETATM    7  C   UNL     1      -9.562   7.836  69.684  1.00  0.00    -0.163 C  
BRANCH   7   8
HETATM    8  C   UNL     1     -10.352   9.030  69.169  1.00  0.00    -0.229 C  
BRANCH   8   9
HETATM    9  C   UNL     1     -10.120   9.329  67.701  1.00  0.00    -0.266 A  
HETATM   10  C   UNL     1      -9.323   8.449  66.939  1.00  0.00    -0.221 A  
HETATM   11  C   UNL     1      -9.042   8.725  65.581  1.00  0.00    -0.247 A  
HETATM   12  C   UNL     1      -9.610   9.870  65.025  1.00  0.00    -0.297 A  
HETATM   13  C   UNL     1     -10.393  10.769  65.747  1.00  0.00    -0.295 A  
HETATM   14  N   UNL     1      -9.240   9.916  63.708  1.00  0.00    -0.306 NA 
HETATM   15  C   UNL     1     -10.622  10.487  67.095  1.00  0.00    -0.319 A  
HETATM   16  H   UNL     1      -9.507  10.648  63.049  1.00  0.00     0.000 HD 
HETATM   17  C   UNL     1      -8.462   8.837  63.405  1.00  0.00    -0.111 A  
HETATM   18  C   UNL     1      -8.243   8.097  64.557  1.00  0.00    -0.118 A  
BRANCH  18  19
HETATM   19  C   UNL     1      -7.349   6.870  64.685  1.00  0.00    -0.090 C  
HETATM   20  C   UNL     1      -7.949   5.755  65.567  1.00  0.00    -0.115 C  
HETATM   21  C   UNL     1      -9.114   5.028  64.876  1.00  0.00    -0.077 C  
HETATM   22  N   UNL     1      -8.800   4.504  63.543  1.00  0.00    -0.138 NA 
HETATM   23  C   UNL     1      -8.182   5.530  62.692  1.00  0.00    -0.106 C  
HETATM   24  C   UNL     1      -8.017   3.276  63.605  1.00  0.00    -0.081 C  
HETATM   25  C   UNL     1      -6.982   6.233  63.333  1.00  0.00    -0.046 C  
ENDBRANCH  18  19
ENDBRANCH   8   9
ENDBRANCH   7   8
ENDBRANCH   4   7
ENDBRANCH   2   4
TORSDOF 5
ENDMDL
MODEL      176
REMARK 921   NORMALIZED FREE ENERGY PREDICTED BY IDOCK:   -3.74 KCAL/MOL
REMARK 922        TOTAL FREE ENERGY PREDICTED BY IDOCK:   -5.18 KCAL/MOL
REMARK 923 INTER-LIGAND FREE ENERGY PREDICTED BY IDOCK:   -4.81 KCAL/MOL
REMARK 924 INTRA-LIGAND FREE ENERGY PREDICTED BY IDOCK:   -0.37 KCAL/MOL
REMARK 927      BINDING AFFINITY PREDICTED BY RF-SCORE:    0.00 PKD
ROOT
HETATM    1  C   UNL     1     -12.667  10.865  71.511  1.00  0.00    -0.428 C  
HETATM    2  N   UNL     1     -13.084   9.725  72.332  1.00  0.00    -0.502 N  
HETATM    3  H   UNL     1     -13.737   9.842  73.107  1.00  0.00     0.000 HD 
ENDROOT
BRANCH   2   4
HETATM    4  S   UNL     1     -12.444   8.211  71.945  1.00  0.00    -0.344 S  
HETATM    5  O   UNL     1     -13.550   7.360  71.567  1.00  0.00    -0.380 OA 
HETATM    6  O   UNL     1     -11.559   7.867  73.034  1.00  0.00    -0.351 OA 
BRANCH   4   7
HETATM    7  C   UNL     1     -11.468   8.597  70.504  1.00  0.00    -0.188 C  
BRANCH   7   8
HETATM    8  C   UNL     1     -10.114   7.905  70.552  1.00  0.00    -0.192 C  
BRANCH   8   9
HETATM    9  C   UNL     1      -9.810   7.072  69.322  1.00  0.00    -0.159 A  
HETATM   10  C   UNL     1      -9.064   7.647  68.271  1.00  0.00    -0.136 A  
HETATM   11  C   UNL     1      -8.808   6.917  67.087  1.00  0.00    -0.120 A  
HETATM   12  C   UNL     1      -9.288   5.610  67.019  1.00  0.00    -0.118 A  
HETATM   13  C   UNL     1     -10.037   5.012  68.030  1.00  0.00    -0.169 A  
HETATM   14  N   UNL     1      -8.895   5.089  65.815  1.00  0.00    -0.134 NA 
HETATM   15  C   UNL     1     -10.304   5.770  69.171  1.00  0.00    -0.316 A  
HETATM   16  H   UNL     1      -9.107   4.147  65.488  1.00  0.00     0.000 HD 
HETATM   17  C   UNL     1      -8.178   6.017  65.118  1.00  0.00    -0.142 A  
HETATM   18  C   UNL     1      -8.155   7.205  65.833  1.00  0.00    -0.122 A  
BRANCH  18  19
HETATM   19  C   UNL     1      -7.548   8.523  65.372  1.00  0.00    -0.088 C  
HETATM   20  C   UNL     1      -7.092   8.515  63.898  1.00  0.00    -0.091 C  
HETATM   21  C   UNL     1      -8.278   8.540  62.920  1.00  0.00    -0.172 C  
HETATM   22  N   UNL     1      -9.233   9.630  63.149  1.00  0.00    -0.204 NA 
HETATM   23  C   UNL     1      -9.651   9.695  64.556  1.00  0.00    -0.024 C  
HETATM   24  C   UNL     1      -8.740  10.906  62.646  1.00  0.00    -0.278 C  
HETATM   25  C   UNL     1      -8.488   9.728  65.551  1.00  0.00    -0.150 C  
ENDBRANCH  18  19
ENDBRANCH   8   9
ENDBRANCH   7   8
ENDBRANCH   4   7
ENDBRANCH   2   4
TORSDOF 5
ENDMDL
MODEL      177
REMARK 921   NORMALIZED FREE ENERGY PREDICTED BY IDOCK:   -3.72 KCAL/MOL
REMARK 922        TOTAL FREE ENERGY PREDICTED BY IDOCK:   -5.14 KCAL/MOL
REMARK 923 INTER-LIGAND FREE ENERGY PREDICTED BY IDOCK:   -4.89 KCAL/MOL
REMARK 924 INTRA-LIGAND FREE ENERGY PREDICTED BY IDOCK:   -0.26 KCAL/MOL
REMARK 927      BINDING AFFINITY PREDICTED BY RF-SCORE:    0.00 PKD
ROOT
HETATM    1  C   UNL     1     -12.512  15.505  74.553  1.00  0.00    -0.552 C  
HETATM    2  N   UNL     1     -13.558  15.729  73.552  1.00  0.00    -0.663 N  
HETATM    3  H   UNL     1     -14.462  16.126  73.812  1.00  0.00     0.000 HD 
ENDROOT
BRANCH   2   4
HETATM    4  S   UNL     1     -13.212  15.306  71.955  1.00  0.00    -0.449 S  
HETATM    5  O   UNL     1     -14.334  15.729  71.146  1.00  0.00    -0.401 OA 
HETATM    6  O   UNL     1     -12.782  13.928  71.996  1.00  0.00    -0.303 OA 
BRANCH   4   7
HETATM    7  C   UNL     1     -11.804  16.344  71.612  1.00  0.00    -0.287 C  
BRANCH   7   8
HETATM    8  C   UNL     1     -10.734  15.586  70.839  1.00  0.00    -0.140 C  
BRANCH   8   9
HETATM    9  C   UNL     1     -10.599  16.024  69.394  1.00  0.00    -0.275 A  
HETATM   10  C   UNL     1     -10.690  15.054  68.372  1.00  0.00    -0.245 A  
HETATM   11  C   UNL     1     -10.516  15.418  67.017  1.00  0.00    -0.295 A  
HETATM   12  C   UNL     1     -10.291  16.765  66.735  1.00  0.00    -0.293 A  
HETATM   13  C   UNL     1     -10.184  17.749  67.716  1.00  0.00    -0.362 A  
HETATM   14  N   UNL     1     -10.192  16.891  65.375  1.00  0.00    -0.623 NA 
HETATM   15  C   UNL     1     -10.324  17.352  69.047  1.00  0.00    -0.319 A  
HETATM   16  H   UNL     1     -10.024  17.765  64.878  1.00  0.00     0.000 HD 
HETATM   17  C   UNL     1     -10.352  15.672  64.783  1.00  0.00     0.058 A  
HETATM   18  C   UNL     1     -10.484  14.703  65.764  1.00  0.00    -0.338 A  
BRANCH  18  19
HETATM   19  C   UNL     1     -10.584  13.200  65.540  1.00  0.00    -0.299 C  
HETATM   20  C   UNL     1     -12.011  12.640  65.721  1.00  0.00    -0.503 C  
HETATM   21  C   UNL     1     -12.943  13.033  64.563  1.00  0.00    -0.028 C  
HETATM   22  N   UNL     1     -12.431  12.697  63.229  1.00  0.00    -0.661 NA 
HETATM   23  C   UNL     1     -11.055  13.175  63.043  1.00  0.00     1.145 C  
HETATM   24  C   UNL     1     -12.584  11.280  62.924  1.00  0.00     1.205 C  
HETATM   25  C   UNL     1     -10.091  12.751  64.154  1.00  0.00    -0.260 C  
ENDBRANCH  18  19
ENDBRANCH   8   9
ENDBRANCH   7   8
ENDBRANCH   4   7
ENDBRANCH   2   4
TORSDOF 5
ENDMDL
MODEL      178
REMARK 921   NORMALIZED FREE ENERGY PREDICTED BY IDOCK:   -3.68 KCAL/MOL
REMARK 922        TOTAL FREE ENERGY PREDICTED BY IDOCK:   -5.10 KCAL/MOL
REMARK 923 INTER-LIGAND FREE ENERGY PREDICTED BY IDOCK:   -5.17 KCAL/MOL
REMARK 924 INTRA-LIGAND FREE ENERGY PREDICTED BY IDOCK:    0.07 KCAL/MOL
REMARK 927      BINDING AFFINITY PREDICTED BY RF-SCORE:    0.00 PKD
ROOT
HETATM    1  C   UNL     1      -7.355   7.559  63.681  1.00  0.00    -0.094 C  
HETATM    2  N   UNL     1      -8.586   8.286  64.003  1.00  0.00    -0.396 N  
HETATM    3  H   UNL     1      -9.464   7.793  64.168  1.00  0.00     0.000 HD 
ENDROOT
BRANCH   2   4
HETATM    4  S   UNL     1      -8.496   9.970  64.091  1.00  0.00    -0.190 S  
HETATM    5  O   UNL     1      -8.520  10.473  62.735  1.00  0.00    -0.169 OA 
HETATM    6  O   UNL     1      -7.402  10.260  64.988  1.00  0.00    -0.140 OA 
BRANCH   4   7
HETATM    7  C   UNL     1     -10.033  10.365  64.901  1.00  0.00    -0.339 C  
BRANCH   7   8
HETATM    8  C   UNL     1      -9.799  10.841  66.328  1.00  0.00    -0.262 C  
BRANCH   8   9
HETATM    9  C   UNL     1     -10.466  12.164  66.647  1.00  0.00    -0.248 A  
HETATM   10  C   UNL     1      -9.713  13.179  67.274  1.00  0.00    -0.230 A  
HETATM   11  C   UNL     1     -10.316  14.406  67.635  1.00  0.00    -0.237 A  
HETATM   12  C   UNL     1     -11.662  14.581  67.314  1.00  0.00    -0.406 A  
HETATM   13  C   UNL     1     -12.442  13.599  66.704  1.00  0.00    -0.291 A  
HETATM   14  N   UNL     1     -12.021  15.840  67.715  1.00  0.00    -0.091 NA 
HETATM   15  C   UNL     1     -11.826  12.386  66.394  1.00  0.00    -0.421 A  
HETATM   16  H   UNL     1     -12.951  16.245  67.611  1.00  0.00     0.000 HD 
HETATM   17  C   UNL     1     -10.949  16.473  68.275  1.00  0.00    -0.346 A  
HETATM   18  C   UNL     1      -9.876  15.597  68.319  1.00  0.00    -0.209 A  
BRANCH  18  19
HETATM   19  C   UNL     1      -8.518  15.866  68.954  1.00  0.00    -0.220 C  
HETATM   20  C   UNL     1      -7.438  14.834  68.568  1.00  0.00    -0.117 C  
HETATM   21  C   UNL     1      -6.966  14.999  67.114  1.00  0.00     0.110 C  
HETATM   22  N   UNL     1      -6.519  16.353  66.769  1.00  0.00    -0.284 NA 
HETATM   23  C   UNL     1      -7.506  17.365  67.168  1.00  0.00    -0.192 C  
HETATM   24  C   UNL     1      -5.182  16.637  67.277  1.00  0.00    -0.131 C  
HETATM   25  C   UNL     1      -7.953  17.260  68.629  1.00  0.00    -0.267 C  
ENDBRANCH  18  19
ENDBRANCH   8   9
ENDBRANCH   7   8
ENDBRANCH   4   7
ENDBRANCH   2   4
TORSDOF 5
ENDMDL
MODEL      179
REMARK 921   NORMALIZED FREE ENERGY PREDICTED BY IDOCK:   -3.67 KCAL/MOL
REMARK 922        TOTAL FREE ENERGY PREDICTED BY IDOCK:   -5.08 KCAL/MOL
REMARK 923 INTER-LIGAND FREE ENERGY PREDICTED BY IDOCK:   -5.49 KCAL/MOL
REMARK 924 INTRA-LIGAND FREE ENERGY PREDICTED BY IDOCK:    0.40 KCAL/MOL
REMARK 927      BINDING AFFINITY PREDICTED BY RF-SCORE:    0.00 PKD
ROOT
HETATM    1  C   UNL     1     -12.737  13.355  66.026  1.00  0.00    -0.167 C  
HETATM    2  N   UNL     1     -11.823  12.231  65.807  1.00  0.00    -0.399 N  
HETATM    3  H   UNL     1     -11.798  11.437  66.448  1.00  0.00     0.000 HD 
ENDROOT
BRANCH   2   4
HETATM    4  S   UNL     1     -10.815  12.298  64.455  1.00  0.00    -0.358 S  
HETATM    5  O   UNL     1     -11.663  12.459  63.294  1.00  0.00    -0.453 OA 
HETATM    6  O   UNL     1      -9.908  11.181  64.583  1.00  0.00    -0.244 OA 
BRANCH   4   7
HETATM    7  C   UNL     1      -9.921  13.810  64.755  1.00  0.00    -0.095 C  
BRANCH   7   8
HETATM    8  C   UNL     1     -10.821  15.026  64.592  1.00  0.00    -0.290 C  
BRANCH   8   9
HETATM    9  C   UNL     1     -10.635  16.072  65.674  1.00  0.00    -0.392 A  
HETATM   10  C   UNL     1     -10.565  15.661  67.021  1.00  0.00    -0.311 A  
HETATM   11  C   UNL     1     -10.445  16.613  68.060  1.00  0.00    -0.320 A  
HETATM   12  C   UNL     1     -10.365  17.957  67.696  1.00  0.00    -0.381 A  
HETATM   13  C   UNL     1     -10.442  18.403  66.378  1.00  0.00    -0.412 A  
HETATM   14  N   UNL     1     -10.216  18.687  68.845  1.00  0.00    -0.475 NA 
HETATM   15  C   UNL     1     -10.596  17.441  65.379  1.00  0.00    -0.043 A  
HETATM   16  H   UNL     1     -10.135  19.702  68.887  1.00  0.00     0.000 HD 
HETATM   17  C   UNL     1     -10.194  17.854  69.926  1.00  0.00     0.722 A  
HETATM   18  C   UNL     1     -10.408  16.552  69.501  1.00  0.00    -0.266 A  
BRANCH  18  19
HETATM   19  C   UNL     1     -10.556  15.326  70.392  1.00  0.00    -0.225 C  
HETATM   20  C   UNL     1     -10.677  15.661  71.893  1.00  0.00     0.643 C  
HETATM   21  C   UNL     1     -12.042  16.275  72.246  1.00  0.00    -0.486 C  
HETATM   22  N   UNL     1     -13.197  15.484  71.809  1.00  0.00    -0.454 NA 
HETATM   23  C   UNL     1     -13.088  15.107  70.393  1.00  0.00    -0.194 C  
HETATM   24  C   UNL     1     -13.442  14.341  72.680  1.00  0.00    -0.525 C  
HETATM   25  C   UNL     1     -11.760  14.441  70.024  1.00  0.00    -0.360 C  
ENDBRANCH  18  19
ENDBRANCH   8   9
ENDBRANCH   7   8
ENDBRANCH   4   7
ENDBRANCH   2   4
TORSDOF 5
ENDMDL
MODEL      180
REMARK 921   NORMALIZED FREE ENERGY PREDICTED BY IDOCK:   -3.66 KCAL/MOL
REMARK 922        TOTAL FREE ENERGY PREDICTED BY IDOCK:   -5.08 KCAL/MOL
REMARK 923 INTER-LIGAND FREE ENERGY PREDICTED BY IDOCK:   -4.48 KCAL/MOL
REMARK 924 INTRA-LIGAND FREE ENERGY PREDICTED BY IDOCK:   -0.60 KCAL/MOL
REMARK 927      BINDING AFFINITY PREDICTED BY RF-SCORE:    0.00 PKD
ROOT
HETATM    1  C   UNL     1     -11.131   5.847  71.774  1.00  0.00    -0.265 C  
HETATM    2  N   UNL     1      -9.987   4.990  71.449  1.00  0.00    -0.185 N  
HETATM    3  H   UNL     1     -10.079   4.210  70.796  1.00  0.00     0.000 HD 
ENDROOT
BRANCH   2   4
HETATM    4  S   UNL     1      -8.514   5.341  72.193  1.00  0.00    -0.126 S  
HETATM    5  O   UNL     1      -8.088   4.146  72.888  1.00  0.00    -0.087 OA 
HETATM    6  O   UNL     1      -8.710   6.592  72.886  1.00  0.00    -0.122 OA 
BRANCH   4   7
HETATM    7  C   UNL     1      -7.461   5.617  70.782  1.00  0.00    -0.089 C  
BRANCH   7   8
HETATM    8  C   UNL     1      -8.014   4.935  69.538  1.00  0.00    -0.070 C  
BRANCH   8   9
HETATM    9  C   UNL     1      -8.535   5.902  68.493  1.00  0.00    -0.111 A  
HETATM   10  C   UNL     1      -8.765   7.245  68.855  1.00  0.00    -0.128 A  
HETATM   11  C   UNL     1      -9.302   8.162  67.920  1.00  0.00    -0.145 A  
HETATM   12  C   UNL     1      -9.555   7.693  66.631  1.00  0.00    -0.206 A  
HETATM   13  C   UNL     1      -9.351   6.371  66.239  1.00  0.00    -0.149 A  
HETATM   14  N   UNL     1     -10.027   8.747  65.896  1.00  0.00    -0.454 NA 
HETATM   15  C   UNL     1      -8.855   5.484  67.195  1.00  0.00    -0.106 A  
HETATM   16  H   UNL     1     -10.301   8.700  64.914  1.00  0.00     0.000 HD 
HETATM   17  C   UNL     1     -10.078   9.869  66.670  1.00  0.00    -0.233 A  
HETATM   18  C   UNL     1      -9.706   9.546  67.965  1.00  0.00    -0.168 A  
BRANCH  18  19
HETATM   19  C   UNL     1      -9.719  10.480  69.168  1.00  0.00    -0.226 C  
HETATM   20  C   UNL     1     -10.665  11.688  69.004  1.00  0.00    -0.217 C  
HETATM   21  C   UNL     1     -12.146  11.288  69.102  1.00  0.00    -0.279 C  
HETATM   22  N   UNL     1     -12.493  10.532  70.311  1.00  0.00    -0.298 NA 
HETATM   23  C   UNL     1     -11.580   9.401  70.522  1.00  0.00    -0.235 C  
HETATM   24  C   UNL     1     -12.607  11.393  71.482  1.00  0.00    -0.288 C  
HETATM   25  C   UNL     1     -10.097   9.781  70.485  1.00  0.00    -0.289 C  
ENDBRANCH  18  19
ENDBRANCH   8   9
ENDBRANCH   7   8
ENDBRANCH   4   7
ENDBRANCH   2   4
TORSDOF 5
ENDMDL
MODEL      181
REMARK 921   NORMALIZED FREE ENERGY PREDICTED BY IDOCK:   -3.62 KCAL/MOL
REMARK 922        TOTAL FREE ENERGY PREDICTED BY IDOCK:   -5.02 KCAL/MOL
REMARK 923 INTER-LIGAND FREE ENERGY PREDICTED BY IDOCK:   -4.73 KCAL/MOL
REMARK 924 INTRA-LIGAND FREE ENERGY PREDICTED BY IDOCK:   -0.29 KCAL/MOL
REMARK 927      BINDING AFFINITY PREDICTED BY RF-SCORE:    0.00 PKD
ROOT
HETATM    1  C   UNL     1     -11.919  16.172  64.615  1.00  0.00     0.295 C  
HETATM    2  N   UNL     1     -11.046  15.039  64.298  1.00  0.00    -0.621 N  
HETATM    3  H   UNL     1     -10.662  14.912  63.361  1.00  0.00     0.000 HD 
ENDROOT
BRANCH   2   4
HETATM    4  S   UNL     1     -10.699  13.951  65.542  1.00  0.00    -0.317 S  
HETATM    5  O   UNL     1     -11.958  13.578  66.150  1.00  0.00    -0.368 OA 
HETATM    6  O   UNL     1      -9.635  14.554  66.309  1.00  0.00    -0.286 OA 
BRANCH   4   7
HETATM    7  C   UNL     1     -10.044  12.567  64.629  1.00  0.00    -0.233 C  
BRANCH   7   8
HETATM    8  C   UNL     1     -10.741  11.270  65.015  1.00  0.00    -0.322 C  
BRANCH   8   9
HETATM    9  C   UNL     1      -9.793  10.186  65.489  1.00  0.00    -0.365 A  
HETATM   10  C   UNL     1      -9.626   9.978  66.875  1.00  0.00    -0.219 A  
HETATM   11  C   UNL     1      -8.711   9.012  67.353  1.00  0.00    -0.122 A  
HETATM   12  C   UNL     1      -8.017   8.258  66.408  1.00  0.00    -0.096 A  
HETATM   13  C   UNL     1      -8.147   8.441  65.032  1.00  0.00    -0.147 A  
HETATM   14  N   UNL     1      -7.227   7.371  67.087  1.00  0.00    -0.087 NA 
HETATM   15  C   UNL     1      -9.031   9.427  64.593  1.00  0.00    -0.233 A  
HETATM   16  H   UNL     1      -6.602   6.691  66.654  1.00  0.00     0.000 HD 
HETATM   17  C   UNL     1      -7.398   7.530  68.432  1.00  0.00    -0.099 A  
HETATM   18  C   UNL     1      -8.259   8.593  68.658  1.00  0.00    -0.121 A  
BRANCH  18  19
HETATM   19  C   UNL     1      -8.642   9.171  70.013  1.00  0.00    -0.172 C  
HETATM   20  C   UNL     1     -10.159   9.133  70.297  1.00  0.00    -0.244 C  
HETATM   21  C   UNL     1     -10.663   7.710  70.587  1.00  0.00    -0.231 C  
HETATM   22  N   UNL     1      -9.931   7.009  71.647  1.00  0.00    -0.179 NA 
HETATM   23  C   UNL     1      -8.479   7.068  71.431  1.00  0.00    -0.114 C  
HETATM   24  C   UNL     1     -10.324   7.461  72.977  1.00  0.00    -0.306 C  
HETATM   25  C   UNL     1      -7.940   8.482  71.196  1.00  0.00    -0.144 C  
ENDBRANCH  18  19
ENDBRANCH   8   9
ENDBRANCH   7   8
ENDBRANCH   4   7
ENDBRANCH   2   4
TORSDOF 5
ENDMDL
MODEL      182
REMARK 921   NORMALIZED FREE ENERGY PREDICTED BY IDOCK:   -3.62 KCAL/MOL
REMARK 922        TOTAL FREE ENERGY PREDICTED BY IDOCK:   -5.02 KCAL/MOL
REMARK 923 INTER-LIGAND FREE ENERGY PREDICTED BY IDOCK:   -4.95 KCAL/MOL
REMARK 924 INTRA-LIGAND FREE ENERGY PREDICTED BY IDOCK:   -0.06 KCAL/MOL
REMARK 927      BINDING AFFINITY PREDICTED BY RF-SCORE:    0.00 PKD
ROOT
HETATM    1  C   UNL     1     -11.944  14.963  68.012  1.00  0.00    -0.185 C  
HETATM    2  N   UNL     1     -11.605  14.883  66.588  1.00  0.00    -0.310 N  
HETATM    3  H   UNL     1     -11.231  15.689  66.087  1.00  0.00     0.000 HD 
ENDROOT
BRANCH   2   4
HETATM    4  S   UNL     1     -11.857  13.406  65.810  1.00  0.00    -0.400 S  
HETATM    5  O   UNL     1     -12.691  13.665  64.657  1.00  0.00    -0.635 OA 
HETATM    6  O   UNL     1     -12.256  12.479  66.842  1.00  0.00    -0.511 OA 
BRANCH   4   7
HETATM    7  C   UNL     1     -10.206  13.003  65.273  1.00  0.00    -0.279 C  
BRANCH   7   8
HETATM    8  C   UNL     1      -9.510  12.084  66.267  1.00  0.00    -0.237 C  
BRANCH   8   9
HETATM    9  C   UNL     1      -9.231  10.697  65.724  1.00  0.00    -0.218 A  
HETATM   10  C   UNL     1      -9.280   9.594  66.602  1.00  0.00    -0.187 A  
HETATM   11  C   UNL     1      -8.973   8.292  66.141  1.00  0.00    -0.222 A  
HETATM   12  C   UNL     1      -8.659   8.144  64.791  1.00  0.00     0.027 A  
HETATM   13  C   UNL     1      -8.590   9.210  63.896  1.00  0.00    -0.188 A  
HETATM   14  N   UNL     1      -8.439   6.812  64.563  1.00  0.00    -0.341 NA 
HETATM   15  C   UNL     1      -8.863  10.486  64.390  1.00  0.00    -0.210 A  
HETATM   16  H   UNL     1      -8.186   6.406  63.663  1.00  0.00     0.000 HD 
HETATM   17  C   UNL     1      -8.607   6.108  65.720  1.00  0.00    -0.151 A  
HETATM   18  C   UNL     1      -8.869   6.991  66.756  1.00  0.00    -0.130 A  
BRANCH  18  19
HETATM   19  C   UNL     1      -9.023   6.633  68.228  1.00  0.00    -0.122 C  
HETATM   20  C   UNL     1      -9.924   5.405  68.477  1.00  0.00    -0.223 C  
HETATM   21  C   UNL     1      -9.241   4.089  68.068  1.00  0.00    -0.154 C  
HETATM   22  N   UNL     1      -7.919   3.878  68.667  1.00  0.00    -0.067 NA 
HETATM   23  C   UNL     1      -7.052   5.051  68.489  1.00  0.00    -0.058 C  
HETATM   24  C   UNL     1      -8.007   3.447  70.057  1.00  0.00    -0.046 C  
HETATM   25  C   UNL     1      -7.685   6.369  68.940  1.00  0.00    -0.108 C  
ENDBRANCH  18  19
ENDBRANCH   8   9
ENDBRANCH   7   8
ENDBRANCH   4   7
ENDBRANCH   2   4
TORSDOF 5
ENDMDL
MODEL      183
REMARK 921   NORMALIZED FREE ENERGY PREDICTED BY IDOCK:   -3.61 KCAL/MOL
REMARK 922        TOTAL FREE ENERGY PREDICTED BY IDOCK:   -5.00 KCAL/MOL
REMARK 923 INTER-LIGAND FREE ENERGY PREDICTED BY IDOCK:   -4.87 KCAL/MOL
REMARK 924 INTRA-LIGAND FREE ENERGY PREDICTED BY IDOCK:   -0.14 KCAL/MOL
REMARK 927      BINDING AFFINITY PREDICTED BY RF-SCORE:    0.00 PKD
ROOT
HETATM    1  C   UNL     1     -10.710  13.258  64.215  1.00  0.00    -0.387 C  
HETATM    2  N   UNL     1     -10.000  13.919  65.314  1.00  0.00    -0.551 N  
HETATM    3  H   UNL     1      -9.559  14.830  65.187  1.00  0.00     0.000 HD 
ENDROOT
BRANCH   2   4
HETATM    4  S   UNL     1      -9.939  13.115  66.797  1.00  0.00    -0.256 S  
HETATM    5  O   UNL     1     -11.111  12.272  66.878  1.00  0.00    -0.260 OA 
HETATM    6  O   UNL     1      -9.667  14.132  67.786  1.00  0.00    -0.215 OA 
BRANCH   4   7
HETATM    7  C   UNL     1      -8.488  12.101  66.592  1.00  0.00    -0.088 C  
BRANCH   7   8
HETATM    8  C   UNL     1      -8.848  10.623  66.545  1.00  0.00    -0.160 C  
BRANCH   8   9
HETATM    9  C   UNL     1      -8.176   9.797  67.625  1.00  0.00    -0.114 A  
HETATM   10  C   UNL     1      -8.854   9.580  68.843  1.00  0.00    -0.137 A  
HETATM   11  C   UNL     1      -8.236   8.860  69.892  1.00  0.00    -0.118 A  
HETATM   12  C   UNL     1      -6.959   8.349  69.660  1.00  0.00    -0.048 A  
HETATM   13  C   UNL     1      -6.254   8.553  68.475  1.00  0.00    -0.053 A  
HETATM   14  N   UNL     1      -6.579   7.665  70.782  1.00  0.00    -0.038 NA 
HETATM   15  C   UNL     1      -6.877   9.298  67.473  1.00  0.00    -0.077 A  
HETATM   16  H   UNL     1      -5.686   7.187  70.901  1.00  0.00     0.000 HD 
HETATM   17  C   UNL     1      -7.570   7.717  71.718  1.00  0.00    -0.085 A  
HETATM   18  C   UNL     1      -8.601   8.513  71.245  1.00  0.00    -0.219 A  
BRANCH  18  19
HETATM   19  C   UNL     1      -9.855   8.915  72.010  1.00  0.00    -0.325 C  
HETATM   20  C   UNL     1     -10.994   9.432  71.106  1.00  0.00    -0.430 C  
HETATM   21  C   UNL     1     -11.658   8.302  70.301  1.00  0.00     0.017 C  
HETATM   22  N   UNL     1     -12.126   7.172  71.110  1.00  0.00    -0.342 NA 
HETATM   23  C   UNL     1     -11.077   6.687  72.018  1.00  0.00    -0.255 C  
HETATM   24  C   UNL     1     -13.376   7.469  71.799  1.00  0.00    -0.315 C  
HETATM   25  C   UNL     1     -10.437   7.783  72.874  1.00  0.00    -0.412 C  
ENDBRANCH  18  19
ENDBRANCH   8   9
ENDBRANCH   7   8
ENDBRANCH   4   7
ENDBRANCH   2   4
TORSDOF 5
ENDMDL
MODEL      184
REMARK 921   NORMALIZED FREE ENERGY PREDICTED BY IDOCK:   -3.61 KCAL/MOL
REMARK 922        TOTAL FREE ENERGY PREDICTED BY IDOCK:   -5.00 KCAL/MOL
REMARK 923 INTER-LIGAND FREE ENERGY PREDICTED BY IDOCK:   -4.62 KCAL/MOL
REMARK 924 INTRA-LIGAND FREE ENERGY PREDICTED BY IDOCK:   -0.38 KCAL/MOL
REMARK 927      BINDING AFFINITY PREDICTED BY RF-SCORE:    0.00 PKD
ROOT
HETATM    1  C   UNL     1      -7.215  16.876  66.872  1.00  0.00    -0.216 C  
HETATM    2  N   UNL     1      -8.504  17.566  66.961  1.00  0.00    -0.227 N  
HETATM    3  H   UNL     1      -8.622  18.515  66.607  1.00  0.00     0.000 HD 
ENDROOT
BRANCH   2   4
HETATM    4  S   UNL     1      -9.788  16.730  67.671  1.00  0.00    -0.268 S  
HETATM    5  O   UNL     1     -10.507  16.063  66.608  1.00  0.00    -0.300 OA 
HETATM    6  O   UNL     1     -10.436  17.675  68.549  1.00  0.00    -0.359 OA 
BRANCH   4   7
HETATM    7  C   UNL     1      -8.923  15.521  68.654  1.00  0.00    -0.194 C  
BRANCH   7   8
HETATM    8  C   UNL     1      -9.576  14.151  68.547  1.00  0.00    -0.214 C  
BRANCH   8   9
HETATM    9  C   UNL     1      -8.692  13.102  67.901  1.00  0.00    -0.192 A  
HETATM   10  C   UNL     1      -9.254  11.860  67.537  1.00  0.00    -0.177 A  
HETATM   11  C   UNL     1      -8.448  10.840  66.981  1.00  0.00    -0.128 A  
HETATM   12  C   UNL     1      -7.098  11.124  66.778  1.00  0.00    -0.139 A  
HETATM   13  C   UNL     1      -6.504  12.333  67.134  1.00  0.00    -0.118 A  
HETATM   14  N   UNL     1      -6.527  10.021  66.202  1.00  0.00    -0.081 NA 
HETATM   15  C   UNL     1      -7.319  13.307  67.713  1.00  0.00    -0.147 A  
HETATM   16  H   UNL     1      -5.544   9.938  65.943  1.00  0.00     0.000 HD 
HETATM   17  C   UNL     1      -7.468   9.048  66.028  1.00  0.00    -0.094 A  
HETATM   18  C   UNL     1      -8.671   9.476  66.565  1.00  0.00    -0.147 A  
BRANCH  18  19
HETATM   19  C   UNL     1      -9.954   8.662  66.670  1.00  0.00    -0.357 C  
HETATM   20  C   UNL     1      -9.715   7.140  66.764  1.00  0.00    -0.252 C  
HETATM   21  C   UNL     1      -9.152   6.721  68.132  1.00  0.00    -0.123 C  
HETATM   22  N   UNL     1      -9.938   7.183  69.281  1.00  0.00    -0.165 NA 
HETATM   23  C   UNL     1     -10.223   8.621  69.197  1.00  0.00    -0.208 C  
HETATM   24  C   UNL     1     -11.138   6.380  69.485  1.00  0.00    -0.396 C  
HETATM   25  C   UNL     1     -10.837   9.059  67.865  1.00  0.00    -0.118 C  
ENDBRANCH  18  19
ENDBRANCH   8   9
ENDBRANCH   7   8
ENDBRANCH   4   7
ENDBRANCH   2   4
TORSDOF 5
ENDMDL
MODEL      185
REMARK 921   NORMALIZED FREE ENERGY PREDICTED BY IDOCK:   -3.60 KCAL/MOL
REMARK 922        TOTAL FREE ENERGY PREDICTED BY IDOCK:   -4.99 KCAL/MOL
REMARK 923 INTER-LIGAND FREE ENERGY PREDICTED BY IDOCK:   -4.92 KCAL/MOL
REMARK 924 INTRA-LIGAND FREE ENERGY PREDICTED BY IDOCK:   -0.07 KCAL/MOL
REMARK 927      BINDING AFFINITY PREDICTED BY RF-SCORE:    0.00 PKD
ROOT
HETATM    1  C   UNL     1      -9.944   4.710  69.731  1.00  0.00    -0.225 C  
HETATM    2  N   UNL     1     -10.128   5.453  70.981  1.00  0.00    -0.205 N  
HETATM    3  H   UNL     1      -9.574   5.238  71.811  1.00  0.00     0.000 HD 
ENDROOT
BRANCH   2   4
HETATM    4  S   UNL     1     -11.291   6.676  70.997  1.00  0.00    -0.333 S  
HETATM    5  O   UNL     1     -11.879   6.693  72.318  1.00  0.00    -0.291 OA 
HETATM    6  O   UNL     1     -12.092   6.474  69.812  1.00  0.00    -0.167 OA 
BRANCH   4   7
HETATM    7  C   UNL     1     -10.281   8.128  70.775  1.00  0.00    -0.194 C  
BRANCH   7   8
HETATM    8  C   UNL     1     -10.717   8.923  69.552  1.00  0.00    -0.206 C  
BRANCH   8   9
HETATM    9  C   UNL     1      -9.652   9.863  69.024  1.00  0.00    -0.188 A  
HETATM   10  C   UNL     1     -10.017  11.174  68.652  1.00  0.00    -0.210 A  
HETATM   11  C   UNL     1      -9.060  12.061  68.105  1.00  0.00    -0.191 A  
HETATM   12  C   UNL     1      -7.750  11.600  67.985  1.00  0.00    -0.121 A  
HETATM   13  C   UNL     1      -7.353  10.309  68.330  1.00  0.00    -0.084 A  
HETATM   14  N   UNL     1      -6.998  12.624  67.475  1.00  0.00    -0.140 NA 
HETATM   15  C   UNL     1      -8.328   9.447  68.833  1.00  0.00    -0.120 A  
HETATM   16  H   UNL     1      -5.999  12.575  67.276  1.00  0.00     0.000 HD 
HETATM   17  C   UNL     1      -7.784  13.722  67.272  1.00  0.00    -0.076 A  
HETATM   18  C   UNL     1      -9.097  13.404  67.579  1.00  0.00    -0.215 A  
BRANCH  18  19
HETATM   19  C   UNL     1     -10.310  14.307  67.400  1.00  0.00    -0.259 C  
HETATM   20  C   UNL     1     -10.705  15.075  68.679  1.00  0.00    -0.244 C  
HETATM   21  C   UNL     1      -9.716  16.205  69.010  1.00  0.00    -0.248 C  
HETATM   22  N   UNL     1      -9.474  17.144  67.909  1.00  0.00    -0.252 NA 
HETATM   23  C   UNL     1      -9.142  16.441  66.663  1.00  0.00    -0.250 C  
HETATM   24  C   UNL     1     -10.568  18.095  67.748  1.00  0.00    -0.389 C  
HETATM   25  C   UNL     1     -10.141  15.347  66.278  1.00  0.00    -0.309 C  
ENDBRANCH  18  19
ENDBRANCH   8   9
ENDBRANCH   7   8
ENDBRANCH   4   7
ENDBRANCH   2   4
TORSDOF 5
ENDMDL
MODEL      186
REMARK 921   NORMALIZED FREE ENERGY PREDICTED BY IDOCK:   -3.59 KCAL/MOL
REMARK 922        TOTAL FREE ENERGY PREDICTED BY IDOCK:   -4.99 KCAL/MOL
REMARK 923 INTER-LIGAND FREE ENERGY PREDICTED BY IDOCK:   -4.61 KCAL/MOL
REMARK 924 INTRA-LIGAND FREE ENERGY PREDICTED BY IDOCK:   -0.38 KCAL/MOL
REMARK 927      BINDING AFFINITY PREDICTED BY RF-SCORE:    0.00 PKD
ROOT
HETATM    1  C   UNL     1     -12.413  12.907  65.452  1.00  0.00    -0.454 C  
HETATM    2  N   UNL     1     -11.523  11.744  65.393  1.00  0.00    -0.234 N  
HETATM    3  H   UNL     1     -11.691  10.920  65.972  1.00  0.00     0.000 HD 
ENDROOT
BRANCH   2   4
HETATM    4  S   UNL     1     -10.213  11.818  64.332  1.00  0.00    -0.309 S  
HETATM    5  O   UNL     1      -9.740  13.185  64.327  1.00  0.00    -0.077 OA 
HETATM    6  O   UNL     1     -10.647  11.160  63.122  1.00  0.00    -0.295 OA 
BRANCH   4   7
HETATM    7  C   UNL     1      -9.026  10.780  65.163  1.00  0.00    -0.198 C  
BRANCH   7   8
HETATM    8  C   UNL     1      -8.414  11.490  66.362  1.00  0.00    -0.138 C  
BRANCH   8   9
HETATM    9  C   UNL     1      -8.681  10.797  67.684  1.00  0.00    -0.126 A  
HETATM   10  C   UNL     1      -9.963  10.897  68.264  1.00  0.00    -0.187 A  
HETATM   11  C   UNL     1     -10.232  10.309  69.522  1.00  0.00    -0.261 A  
HETATM   12  C   UNL     1      -9.199   9.604  70.138  1.00  0.00    -0.246 A  
HETATM   13  C   UNL     1      -7.917   9.493  69.602  1.00  0.00    -0.120 A  
HETATM   14  N   UNL     1      -9.689   9.094  71.310  1.00  0.00    -0.294 NA 
HETATM   15  C   UNL     1      -7.673  10.115  68.377  1.00  0.00    -0.089 A  
HETATM   16  H   UNL     1      -9.155   8.535  71.974  1.00  0.00     0.000 HD 
HETATM   17  C   UNL     1     -11.000   9.445  71.458  1.00  0.00    -0.359 A  
HETATM   18  C   UNL     1     -11.372  10.268  70.406  1.00  0.00    -0.410 A  
BRANCH  18  19
HETATM   19  C   UNL     1     -12.716  10.962  70.236  1.00  0.00    -0.285 C  
HETATM   20  C   UNL     1     -13.389  11.347  71.570  1.00  0.00    -0.181 C  
HETATM   21  C   UNL     1     -12.688  12.531  72.257  1.00  0.00     0.216 C  
HETATM   22  N   UNL     1     -12.527  13.718  71.409  1.00  0.00    -0.345 NA 
HETATM   23  C   UNL     1     -11.932  13.377  70.110  1.00  0.00    -0.326 C  
HETATM   24  C   UNL     1     -13.767  14.474  71.282  1.00  0.00    -0.341 C  
HETATM   25  C   UNL     1     -12.645  12.237  69.377  1.00  0.00     0.448 C  
ENDBRANCH  18  19
ENDBRANCH   8   9
ENDBRANCH   7   8
ENDBRANCH   4   7
ENDBRANCH   2   4
TORSDOF 5
ENDMDL
MODEL      187
REMARK 921   NORMALIZED FREE ENERGY PREDICTED BY IDOCK:   -3.54 KCAL/MOL
REMARK 922        TOTAL FREE ENERGY PREDICTED BY IDOCK:   -4.92 KCAL/MOL
REMARK 923 INTER-LIGAND FREE ENERGY PREDICTED BY IDOCK:   -4.67 KCAL/MOL
REMARK 924 INTRA-LIGAND FREE ENERGY PREDICTED BY IDOCK:   -0.25 KCAL/MOL
REMARK 927      BINDING AFFINITY PREDICTED BY RF-SCORE:    0.00 PKD
ROOT
HETATM    1  C   UNL     1     -13.263  11.029  71.658  1.00  0.00    -0.357 C  
HETATM    2  N   UNL     1     -13.538   9.742  72.303  1.00  0.00    -0.586 N  
HETATM    3  H   UNL     1     -14.230   9.661  73.049  1.00  0.00     0.000 HD 
ENDROOT
BRANCH   2   4
HETATM    4  S   UNL     1     -12.667   8.400  71.765  1.00  0.00    -0.355 S  
HETATM    5  O   UNL     1     -13.621   7.460  71.218  1.00  0.00    -0.355 OA 
HETATM    6  O   UNL     1     -11.785   8.041  72.850  1.00  0.00    -0.369 OA 
BRANCH   4   7
HETATM    7  C   UNL     1     -11.704   9.109  70.444  1.00  0.00    -0.088 C  
BRANCH   7   8
HETATM    8  C   UNL     1     -10.317   9.512  70.926  1.00  0.00    -0.372 C  
BRANCH   8   9
HETATM    9  C   UNL     1      -9.189   8.907  70.113  1.00  0.00    -0.195 A  
HETATM   10  C   UNL     1      -8.705   9.605  68.987  1.00  0.00    -0.142 A  
HETATM   11  C   UNL     1      -7.690   9.046  68.175  1.00  0.00    -0.096 A  
HETATM   12  C   UNL     1      -7.171   7.808  68.553  1.00  0.00    -0.086 A  
HETATM   13  C   UNL     1      -7.631   7.084  69.651  1.00  0.00    -0.104 A  
HETATM   14  N   UNL     1      -6.188   7.483  67.658  1.00  0.00    -0.047 NA 
HETATM   15  C   UNL     1      -8.658   7.646  70.411  1.00  0.00    -0.138 A  
HETATM   16  H   UNL     1      -5.633   6.628  67.682  1.00  0.00     0.000 HD 
HETATM   17  C   UNL     1      -6.060   8.473  66.727  1.00  0.00    -0.054 A  
HETATM   18  C   UNL     1      -7.024   9.441  66.957  1.00  0.00    -0.085 A  
BRANCH  18  19
HETATM   19  C   UNL     1      -7.296  10.667  66.095  1.00  0.00    -0.138 C  
HETATM   20  C   UNL     1      -6.690  10.576  64.679  1.00  0.00     0.056 C  
HETATM   21  C   UNL     1      -7.448   9.584  63.783  1.00  0.00    -0.116 C  
HETATM   22  N   UNL     1      -8.893   9.819  63.700  1.00  0.00    -0.222 NA 
HETATM   23  C   UNL     1      -9.494   9.958  65.034  1.00  0.00    -0.280 C  
HETATM   24  C   UNL     1      -9.220  10.930  62.815  1.00  0.00    -0.339 C  
HETATM   25  C   UNL     1      -8.793  10.982  65.930  1.00  0.00    -0.204 C  
ENDBRANCH  18  19
ENDBRANCH   8   9
ENDBRANCH   7   8
ENDBRANCH   4   7
ENDBRANCH   2   4
TORSDOF 5
ENDMDL
MODEL      188
REMARK 921   NORMALIZED FREE ENERGY PREDICTED BY IDOCK:   -3.53 KCAL/MOL
REMARK 922        TOTAL FREE ENERGY PREDICTED BY IDOCK:   -4.91 KCAL/MOL
REMARK 923 INTER-LIGAND FREE ENERGY PREDICTED BY IDOCK:   -5.91 KCAL/MOL
REMARK 924 INTRA-LIGAND FREE ENERGY PREDICTED BY IDOCK:    1.00 KCAL/MOL
REMARK 927      BINDING AFFINITY PREDICTED BY RF-SCORE:    0.00 PKD
ROOT
HETATM    1  C   UNL     1     -13.761   6.973  72.110  1.00  0.00     0.068 C  
HETATM    2  N   UNL     1     -12.961   7.139  70.894  1.00  0.00    -0.576 N  
HETATM    3  H   UNL     1     -13.401   7.325  69.992  1.00  0.00     0.000 HD 
ENDROOT
BRANCH   2   4
HETATM    4  S   UNL     1     -11.284   7.013  71.040  1.00  0.00    -0.289 S  
HETATM    5  O   UNL     1     -10.854   5.950  70.159  1.00  0.00    -0.290 OA 
HETATM    6  O   UNL     1     -11.013   6.979  72.458  1.00  0.00    -0.239 OA 
BRANCH   4   7
HETATM    7  C   UNL     1     -10.752   8.583  70.385  1.00  0.00    -0.228 C  
BRANCH   7   8
HETATM    8  C   UNL     1     -11.740   9.689  70.729  1.00  0.00    -0.390 C  
BRANCH   8   9
HETATM    9  C   UNL     1     -11.635  10.903  69.827  1.00  0.00    -0.399 A  
HETATM   10  C   UNL     1     -11.010  10.771  68.569  1.00  0.00    -0.291 A  
HETATM   11  C   UNL     1     -10.848  11.894  67.724  1.00  0.00    -0.254 A  
HETATM   12  C   UNL     1     -11.359  13.114  68.168  1.00  0.00    -0.292 A  
HETATM   13  C   UNL     1     -11.972  13.285  69.408  1.00  0.00    -0.356 A  
HETATM   14  N   UNL     1     -11.126  14.039  67.187  1.00  0.00    -0.296 NA 
HETATM   15  C   UNL     1     -12.084  12.166  70.233  1.00  0.00    -0.385 A  
HETATM   16  H   UNL     1     -11.388  15.023  67.236  1.00  0.00     0.000 HD 
HETATM   17  C   UNL     1     -10.491  13.450  66.133  1.00  0.00    -0.295 A  
HETATM   18  C   UNL     1     -10.224  12.126  66.444  1.00  0.00    -0.245 A  
BRANCH  18  19
HETATM   19  C   UNL     1      -9.444  11.137  65.588  1.00  0.00    -0.252 C  
HETATM   20  C   UNL     1      -7.951  11.034  65.965  1.00  0.00    -0.094 C  
HETATM   21  C   UNL     1      -7.735  10.294  67.295  1.00  0.00    -0.095 C  
HETATM   22  N   UNL     1      -8.368   8.972  67.366  1.00  0.00    -0.111 NA 
HETATM   23  C   UNL     1      -9.781   9.028  66.966  1.00  0.00    -0.189 C  
HETATM   24  C   UNL     1      -7.614   7.962  66.635  1.00  0.00    -0.093 C  
HETATM   25  C   UNL     1     -10.021   9.711  65.617  1.00  0.00    -0.321 C  
ENDBRANCH  18  19
ENDBRANCH   8   9
ENDBRANCH   7   8
ENDBRANCH   4   7
ENDBRANCH   2   4
TORSDOF 5
ENDMDL
MODEL      189
REMARK 921   NORMALIZED FREE ENERGY PREDICTED BY IDOCK:   -3.51 KCAL/MOL
REMARK 922        TOTAL FREE ENERGY PREDICTED BY IDOCK:   -4.88 KCAL/MOL
REMARK 923 INTER-LIGAND FREE ENERGY PREDICTED BY IDOCK:   -5.94 KCAL/MOL
REMARK 924 INTRA-LIGAND FREE ENERGY PREDICTED BY IDOCK:    1.07 KCAL/MOL
REMARK 927      BINDING AFFINITY PREDICTED BY RF-SCORE:    0.00 PKD
ROOT
HETATM    1  C   UNL     1      -7.456  13.973  67.945  1.00  0.00    -0.149 C  
HETATM    2  N   UNL     1      -8.368  13.306  67.012  1.00  0.00    -0.366 N  
HETATM    3  H   UNL     1      -8.042  12.560  66.397  1.00  0.00     0.000 HD 
ENDROOT
BRANCH   2   4
HETATM    4  S   UNL     1      -9.976  13.819  66.993  1.00  0.00    -0.256 S  
HETATM    5  O   UNL     1     -10.602  13.229  65.831  1.00  0.00    -0.274 OA 
HETATM    6  O   UNL     1      -9.936  15.249  67.190  1.00  0.00    -0.230 OA 
BRANCH   4   7
HETATM    7  C   UNL     1     -10.611  13.048  68.469  1.00  0.00    -0.258 C  
BRANCH   7   8
HETATM    8  C   UNL     1     -10.311  11.555  68.485  1.00  0.00    -0.224 C  
BRANCH   8   9
HETATM    9  C   UNL     1     -10.980  10.811  69.624  1.00  0.00    -0.320 A  
HETATM   10  C   UNL     1     -10.281   9.768  70.266  1.00  0.00    -0.346 A  
HETATM   11  C   UNL     1     -10.894   9.017  71.296  1.00  0.00    -0.385 A  
HETATM   12  C   UNL     1     -12.190   9.371  71.668  1.00  0.00    -0.390 A  
HETATM   13  C   UNL     1     -12.917  10.387  71.050  1.00  0.00    -0.490 A  
HETATM   14  N   UNL     1     -12.564   8.547  72.695  1.00  0.00    -0.572 NA 
HETATM   15  C   UNL     1     -12.297  11.085  70.013  1.00  0.00    -0.377 A  
HETATM   16  H   UNL     1     -13.468   8.573  73.167  1.00  0.00     0.000 HD 
HETATM   17  C   UNL     1     -11.550   7.685  72.992  1.00  0.00    -0.131 A  
HETATM   18  C   UNL     1     -10.508   7.883  72.100  1.00  0.00    -0.308 A  
BRANCH  18  19
HETATM   19  C   UNL     1      -9.224   7.067  72.016  1.00  0.00    -0.148 C  
HETATM   20  C   UNL     1      -9.264   5.959  70.942  1.00  0.00    -0.167 C  
HETATM   21  C   UNL     1      -9.182   6.527  69.515  1.00  0.00    -0.142 C  
HETATM   22  N   UNL     1      -8.043   7.421  69.280  1.00  0.00    -0.121 NA 
HETATM   23  C   UNL     1      -7.949   8.460  70.315  1.00  0.00    -0.102 C  
HETATM   24  C   UNL     1      -6.796   6.687  69.102  1.00  0.00    -0.069 C  
HETATM   25  C   UNL     1      -7.972   7.918  71.747  1.00  0.00    -0.118 C  
ENDBRANCH  18  19
ENDBRANCH   8   9
ENDBRANCH   7   8
ENDBRANCH   4   7
ENDBRANCH   2   4
TORSDOF 5
ENDMDL
MODEL      190
REMARK 921   NORMALIZED FREE ENERGY PREDICTED BY IDOCK:   -3.49 KCAL/MOL
REMARK 922        TOTAL FREE ENERGY PREDICTED BY IDOCK:   -4.85 KCAL/MOL
REMARK 923 INTER-LIGAND FREE ENERGY PREDICTED BY IDOCK:   -4.38 KCAL/MOL
REMARK 924 INTRA-LIGAND FREE ENERGY PREDICTED BY IDOCK:   -0.47 KCAL/MOL
REMARK 927      BINDING AFFINITY PREDICTED BY RF-SCORE:    0.00 PKD
ROOT
HETATM    1  C   UNL     1     -13.643   7.103  71.729  1.00  0.00    -0.263 C  
HETATM    2  N   UNL     1     -12.455   7.205  72.580  1.00  0.00    -0.480 N  
HETATM    3  H   UNL     1     -12.483   6.931  73.562  1.00  0.00     0.000 HD 
ENDROOT
BRANCH   2   4
HETATM    4  S   UNL     1     -11.039   7.793  71.874  1.00  0.00    -0.271 S  
HETATM    5  O   UNL     1     -10.455   6.709  71.115  1.00  0.00    -0.212 OA 
HETATM    6  O   UNL     1     -10.314   8.454  72.934  1.00  0.00    -0.258 OA 
BRANCH   4   7
HETATM    7  C   UNL     1     -11.684   9.023  70.757  1.00  0.00    -0.242 C  
BRANCH   7   8
HETATM    8  C   UNL     1     -10.667  10.126  70.501  1.00  0.00    -0.295 C  
BRANCH   8   9
HETATM    9  C   UNL     1      -9.788   9.877  69.291  1.00  0.00    -0.217 A  
HETATM   10  C   UNL     1     -10.051   8.760  68.470  1.00  0.00    -0.210 A  
HETATM   11  C   UNL     1      -9.219   8.467  67.364  1.00  0.00    -0.163 A  
HETATM   12  C   UNL     1      -8.164   9.340  67.102  1.00  0.00    -0.117 A  
HETATM   13  C   UNL     1      -7.866  10.446  67.896  1.00  0.00    -0.101 A  
HETATM   14  N   UNL     1      -7.526   8.889  65.979  1.00  0.00    -0.089 NA 
HETATM   15  C   UNL     1      -8.684  10.688  69.000  1.00  0.00    -0.152 A  
HETATM   16  H   UNL     1      -6.711   9.328  65.552  1.00  0.00     0.000 HD 
HETATM   17  C   UNL     1      -8.141   7.763  65.514  1.00  0.00    -0.128 A  
HETATM   18  C   UNL     1      -9.161   7.410  66.383  1.00  0.00    -0.203 A  
BRANCH  18  19
HETATM   19  C   UNL     1     -10.035   6.166  66.292  1.00  0.00    -0.058 C  
HETATM   20  C   UNL     1      -9.375   5.000  65.525  1.00  0.00    -0.149 C  
HETATM   21  C   UNL     1      -8.244   4.339  66.329  1.00  0.00    -0.102 C  
HETATM   22  N   UNL     1      -8.628   3.905  67.677  1.00  0.00    -0.098 NA 
HETATM   23  C   UNL     1      -9.303   4.980  68.417  1.00  0.00    -0.126 C  
HETATM   24  C   UNL     1      -9.394   2.665  67.658  1.00  0.00    -0.163 C  
HETATM   25  C   UNL     1     -10.471   5.620  67.663  1.00  0.00    -0.284 C  
ENDBRANCH  18  19
ENDBRANCH   8   9
ENDBRANCH   7   8
ENDBRANCH   4   7
ENDBRANCH   2   4
TORSDOF 5
ENDMDL
MODEL      191
REMARK 921   NORMALIZED FREE ENERGY PREDICTED BY IDOCK:   -3.44 KCAL/MOL
REMARK 922        TOTAL FREE ENERGY PREDICTED BY IDOCK:   -4.79 KCAL/MOL
REMARK 923 INTER-LIGAND FREE ENERGY PREDICTED BY IDOCK:   -4.38 KCAL/MOL
REMARK 924 INTRA-LIGAND FREE ENERGY PREDICTED BY IDOCK:   -0.41 KCAL/MOL
REMARK 927      BINDING AFFINITY PREDICTED BY RF-SCORE:    0.00 PKD
ROOT
HETATM    1  C   UNL     1     -14.198   7.171  71.837  1.00  0.00    -0.279 C  
HETATM    2  N   UNL     1     -12.782   6.940  72.135  1.00  0.00    -0.542 N  
HETATM    3  H   UNL     1     -12.494   6.409  72.958  1.00  0.00     0.000 HD 
ENDROOT
BRANCH   2   4
HETATM    4  S   UNL     1     -11.645   7.586  71.067  1.00  0.00    -0.284 S  
HETATM    5  O   UNL     1     -11.998   8.972  70.851  1.00  0.00    -0.282 OA 
HETATM    6  O   UNL     1     -11.553   6.647  69.974  1.00  0.00    -0.380 OA 
BRANCH   4   7
HETATM    7  C   UNL     1     -10.154   7.494  72.039  1.00  0.00    -0.187 C  
BRANCH   7   8
HETATM    8  C   UNL     1      -8.948   7.163  71.171  1.00  0.00    -0.145 C  
BRANCH   8   9
HETATM    9  C   UNL     1      -8.377   8.360  70.437  1.00  0.00    -0.121 A  
HETATM   10  C   UNL     1      -8.838   8.650  69.136  1.00  0.00    -0.137 A  
HETATM   11  C   UNL     1      -8.289   9.727  68.401  1.00  0.00    -0.110 A  
HETATM   12  C   UNL     1      -7.311  10.501  69.024  1.00  0.00    -0.103 A  
HETATM   13  C   UNL     1      -6.822  10.238  70.303  1.00  0.00    -0.145 A  
HETATM   14  N   UNL     1      -6.957  11.496  68.154  1.00  0.00    -0.067 NA 
HETATM   15  C   UNL     1      -7.358   9.147  70.988  1.00  0.00    -0.116 A  
HETATM   16  H   UNL     1      -6.256  12.214  68.339  1.00  0.00     0.000 HD 
HETATM   17  C   UNL     1      -7.679  11.386  67.001  1.00  0.00    -0.154 A  
HETATM   18  C   UNL     1      -8.475  10.253  67.070  1.00  0.00    -0.129 A  
BRANCH  18  19
HETATM   19  C   UNL     1      -9.363   9.706  65.961  1.00  0.00    -0.263 C  
HETATM   20  C   UNL     1      -9.302  10.527  64.655  1.00  0.00    -0.294 C  
HETATM   21  C   UNL     1      -7.975  10.330  63.904  1.00  0.00    -0.126 C  
HETATM   22  N   UNL     1      -7.627   8.930  63.639  1.00  0.00    -0.113 NA 
HETATM   23  C   UNL     1      -7.723   8.111  64.854  1.00  0.00    -0.116 C  
HETATM   24  C   UNL     1      -8.387   8.377  62.524  1.00  0.00    -0.165 C  
HETATM   25  C   UNL     1      -9.057   8.244  65.593  1.00  0.00    -0.122 C  
ENDBRANCH  18  19
ENDBRANCH   8   9
ENDBRANCH   7   8
ENDBRANCH   4   7
ENDBRANCH   2   4
TORSDOF 5
ENDMDL
MODEL      192
REMARK 921   NORMALIZED FREE ENERGY PREDICTED BY IDOCK:   -3.42 KCAL/MOL
REMARK 922        TOTAL FREE ENERGY PREDICTED BY IDOCK:   -4.76 KCAL/MOL
REMARK 923 INTER-LIGAND FREE ENERGY PREDICTED BY IDOCK:   -4.38 KCAL/MOL
REMARK 924 INTRA-LIGAND FREE ENERGY PREDICTED BY IDOCK:   -0.38 KCAL/MOL
REMARK 927      BINDING AFFINITY PREDICTED BY RF-SCORE:    0.00 PKD
ROOT
HETATM    1  C   UNL     1      -9.996  16.035  69.635  1.00  0.00    -0.226 C  
HETATM    2  N   UNL     1     -10.485  15.696  68.296  1.00  0.00    -0.246 N  
HETATM    3  H   UNL     1     -10.167  16.207  67.472  1.00  0.00     0.000 HD 
ENDROOT
BRANCH   2   4
HETATM    4  S   UNL     1     -11.591  14.427  68.168  1.00  0.00    -0.344 S  
HETATM    5  O   UNL     1     -11.671  14.065  66.770  1.00  0.00    -0.364 OA 
HETATM    6  O   UNL     1     -12.757  14.844  68.912  1.00  0.00     0.200 OA 
BRANCH   4   7
HETATM    7  C   UNL     1     -10.756  13.137  69.071  1.00  0.00    -0.107 C  
BRANCH   7   8
HETATM    8  C   UNL     1     -11.733  12.067  69.537  1.00  0.00    -0.408 C  
BRANCH   8   9
HETATM    9  C   UNL     1     -11.271  10.652  69.250  1.00  0.00    -0.332 A  
HETATM   10  C   UNL     1     -10.617  10.378  68.030  1.00  0.00    -0.259 A  
HETATM   11  C   UNL     1     -10.220   9.059  67.706  1.00  0.00    -0.284 A  
HETATM   12  C   UNL     1     -10.467   8.062  68.649  1.00  0.00    -0.167 A  
HETATM   13  C   UNL     1     -11.121   8.291  69.859  1.00  0.00    -0.100 A  
HETATM   14  N   UNL     1      -9.971   6.889  68.147  1.00  0.00    -0.150 NA 
HETATM   15  C   UNL     1     -11.532   9.596  70.133  1.00  0.00    -0.238 A  
HETATM   16  H   UNL     1     -10.013   5.986  68.619  1.00  0.00     0.000 HD 
HETATM   17  C   UNL     1      -9.412   7.106  66.922  1.00  0.00    -0.159 A  
HETATM   18  C   UNL     1      -9.605   8.431  66.563  1.00  0.00    -0.304 A  
BRANCH  18  19
HETATM   19  C   UNL     1      -9.225   9.070  65.233  1.00  0.00    -0.205 C  
HETATM   20  C   UNL     1      -8.778  10.542  65.358  1.00  0.00    -0.195 C  
HETATM   21  C   UNL     1      -7.388  10.677  66.000  1.00  0.00    -0.132 C  
HETATM   22  N   UNL     1      -6.338   9.883  65.352  1.00  0.00    -0.082 NA 
HETATM   23  C   UNL     1      -6.752   8.484  65.175  1.00  0.00    -0.064 C  
HETATM   24  C   UNL     1      -5.871  10.495  64.114  1.00  0.00    -0.070 C  
HETATM   25  C   UNL     1      -8.110   8.318  64.487  1.00  0.00    -0.146 C  
ENDBRANCH  18  19
ENDBRANCH   8   9
ENDBRANCH   7   8
ENDBRANCH   4   7
ENDBRANCH   2   4
TORSDOF 5
ENDMDL
MODEL      193
REMARK 921   NORMALIZED FREE ENERGY PREDICTED BY IDOCK:   -3.42 KCAL/MOL
REMARK 922        TOTAL FREE ENERGY PREDICTED BY IDOCK:   -4.76 KCAL/MOL
REMARK 923 INTER-LIGAND FREE ENERGY PREDICTED BY IDOCK:   -5.10 KCAL/MOL
REMARK 924 INTRA-LIGAND FREE ENERGY PREDICTED BY IDOCK:    0.34 KCAL/MOL
REMARK 927      BINDING AFFINITY PREDICTED BY RF-SCORE:    0.00 PKD
ROOT
HETATM    1  C   UNL     1      -7.244   6.968  69.063  1.00  0.00    -0.091 C  
HETATM    2  N   UNL     1      -8.535   6.854  68.379  1.00  0.00    -0.123 N  
HETATM    3  H   UNL     1      -9.414   6.922  68.893  1.00  0.00     0.000 HD 
ENDROOT
BRANCH   2   4
HETATM    4  S   UNL     1      -8.513   6.605  66.709  1.00  0.00    -0.120 S  
HETATM    5  O   UNL     1      -9.888   6.508  66.271  1.00  0.00    -0.100 OA 
HETATM    6  O   UNL     1      -7.567   5.538  66.481  1.00  0.00    -0.086 OA 
BRANCH   4   7
HETATM    7  C   UNL     1      -7.810   8.138  66.133  1.00  0.00    -0.092 C  
BRANCH   7   8
HETATM    8  C   UNL     1      -8.230   8.435  64.700  1.00  0.00    -0.157 C  
BRANCH   8   9
HETATM    9  C   UNL     1      -8.803   9.825  64.507  1.00  0.00    -0.248 A  
HETATM   10  C   UNL     1      -8.987  10.654  65.633  1.00  0.00    -0.203 A  
HETATM   11  C   UNL     1      -9.569  11.936  65.497  1.00  0.00    -0.200 A  
HETATM   12  C   UNL     1      -9.915  12.353  64.213  1.00  0.00    -0.206 A  
HETATM   13  C   UNL     1      -9.760  11.559  63.078  1.00  0.00    -0.382 A  
HETATM   14  N   UNL     1     -10.418  13.622  64.313  1.00  0.00    -0.603 NA 
HETATM   15  C   UNL     1      -9.216  10.286  63.250  1.00  0.00    -0.321 A  
HETATM   16  H   UNL     1     -10.757  14.182  63.531  1.00  0.00     0.000 HD 
HETATM   17  C   UNL     1     -10.399  14.028  65.616  1.00  0.00    -0.329 A  
HETATM   18  C   UNL     1      -9.947  12.987  66.411  1.00  0.00    -0.277 A  
BRANCH  18  19
HETATM   19  C   UNL     1      -9.865  12.982  67.931  1.00  0.00    -0.224 C  
HETATM   20  C   UNL     1     -11.224  13.204  68.627  1.00  0.00    -0.314 C  
HETATM   21  C   UNL     1     -12.143  11.977  68.517  1.00  0.00    -0.056 C  
HETATM   22  N   UNL     1     -11.539  10.721  68.975  1.00  0.00    -0.297 NA 
HETATM   23  C   UNL     1     -10.220  10.503  68.366  1.00  0.00    -0.172 C  
HETATM   24  C   UNL     1     -11.514  10.622  70.429  1.00  0.00    -0.334 C  
HETATM   25  C   UNL     1      -9.263  11.690  68.510  1.00  0.00    -0.163 C  
ENDBRANCH  18  19
ENDBRANCH   8   9
ENDBRANCH   7   8
ENDBRANCH   4   7
ENDBRANCH   2   4
TORSDOF 5
ENDMDL
MODEL      194
REMARK 921   NORMALIZED FREE ENERGY PREDICTED BY IDOCK:   -3.42 KCAL/MOL
REMARK 922        TOTAL FREE ENERGY PREDICTED BY IDOCK:   -4.76 KCAL/MOL
REMARK 923 INTER-LIGAND FREE ENERGY PREDICTED BY IDOCK:   -5.03 KCAL/MOL
REMARK 924 INTRA-LIGAND FREE ENERGY PREDICTED BY IDOCK:    0.27 KCAL/MOL
REMARK 927      BINDING AFFINITY PREDICTED BY RF-SCORE:    0.00 PKD
ROOT
HETATM    1  C   UNL     1     -12.577  12.266  63.240  1.00  0.00    -0.318 C  
HETATM    2  N   UNL     1     -11.397  13.003  63.699  1.00  0.00    -0.592 N  
HETATM    3  H   UNL     1     -10.639  13.241  63.058  1.00  0.00     0.000 HD 
ENDROOT
BRANCH   2   4
HETATM    4  S   UNL     1     -11.338  13.445  65.327  1.00  0.00    -0.303 S  
HETATM    5  O   UNL     1     -12.568  14.143  65.628  1.00  0.00    -0.487 OA 
HETATM    6  O   UNL     1     -10.048  14.062  65.523  1.00  0.00    -0.322 OA 
BRANCH   4   7
HETATM    7  C   UNL     1     -11.347  11.851  66.126  1.00  0.00    -0.324 C  
BRANCH   7   8
HETATM    8  C   UNL     1     -10.992  10.740  65.148  1.00  0.00     0.066 C  
BRANCH   8   9
HETATM    9  C   UNL     1      -9.769   9.940  65.551  1.00  0.00    -0.370 A  
HETATM   10  C   UNL     1      -9.934   8.790  66.350  1.00  0.00    -0.346 A  
HETATM   11  C   UNL     1      -8.811   8.050  66.788  1.00  0.00    -0.157 A  
HETATM   12  C   UNL     1      -7.552   8.481  66.371  1.00  0.00    -0.091 A  
HETATM   13  C   UNL     1      -7.348   9.618  65.591  1.00  0.00    -0.101 A  
HETATM   14  N   UNL     1      -6.629   7.605  66.875  1.00  0.00    -0.060 NA 
HETATM   15  C   UNL     1      -8.474  10.347  65.205  1.00  0.00    -0.173 A  
HETATM   16  H   UNL     1      -5.621   7.672  66.735  1.00  0.00     0.000 HD 
HETATM   17  C   UNL     1      -7.257   6.629  67.594  1.00  0.00    -0.090 A  
HETATM   18  C   UNL     1      -8.616   6.898  67.636  1.00  0.00    -0.121 A  
BRANCH  18  19
HETATM   19  C   UNL     1      -9.667   6.117  68.413  1.00  0.00    -0.133 C  
HETATM   20  C   UNL     1      -9.087   5.292  69.582  1.00  0.00    -0.149 C  
HETATM   21  C   UNL     1      -8.649   6.178  70.760  1.00  0.00    -0.135 C  
HETATM   22  N   UNL     1      -9.684   7.095  71.250  1.00  0.00    -0.170 NA 
HETATM   23  C   UNL     1     -10.290   7.861  70.153  1.00  0.00    -0.215 C  
HETATM   24  C   UNL     1     -10.673   6.415  72.078  1.00  0.00    -0.227 C  
HETATM   25  C   UNL     1     -10.787   7.000  68.989  1.00  0.00    -0.212 C  
ENDBRANCH  18  19
ENDBRANCH   8   9
ENDBRANCH   7   8
ENDBRANCH   4   7
ENDBRANCH   2   4
TORSDOF 5
ENDMDL
MODEL      195
REMARK 921   NORMALIZED FREE ENERGY PREDICTED BY IDOCK:   -3.40 KCAL/MOL
REMARK 922        TOTAL FREE ENERGY PREDICTED BY IDOCK:   -4.74 KCAL/MOL
REMARK 923 INTER-LIGAND FREE ENERGY PREDICTED BY IDOCK:   -4.31 KCAL/MOL
REMARK 924 INTRA-LIGAND FREE ENERGY PREDICTED BY IDOCK:   -0.43 KCAL/MOL
REMARK 927      BINDING AFFINITY PREDICTED BY RF-SCORE:    0.00 PKD
ROOT
HETATM    1  C   UNL     1     -14.029   7.339  71.379  1.00  0.00    -0.304 C  
HETATM    2  N   UNL     1     -13.161   6.637  72.329  1.00  0.00    -0.515 N  
HETATM    3  H   UNL     1     -13.551   6.063  73.077  1.00  0.00     0.000 HD 
ENDROOT
BRANCH   2   4
HETATM    4  S   UNL     1     -11.493   6.812  72.137  1.00  0.00    -0.291 S  
HETATM    5  O   UNL     1     -10.963   5.515  71.779  1.00  0.00    -0.240 OA 
HETATM    6  O   UNL     1     -11.034   7.523  73.306  1.00  0.00    -0.393 OA 
BRANCH   4   7
HETATM    7  C   UNL     1     -11.412   7.900  70.727  1.00  0.00    -0.263 C  
BRANCH   7   8
HETATM    8  C   UNL     1     -10.759   9.226  71.088  1.00  0.00    -0.403 C  
BRANCH   8   9
HETATM    9  C   UNL     1      -9.280   9.289  70.760  1.00  0.00    -0.316 A  
HETATM   10  C   UNL     1      -8.877   9.798  69.508  1.00  0.00    -0.202 A  
HETATM   11  C   UNL     1      -7.509   9.821  69.147  1.00  0.00    -0.082 A  
HETATM   12  C   UNL     1      -6.587   9.359  70.085  1.00  0.00    -0.062 A  
HETATM   13  C   UNL     1      -6.948   8.839  71.327  1.00  0.00    -0.088 A  
HETATM   14  N   UNL     1      -5.339   9.509  69.544  1.00  0.00    -0.035 NA 
HETATM   15  C   UNL     1      -8.307   8.796  71.638  1.00  0.00    -0.190 A  
HETATM   16  H   UNL     1      -4.466   9.251  70.004  1.00  0.00     0.000 HD 
HETATM   17  C   UNL     1      -5.434  10.056  68.297  1.00  0.00    -0.038 A  
HETATM   18  C   UNL     1      -6.772  10.203  67.966  1.00  0.00    -0.063 A  
BRANCH  18  19
HETATM   19  C   UNL     1      -7.324  10.683  66.631  1.00  0.00    -0.129 C  
HETATM   20  C   UNL     1      -6.315  10.577  65.468  1.00  0.00    -0.112 C  
HETATM   21  C   UNL     1      -6.084   9.122  65.028  1.00  0.00    -0.064 C  
HETATM   22  N   UNL     1      -7.309   8.382  64.705  1.00  0.00    -0.089 NA 
HETATM   23  C   UNL     1      -8.310   8.504  65.773  1.00  0.00    -0.140 C  
HETATM   24  C   UNL     1      -7.836   8.738  63.393  1.00  0.00    -0.148 C  
HETATM   25  C   UNL     1      -8.602   9.946  66.193  1.00  0.00    -0.138 C  
ENDBRANCH  18  19
ENDBRANCH   8   9
ENDBRANCH   7   8
ENDBRANCH   4   7
ENDBRANCH   2   4
TORSDOF 5
ENDMDL
MODEL      196
REMARK 921   NORMALIZED FREE ENERGY PREDICTED BY IDOCK:   -3.35 KCAL/MOL
REMARK 922        TOTAL FREE ENERGY PREDICTED BY IDOCK:   -4.67 KCAL/MOL
REMARK 923 INTER-LIGAND FREE ENERGY PREDICTED BY IDOCK:   -4.18 KCAL/MOL
REMARK 924 INTRA-LIGAND FREE ENERGY PREDICTED BY IDOCK:   -0.49 KCAL/MOL
REMARK 927      BINDING AFFINITY PREDICTED BY RF-SCORE:    0.00 PKD
ROOT
HETATM    1  C   UNL     1     -10.616   5.889  68.142  1.00  0.00    -0.244 C  
HETATM    2  N   UNL     1      -9.221   5.619  67.785  1.00  0.00    -0.107 N  
HETATM    3  H   UNL     1      -8.451   6.049  68.297  1.00  0.00     0.000 HD 
ENDROOT
BRANCH   2   4
HETATM    4  S   UNL     1      -8.936   4.568  66.494  1.00  0.00    -0.119 S  
HETATM    5  O   UNL     1      -9.664   5.081  65.354  1.00  0.00    -0.123 OA 
HETATM    6  O   UNL     1      -9.170   3.239  67.008  1.00  0.00    -0.164 OA 
BRANCH   4   7
HETATM    7  C   UNL     1      -7.187   4.792  66.235  1.00  0.00    -0.077 C  
BRANCH   7   8
HETATM    8  C   UNL     1      -6.740   6.186  66.650  1.00  0.00    -0.060 C  
BRANCH   8   9
HETATM    9  C   UNL     1      -6.823   7.211  65.535  1.00  0.00    -0.052 A  
HETATM   10  C   UNL     1      -7.865   8.161  65.553  1.00  0.00    -0.104 A  
HETATM   11  C   UNL     1      -8.005   9.097  64.502  1.00  0.00    -0.127 A  
HETATM   12  C   UNL     1      -7.057   9.063  63.479  1.00  0.00    -0.089 A  
HETATM   13  C   UNL     1      -6.021   8.133  63.421  1.00  0.00    -0.071 A  
HETATM   14  N   UNL     1      -7.361  10.069  62.602  1.00  0.00    -0.124 NA 
HETATM   15  C   UNL     1      -5.932   7.200  64.455  1.00  0.00    -0.037 A  
HETATM   16  H   UNL     1      -6.840  10.282  61.752  1.00  0.00     0.000 HD 
HETATM   17  C   UNL     1      -8.465  10.745  63.034  1.00  0.00    -0.125 A  
HETATM   18  C   UNL     1      -8.954  10.134  64.178  1.00  0.00    -0.267 A  
BRANCH  18  19
HETATM   19  C   UNL     1     -10.226  10.508  64.927  1.00  0.00    -0.371 C  
HETATM   20  C   UNL     1      -9.972  11.045  66.351  1.00  0.00    -0.264 C  
HETATM   21  C   UNL     1      -9.375  12.462  66.342  1.00  0.00    -0.219 C  
HETATM   22  N   UNL     1     -10.139  13.440  65.560  1.00  0.00    -0.288 NA 
HETATM   23  C   UNL     1     -10.439  12.937  64.213  1.00  0.00    -0.407 C  
HETATM   24  C   UNL     1     -11.327  13.902  66.269  1.00  0.00    -0.324 C  
HETATM   25  C   UNL     1     -11.087  11.551  64.194  1.00  0.00    -0.417 C  
ENDBRANCH  18  19
ENDBRANCH   8   9
ENDBRANCH   7   8
ENDBRANCH   4   7
ENDBRANCH   2   4
TORSDOF 5
ENDMDL
MODEL      197
REMARK 921   NORMALIZED FREE ENERGY PREDICTED BY IDOCK:   -3.33 KCAL/MOL
REMARK 922        TOTAL FREE ENERGY PREDICTED BY IDOCK:   -4.64 KCAL/MOL
REMARK 923 INTER-LIGAND FREE ENERGY PREDICTED BY IDOCK:   -4.12 KCAL/MOL
REMARK 924 INTRA-LIGAND FREE ENERGY PREDICTED BY IDOCK:   -0.52 KCAL/MOL
REMARK 927      BINDING AFFINITY PREDICTED BY RF-SCORE:    0.00 PKD
ROOT
HETATM    1  C   UNL     1     -12.006   6.364  72.118  1.00  0.00    -0.298 C  
HETATM    2  N   UNL     1     -11.008   5.295  72.205  1.00  0.00    -0.214 N  
HETATM    3  H   UNL     1     -11.218   4.348  71.887  1.00  0.00     0.000 HD 
ENDROOT
BRANCH   2   4
HETATM    4  S   UNL     1      -9.500   5.688  72.853  1.00  0.00    -0.147 S  
HETATM    5  O   UNL     1      -9.214   4.724  73.893  1.00  0.00    -0.115 OA 
HETATM    6  O   UNL     1      -9.544   7.106  73.124  1.00  0.00    -0.149 OA 
BRANCH   4   7
HETATM    7  C   UNL     1      -8.429   5.397  71.458  1.00  0.00    -0.127 C  
BRANCH   7   8
HETATM    8  C   UNL     1      -9.171   4.696  70.329  1.00  0.00    -0.195 C  
BRANCH   8   9
HETATM    9  C   UNL     1      -9.423   5.581  69.123  1.00  0.00    -0.169 A  
HETATM   10  C   UNL     1      -9.289   6.978  69.258  1.00  0.00    -0.145 A  
HETATM   11  C   UNL     1      -9.569   7.837  68.169  1.00  0.00    -0.161 A  
HETATM   12  C   UNL     1      -9.942   7.247  66.962  1.00  0.00    -0.224 A  
HETATM   13  C   UNL     1     -10.097   5.872  66.794  1.00  0.00    -0.235 A  
HETATM   14  N   UNL     1     -10.123   8.252  66.051  1.00  0.00    -0.393 NA 
HETATM   15  C   UNL     1      -9.848   5.054  67.897  1.00  0.00    -0.200 A  
HETATM   16  H   UNL     1     -10.404   8.118  65.080  1.00  0.00     0.000 HD 
HETATM   17  C   UNL     1      -9.872   9.460  66.634  1.00  0.00    -0.245 A  
HETATM   18  C   UNL     1      -9.593   9.267  67.978  1.00  0.00    -0.161 A  
BRANCH  18  19
HETATM   19  C   UNL     1      -9.353  10.356  69.015  1.00  0.00    -0.201 C  
HETATM   20  C   UNL     1      -8.054  10.165  69.825  1.00  0.00    -0.167 C  
HETATM   21  C   UNL     1      -6.797  10.464  68.991  1.00  0.00    -0.064 C  
HETATM   22  N   UNL     1      -6.798  11.777  68.338  1.00  0.00    -0.064 NA 
HETATM   23  C   UNL     1      -8.045  12.010  67.596  1.00  0.00    -0.155 C  
HETATM   24  C   UNL     1      -6.485  12.855  69.269  1.00  0.00    -0.104 C  
HETATM   25  C   UNL     1      -9.314  11.774  68.419  1.00  0.00    -0.185 C  
ENDBRANCH  18  19
ENDBRANCH   8   9
ENDBRANCH   7   8
ENDBRANCH   4   7
ENDBRANCH   2   4
TORSDOF 5
ENDMDL
MODEL      198
REMARK 921   NORMALIZED FREE ENERGY PREDICTED BY IDOCK:   -3.33 KCAL/MOL
REMARK 922        TOTAL FREE ENERGY PREDICTED BY IDOCK:   -4.64 KCAL/MOL
REMARK 923 INTER-LIGAND FREE ENERGY PREDICTED BY IDOCK:   -4.93 KCAL/MOL
REMARK 924 INTRA-LIGAND FREE ENERGY PREDICTED BY IDOCK:    0.29 KCAL/MOL
REMARK 927      BINDING AFFINITY PREDICTED BY RF-SCORE:    0.00 PKD
ROOT
HETATM    1  C   UNL     1     -12.548  12.226  63.716  1.00  0.00    -0.470 C  
HETATM    2  N   UNL     1     -11.504  11.237  63.436  1.00  0.00    -0.742 N  
HETATM    3  H   UNL     1     -11.668  10.463  62.791  1.00  0.00     0.000 HD 
ENDROOT
BRANCH   2   4
HETATM    4  S   UNL     1     -10.020  11.425  64.220  1.00  0.00    -0.304 S  
HETATM    5  O   UNL     1      -9.225  12.332  63.422  1.00  0.00     0.028 OA 
HETATM    6  O   UNL     1      -9.566  10.091  64.532  1.00  0.00    -0.293 OA 
BRANCH   4   7
HETATM    7  C   UNL     1     -10.517  12.237  65.727  1.00  0.00    -0.255 C  
BRANCH   7   8
HETATM    8  C   UNL     1      -9.444  13.199  66.217  1.00  0.00    -0.194 C  
BRANCH   8   9
HETATM    9  C   UNL     1      -8.508  12.596  67.246  1.00  0.00    -0.193 A  
HETATM   10  C   UNL     1      -8.886  11.408  67.905  1.00  0.00    -0.149 A  
HETATM   11  C   UNL     1      -8.062  10.847  68.909  1.00  0.00    -0.144 A  
HETATM   12  C   UNL     1      -6.858  11.492  69.188  1.00  0.00    -0.112 A  
HETATM   13  C   UNL     1      -6.455  12.673  68.567  1.00  0.00    -0.074 A  
HETATM   14  N   UNL     1      -6.214  10.763  70.151  1.00  0.00    -0.122 NA 
HETATM   15  C   UNL     1      -7.308  13.221  67.607  1.00  0.00    -0.164 A  
HETATM   16  H   UNL     1      -5.308  10.998  70.556  1.00  0.00     0.000 HD 
HETATM   17  C   UNL     1      -6.963   9.674  70.489  1.00  0.00    -0.130 A  
HETATM   18  C   UNL     1      -8.164   9.716  69.798  1.00  0.00    -0.168 A  
BRANCH  18  19
HETATM   19  C   UNL     1      -9.329   8.747  69.953  1.00  0.00    -0.165 C  
HETATM   20  C   UNL     1     -10.578   9.143  69.138  1.00  0.00    -0.224 C  
HETATM   21  C   UNL     1     -10.386   8.915  67.630  1.00  0.00    -0.251 C  
HETATM   22  N   UNL     1      -9.954   7.561  67.269  1.00  0.00    -0.188 NA 
HETATM   23  C   UNL     1      -8.794   7.135  68.063  1.00  0.00    -0.129 C  
HETATM   24  C   UNL     1     -11.052   6.603  67.314  1.00  0.00    -0.345 C  
HETATM   25  C   UNL     1      -8.978   7.298  69.574  1.00  0.00    -0.144 C  
ENDBRANCH  18  19
ENDBRANCH   8   9
ENDBRANCH   7   8
ENDBRANCH   4   7
ENDBRANCH   2   4
TORSDOF 5
ENDMDL
MODEL      199
REMARK 921   NORMALIZED FREE ENERGY PREDICTED BY IDOCK:   -3.25 KCAL/MOL
REMARK 922        TOTAL FREE ENERGY PREDICTED BY IDOCK:   -4.55 KCAL/MOL
REMARK 923 INTER-LIGAND FREE ENERGY PREDICTED BY IDOCK:   -3.91 KCAL/MOL
REMARK 924 INTRA-LIGAND FREE ENERGY PREDICTED BY IDOCK:   -0.64 KCAL/MOL
REMARK 927      BINDING AFFINITY PREDICTED BY RF-SCORE:    0.00 PKD
ROOT
HETATM    1  C   UNL     1     -12.572   7.135  71.099  1.00  0.00    -0.341 C  
HETATM    2  N   UNL     1     -11.644   6.398  71.961  1.00  0.00    -0.308 N  
HETATM    3  H   UNL     1     -11.886   5.481  72.337  1.00  0.00     0.000 HD 
ENDROOT
BRANCH   2   4
HETATM    4  S   UNL     1     -10.160   7.124  72.308  1.00  0.00    -0.184 S  
HETATM    5  O   UNL     1     -10.063   7.238  73.747  1.00  0.00    -0.326 OA 
HETATM    6  O   UNL     1     -10.075   8.281  71.448  1.00  0.00    -0.183 OA 
BRANCH   4   7
HETATM    7  C   UNL     1      -9.017   5.885  71.729  1.00  0.00    -0.139 C  
BRANCH   7   8
HETATM    8  C   UNL     1      -9.709   4.871  70.829  1.00  0.00    -0.268 C  
BRANCH   8   9
HETATM    9  C   UNL     1      -9.338   5.001  69.365  1.00  0.00    -0.179 A  
HETATM   10  C   UNL     1      -8.676   6.166  68.925  1.00  0.00    -0.123 A  
HETATM   11  C   UNL     1      -8.363   6.344  67.557  1.00  0.00    -0.117 A  
HETATM   12  C   UNL     1      -8.701   5.315  66.680  1.00  0.00    -0.113 A  
HETATM   13  C   UNL     1      -9.365   4.155  67.074  1.00  0.00    -0.195 A  
HETATM   14  N   UNL     1      -8.275   5.681  65.432  1.00  0.00    -0.126 NA 
HETATM   15  C   UNL     1      -9.692   4.025  68.425  1.00  0.00    -0.135 A  
HETATM   16  H   UNL     1      -8.390   5.123  64.586  1.00  0.00     0.000 HD 
HETATM   17  C   UNL     1      -7.673   6.904  65.486  1.00  0.00    -0.101 A  
HETATM   18  C   UNL     1      -7.765   7.400  66.777  1.00  0.00    -0.109 A  
BRANCH  18  19
HETATM   19  C   UNL     1      -7.310   8.774  67.251  1.00  0.00    -0.081 C  
HETATM   20  C   UNL     1      -7.180   9.810  66.114  1.00  0.00    -0.100 C  
HETATM   21  C   UNL     1      -8.548  10.272  65.586  1.00  0.00    -0.161 C  
HETATM   22  N   UNL     1      -9.464  10.767  66.620  1.00  0.00    -0.172 NA 
HETATM   23  C   UNL     1      -9.573   9.823  67.741  1.00  0.00    -0.135 C  
HETATM   24  C   UNL     1      -9.129  12.119  67.050  1.00  0.00    -0.198 C  
HETATM   25  C   UNL     1      -8.226   9.388  68.324  1.00  0.00    -0.118 C  
ENDBRANCH  18  19
ENDBRANCH   8   9
ENDBRANCH   7   8
ENDBRANCH   4   7
ENDBRANCH   2   4
TORSDOF 5
ENDMDL
MODEL      200
REMARK 921   NORMALIZED FREE ENERGY PREDICTED BY IDOCK:   -3.20 KCAL/MOL
REMARK 922        TOTAL FREE ENERGY PREDICTED BY IDOCK:   -4.47 KCAL/MOL
REMARK 923 INTER-LIGAND FREE ENERGY PREDICTED BY IDOCK:   -4.28 KCAL/MOL
REMARK 924 INTRA-LIGAND FREE ENERGY PREDICTED BY IDOCK:   -0.19 KCAL/MOL
REMARK 927      BINDING AFFINITY PREDICTED BY RF-SCORE:    0.00 PKD
ROOT
HETATM    1  C   UNL     1      -5.934   7.313  65.708  1.00  0.00    -0.037 C  
HETATM    2  N   UNL     1      -7.234   6.689  65.969  1.00  0.00    -0.069 N  
HETATM    3  H   UNL     1      -7.835   6.377  65.205  1.00  0.00     0.000 HD 
ENDROOT
BRANCH   2   4
HETATM    4  S   UNL     1      -7.700   6.505  67.581  1.00  0.00    -0.108 S  
HETATM    5  O   UNL     1      -7.230   5.209  68.019  1.00  0.00    -0.065 OA 
HETATM    6  O   UNL     1      -9.099   6.861  67.630  1.00  0.00    -0.120 OA 
BRANCH   4   7
HETATM    7  C   UNL     1      -6.746   7.785  68.373  1.00  0.00    -0.062 C  
BRANCH   7   8
HETATM    8  C   UNL     1      -7.224   8.028  69.798  1.00  0.00    -0.065 C  
BRANCH   8   9
HETATM    9  C   UNL     1      -8.468   8.890  69.886  1.00  0.00    -0.135 A  
HETATM   10  C   UNL     1      -8.677   9.894  68.918  1.00  0.00    -0.140 A  
HETATM   11  C   UNL     1      -9.800  10.751  69.000  1.00  0.00    -0.208 A  
HETATM   12  C   UNL     1     -10.698  10.539  70.045  1.00  0.00    -0.224 A  
HETATM   13  C   UNL     1     -10.519   9.565  71.027  1.00  0.00    -0.377 A  
HETATM   14  N   UNL     1     -11.713  11.446  69.907  1.00  0.00    -0.321 NA 
HETATM   15  C   UNL     1      -9.383   8.760  70.938  1.00  0.00    -0.266 A  
HETATM   16  H   UNL     1     -12.514  11.529  70.533  1.00  0.00     0.000 HD 
HETATM   17  C   UNL     1     -11.495  12.224  68.807  1.00  0.00    -0.311 A  
HETATM   18  C   UNL     1     -10.276  11.884  68.243  1.00  0.00    -0.207 A  
BRANCH  18  19
HETATM   19  C   UNL     1      -9.605  12.570  67.061  1.00  0.00    -0.216 C  
HETATM   20  C   UNL     1     -10.467  13.675  66.415  1.00  0.00    -0.288 C  
HETATM   21  C   UNL     1     -10.559  14.933  67.294  1.00  0.00    -0.272 C  
HETATM   22  N   UNL     1      -9.264  15.480  67.711  1.00  0.00    -0.180 NA 
HETATM   23  C   UNL     1      -8.399  14.442  68.288  1.00  0.00    -0.158 C  
HETATM   24  C   UNL     1      -8.613  16.227  66.641  1.00  0.00    -0.267 C  
HETATM   25  C   UNL     1      -8.244  13.199  67.407  1.00  0.00    -0.187 C  
ENDBRANCH  18  19
ENDBRANCH   8   9
ENDBRANCH   7   8
ENDBRANCH   4   7
ENDBRANCH   2   4
TORSDOF 5
ENDMDL
MODEL      201
REMARK 921   NORMALIZED FREE ENERGY PREDICTED BY IDOCK:   -3.11 KCAL/MOL
REMARK 922        TOTAL FREE ENERGY PREDICTED BY IDOCK:   -4.36 KCAL/MOL
REMARK 923 INTER-LIGAND FREE ENERGY PREDICTED BY IDOCK:   -4.04 KCAL/MOL
REMARK 924 INTRA-LIGAND FREE ENERGY PREDICTED BY IDOCK:   -0.32 KCAL/MOL
REMARK 927      BINDING AFFINITY PREDICTED BY RF-SCORE:    0.00 PKD
ROOT
HETATM    1  C   UNL     1     -10.489  14.130  68.356  1.00  0.00    -0.254 C  
HETATM    2  N   UNL     1      -9.824  13.066  67.600  1.00  0.00    -0.207 N  
HETATM    3  H   UNL     1      -8.935  13.231  67.126  1.00  0.00     0.000 HD 
ENDROOT
BRANCH   2   4
HETATM    4  S   UNL     1     -10.582  11.559  67.542  1.00  0.00    -0.217 S  
HETATM    5  O   UNL     1     -10.497  11.086  66.178  1.00  0.00    -0.246 OA 
HETATM    6  O   UNL     1     -11.852  11.731  68.208  1.00  0.00    -0.413 OA 
BRANCH   4   7
HETATM    7  C   UNL     1      -9.510  10.584  68.580  1.00  0.00    -0.172 C  
BRANCH   7   8
HETATM    8  C   UNL     1     -10.251  10.060  69.802  1.00  0.00    -0.286 C  
BRANCH   8   9
HETATM    9  C   UNL     1      -9.872   8.642  70.184  1.00  0.00    -0.191 A  
HETATM   10  C   UNL     1      -9.798   7.657  69.177  1.00  0.00    -0.171 A  
HETATM   11  C   UNL     1      -9.500   6.313  69.504  1.00  0.00    -0.151 A  
HETATM   12  C   UNL     1      -9.250   6.017  70.844  1.00  0.00    -0.154 A  
HETATM   13  C   UNL     1      -9.325   6.960  71.867  1.00  0.00    -0.145 A  
HETATM   14  N   UNL     1      -8.949   4.684  70.921  1.00  0.00    -0.117 NA 
HETATM   15  C   UNL     1      -9.656   8.269  71.516  1.00  0.00    -0.247 A  
HETATM   16  H   UNL     1      -8.725   4.183  71.781  1.00  0.00     0.000 HD 
HETATM   17  C   UNL     1      -8.993   4.124  69.678  1.00  0.00    -0.101 A  
HETATM   18  C   UNL     1      -9.405   5.080  68.763  1.00  0.00    -0.175 A  
BRANCH  18  19
HETATM   19  C   UNL     1      -9.682   4.852  67.282  1.00  0.00    -0.194 C  
HETATM   20  C   UNL     1      -8.848   5.755  66.350  1.00  0.00    -0.131 C  
HETATM   21  C   UNL     1      -7.370   5.335  66.299  1.00  0.00    -0.082 C  
HETATM   22  N   UNL     1      -7.150   3.923  65.967  1.00  0.00    -0.065 NA 
HETATM   23  C   UNL     1      -7.967   3.037  66.806  1.00  0.00    -0.080 C  
HETATM   24  C   UNL     1      -7.315   3.661  64.542  1.00  0.00    -0.067 C  
HETATM   25  C   UNL     1      -9.455   3.399  66.832  1.00  0.00    -0.174 C  
ENDBRANCH  18  19
ENDBRANCH   8   9
ENDBRANCH   7   8
ENDBRANCH   4   7
ENDBRANCH   2   4
TORSDOF 5
ENDMDL
MODEL      202
REMARK 921   NORMALIZED FREE ENERGY PREDICTED BY IDOCK:   -3.06 KCAL/MOL
REMARK 922        TOTAL FREE ENERGY PREDICTED BY IDOCK:   -4.30 KCAL/MOL
REMARK 923 INTER-LIGAND FREE ENERGY PREDICTED BY IDOCK:   -3.92 KCAL/MOL
REMARK 924 INTRA-LIGAND FREE ENERGY PREDICTED BY IDOCK:   -0.38 KCAL/MOL
REMARK 927      BINDING AFFINITY PREDICTED BY RF-SCORE:    0.00 PKD
ROOT
HETATM    1  C   UNL     1      -7.774   6.944  63.232  1.00  0.00    -0.110 C  
HETATM    2  N   UNL     1      -8.514   8.138  63.651  1.00  0.00    -0.400 N  
HETATM    3  H   UNL     1      -9.497   8.084  63.920  1.00  0.00     0.000 HD 
ENDROOT
BRANCH   2   4
HETATM    4  S   UNL     1      -7.678   9.604  63.674  1.00  0.00    -0.136 S  
HETATM    5  O   UNL     1      -7.907  10.249  62.400  1.00  0.00    -0.129 OA 
HETATM    6  O   UNL     1      -6.347   9.293  64.139  1.00  0.00    -0.082 OA 
BRANCH   4   7
HETATM    7  C   UNL     1      -8.548  10.488  64.955  1.00  0.00    -0.172 C  
BRANCH   7   8
HETATM    8  C   UNL     1      -9.917   9.875  65.217  1.00  0.00    -0.320 C  
BRANCH   8   9
HETATM    9  C   UNL     1     -10.057   9.260  66.595  1.00  0.00    -0.341 A  
HETATM   10  C   UNL     1      -9.916   7.864  66.741  1.00  0.00    -0.333 A  
HETATM   11  C   UNL     1     -10.093   7.250  68.003  1.00  0.00    -0.207 A  
HETATM   12  C   UNL     1     -10.373   8.078  69.089  1.00  0.00    -0.220 A  
HETATM   13  C   UNL     1     -10.531   9.459  68.983  1.00  0.00    -0.233 A  
HETATM   14  N   UNL     1     -10.464   7.284  70.200  1.00  0.00    -0.213 NA 
HETATM   15  C   UNL     1     -10.385  10.030  67.718  1.00  0.00    -0.261 A  
HETATM   16  H   UNL     1     -10.666   7.616  71.143  1.00  0.00     0.000 HD 
HETATM   17  C   UNL     1     -10.247   5.981  69.859  1.00  0.00    -0.205 A  
HETATM   18  C   UNL     1     -10.083   5.890  68.486  1.00  0.00    -0.210 A  
BRANCH  18  19
HETATM   19  C   UNL     1      -9.916   4.610  67.679  1.00  0.00    -0.161 C  
HETATM   20  C   UNL     1      -8.687   4.621  66.746  1.00  0.00    -0.111 C  
HETATM   21  C   UNL     1      -7.365   4.491  67.521  1.00  0.00    -0.073 C  
HETATM   22  N   UNL     1      -7.302   3.340  68.428  1.00  0.00    -0.050 NA 
HETATM   23  C   UNL     1      -8.484   3.274  69.299  1.00  0.00    -0.062 C  
HETATM   24  C   UNL     1      -7.054   2.092  67.717  1.00  0.00    -0.047 C  
HETATM   25  C   UNL     1      -9.816   3.344  68.549  1.00  0.00     0.153 C  
ENDBRANCH  18  19
ENDBRANCH   8   9
ENDBRANCH   7   8
ENDBRANCH   4   7
ENDBRANCH   2   4
TORSDOF 5
ENDMDL
MODEL      203
REMARK 921   NORMALIZED FREE ENERGY PREDICTED BY IDOCK:   -3.05 KCAL/MOL
REMARK 922        TOTAL FREE ENERGY PREDICTED BY IDOCK:   -4.28 KCAL/MOL
REMARK 923 INTER-LIGAND FREE ENERGY PREDICTED BY IDOCK:   -3.75 KCAL/MOL
REMARK 924 INTRA-LIGAND FREE ENERGY PREDICTED BY IDOCK:   -0.53 KCAL/MOL
REMARK 927      BINDING AFFINITY PREDICTED BY RF-SCORE:    0.00 PKD
ROOT
HETATM    1  C   UNL     1      -9.518   2.867  62.904  1.00  0.00    -0.093 C  
HETATM    2  N   UNL     1      -8.292   2.964  63.700  1.00  0.00    -0.085 N  
HETATM    3  H   UNL     1      -7.555   2.262  63.623  1.00  0.00     0.000 HD 
ENDROOT
BRANCH   2   4
HETATM    4  S   UNL     1      -8.145   4.278  64.748  1.00  0.00    -0.096 S  
HETATM    5  O   UNL     1      -8.505   5.465  64.003  1.00  0.00    -0.134 OA 
HETATM    6  O   UNL     1      -6.852   4.140  65.376  1.00  0.00    -0.054 OA 
BRANCH   4   7
HETATM    7  C   UNL     1      -9.414   3.919  65.947  1.00  0.00    -0.181 C  
BRANCH   7   8
HETATM    8  C   UNL     1     -10.564   4.911  65.849  1.00  0.00    -0.280 C  
BRANCH   8   9
HETATM    9  C   UNL     1     -10.553   5.967  66.936  1.00  0.00    -0.384 A  
HETATM   10  C   UNL     1     -10.128   7.274  66.618  1.00  0.00    -0.238 A  
HETATM   11  C   UNL     1     -10.054   8.271  67.619  1.00  0.00    -0.268 A  
HETATM   12  C   UNL     1     -10.450   7.920  68.909  1.00  0.00    -0.190 A  
HETATM   13  C   UNL     1     -10.866   6.638  69.264  1.00  0.00    -0.335 A  
HETATM   14  N   UNL     1     -10.335   9.036  69.693  1.00  0.00    -0.206 NA 
HETATM   15  C   UNL     1     -10.893   5.667  68.261  1.00  0.00    -0.159 A  
HETATM   16  H   UNL     1     -10.553   9.077  70.689  1.00  0.00     0.000 HD 
HETATM   17  C   UNL     1      -9.884  10.085  68.947  1.00  0.00    -0.184 A  
HETATM   18  C   UNL     1      -9.620   9.647  67.659  1.00  0.00    -0.167 A  
BRANCH  18  19
HETATM   19  C   UNL     1      -9.011  10.471  66.532  1.00  0.00    -0.171 C  
HETATM   20  C   UNL     1      -8.245  11.718  67.021  1.00  0.00    -0.172 C  
HETATM   21  C   UNL     1      -6.909  11.357  67.690  1.00  0.00    -0.080 C  
HETATM   22  N   UNL     1      -6.030  10.508  66.877  1.00  0.00    -0.056 NA 
HETATM   23  C   UNL     1      -6.744   9.335  66.357  1.00  0.00    -0.071 C  
HETATM   24  C   UNL     1      -5.348  11.264  65.834  1.00  0.00    -0.028 C  
HETATM   25  C   UNL     1      -8.052   9.670  65.635  1.00  0.00    -0.117 C  
ENDBRANCH  18  19
ENDBRANCH   8   9
ENDBRANCH   7   8
ENDBRANCH   4   7
ENDBRANCH   2   4
TORSDOF 5
ENDMDL
MODEL      204
REMARK 921   NORMALIZED FREE ENERGY PREDICTED BY IDOCK:   -3.04 KCAL/MOL
REMARK 922        TOTAL FREE ENERGY PREDICTED BY IDOCK:   -4.28 KCAL/MOL
REMARK 923 INTER-LIGAND FREE ENERGY PREDICTED BY IDOCK:   -3.76 KCAL/MOL
REMARK 924 INTRA-LIGAND FREE ENERGY PREDICTED BY IDOCK:   -0.51 KCAL/MOL
REMARK 927      BINDING AFFINITY PREDICTED BY RF-SCORE:    0.00 PKD
ROOT
HETATM    1  C   UNL     1     -10.104   9.561  66.189  1.00  0.00    -0.256 C  
HETATM    2  N   UNL     1     -10.903   9.247  67.377  1.00  0.00    -0.412 N  
HETATM    3  H   UNL     1     -11.879   9.538  67.450  1.00  0.00     0.000 HD 
ENDROOT
BRANCH   2   4
HETATM    4  S   UNL     1     -10.149   8.387  68.618  1.00  0.00    -0.196 S  
HETATM    5  O   UNL     1      -8.725   8.600  68.485  1.00  0.00    -0.137 OA 
HETATM    6  O   UNL     1     -10.725   7.063  68.587  1.00  0.00    -0.215 OA 
BRANCH   4   7
HETATM    7  C   UNL     1     -10.749   9.247  70.059  1.00  0.00    -0.232 C  
BRANCH   7   8
HETATM    8  C   UNL     1      -9.948   8.874  71.299  1.00  0.00    -0.358 C  
BRANCH   8   9
HETATM    9  C   UNL     1     -10.229   7.473  71.807  1.00  0.00    -0.216 A  
HETATM   10  C   UNL     1      -9.194   6.514  71.781  1.00  0.00    -0.149 A  
HETATM   11  C   UNL     1      -9.435   5.184  72.198  1.00  0.00    -0.170 A  
HETATM   12  C   UNL     1     -10.713   4.875  72.664  1.00  0.00    -0.213 A  
HETATM   13  C   UNL     1     -11.762   5.792  72.694  1.00  0.00    -0.256 A  
HETATM   14  N   UNL     1     -10.706   3.561  73.044  1.00  0.00    -0.163 NA 
HETATM   15  C   UNL     1     -11.502   7.086  72.242  1.00  0.00    -0.308 A  
HETATM   16  H   UNL     1     -11.508   3.056  73.422  1.00  0.00     0.000 HD 
HETATM   17  C   UNL     1      -9.468   3.024  72.842  1.00  0.00    -0.094 A  
HETATM   18  C   UNL     1      -8.653   3.972  72.245  1.00  0.00    -0.113 A  
BRANCH  18  19
HETATM   19  C   UNL     1      -7.225   3.758  71.760  1.00  0.00    -0.053 C  
HETATM   20  C   UNL     1      -6.861   2.275  71.540  1.00  0.00    -0.030 C  
HETATM   21  C   UNL     1      -7.539   1.687  70.292  1.00  0.00    -0.035 C  
HETATM   22  N   UNL     1      -7.316   2.452  69.060  1.00  0.00    -0.044 NA 
HETATM   23  C   UNL     1      -7.609   3.879  69.250  1.00  0.00    -0.053 C  
HETATM   24  C   UNL     1      -5.991   2.216  68.499  1.00  0.00    -0.024 C  
HETATM   25  C   UNL     1      -6.901   4.505  70.455  1.00  0.00    -0.037 C  
ENDBRANCH  18  19
ENDBRANCH   8   9
ENDBRANCH   7   8
ENDBRANCH   4   7
ENDBRANCH   2   4
TORSDOF 5
ENDMDL
MODEL      205
REMARK 921   NORMALIZED FREE ENERGY PREDICTED BY IDOCK:   -3.01 KCAL/MOL
REMARK 922        TOTAL FREE ENERGY PREDICTED BY IDOCK:   -4.24 KCAL/MOL
REMARK 923 INTER-LIGAND FREE ENERGY PREDICTED BY IDOCK:   -5.12 KCAL/MOL
REMARK 924 INTRA-LIGAND FREE ENERGY PREDICTED BY IDOCK:    0.89 KCAL/MOL
REMARK 927      BINDING AFFINITY PREDICTED BY RF-SCORE:    0.00 PKD
ROOT
HETATM    1  C   UNL     1     -11.876   8.117  71.325  1.00  0.00    -0.287 C  
HETATM    2  N   UNL     1     -11.273   9.274  70.656  1.00  0.00    -0.261 N  
HETATM    3  H   UNL     1     -11.780  10.156  70.566  1.00  0.00     0.000 HD 
ENDROOT
BRANCH   2   4
HETATM    4  S   UNL     1      -9.712   9.093  70.041  1.00  0.00    -0.210 S  
HETATM    5  O   UNL     1      -9.690   7.864  69.279  1.00  0.00    -0.157 OA 
HETATM    6  O   UNL     1      -8.821   9.311  71.156  1.00  0.00    -0.257 OA 
BRANCH   4   7
HETATM    7  C   UNL     1      -9.605  10.484  68.932  1.00  0.00    -0.193 C  
BRANCH   7   8
HETATM    8  C   UNL     1     -10.745  11.465  69.164  1.00  0.00    -0.229 C  
BRANCH   8   9
HETATM    9  C   UNL     1     -10.784  12.604  68.164  1.00  0.00    -0.242 A  
HETATM   10  C   UNL     1      -9.594  13.308  67.880  1.00  0.00    -0.217 A  
HETATM   11  C   UNL     1      -9.604  14.410  66.993  1.00  0.00    -0.251 A  
HETATM   12  C   UNL     1     -10.818  14.743  66.392  1.00  0.00    -0.322 A  
HETATM   13  C   UNL     1     -12.015  14.080  66.657  1.00  0.00    -0.473 A  
HETATM   14  N   UNL     1     -10.586  15.801  65.555  1.00  0.00    -0.384 NA 
HETATM   15  C   UNL     1     -11.979  13.020  67.564  1.00  0.00    -0.360 A  
HETATM   16  H   UNL     1     -11.294  16.262  64.984  1.00  0.00     0.000 HD 
HETATM   17  C   UNL     1      -9.267  16.148  65.598  1.00  0.00     0.013 A  
HETATM   18  C   UNL     1      -8.620  15.361  66.536  1.00  0.00    -0.294 A  
BRANCH  18  19
HETATM   19  C   UNL     1      -7.165  15.484  66.969  1.00  0.00    -0.124 C  
HETATM   20  C   UNL     1      -6.911  16.631  67.970  1.00  0.00    -0.156 C  
HETATM   21  C   UNL     1      -7.463  16.316  69.370  1.00  0.00    -0.152 C  
HETATM   22  N   UNL     1      -7.005  15.041  69.933  1.00  0.00    -0.179 NA 
HETATM   23  C   UNL     1      -7.189  13.935  68.983  1.00  0.00    -0.078 C  
HETATM   24  C   UNL     1      -5.643  15.125  70.446  1.00  0.00    -0.138 C  
HETATM   25  C   UNL     1      -6.598  14.199  67.596  1.00  0.00    -0.173 C  
ENDBRANCH  18  19
ENDBRANCH   8   9
ENDBRANCH   7   8
ENDBRANCH   4   7
ENDBRANCH   2   4
TORSDOF 5
ENDMDL
MODEL      206
REMARK 921   NORMALIZED FREE ENERGY PREDICTED BY IDOCK:   -3.00 KCAL/MOL
REMARK 922        TOTAL FREE ENERGY PREDICTED BY IDOCK:   -4.22 KCAL/MOL
REMARK 923 INTER-LIGAND FREE ENERGY PREDICTED BY IDOCK:   -5.18 KCAL/MOL
REMARK 924 INTRA-LIGAND FREE ENERGY PREDICTED BY IDOCK:    0.96 KCAL/MOL
REMARK 927      BINDING AFFINITY PREDICTED BY RF-SCORE:    0.00 PKD
ROOT
HETATM    1  C   UNL     1      -9.199   8.636  72.074  1.00  0.00    -0.268 C  
HETATM    2  N   UNL     1     -10.553   8.278  72.506  1.00  0.00    -0.337 N  
HETATM    3  H   UNL     1     -10.708   7.633  73.281  1.00  0.00     0.000 HD 
ENDROOT
BRANCH   2   4
HETATM    4  S   UNL     1     -11.845   8.972  71.671  1.00  0.00    -0.386 S  
HETATM    5  O   UNL     1     -12.695   9.613  72.651  1.00  0.00    -0.174 OA 
HETATM    6  O   UNL     1     -12.346   7.943  70.791  1.00  0.00    -0.147 OA 
BRANCH   4   7
HETATM    7  C   UNL     1     -11.014  10.213  70.699  1.00  0.00    -0.285 C  
BRANCH   7   8
HETATM    8  C   UNL     1     -11.881  10.681  69.540  1.00  0.00    -0.345 C  
BRANCH   8   9
HETATM    9  C   UNL     1     -11.220  10.532  68.184  1.00  0.00    -0.357 A  
HETATM   10  C   UNL     1     -10.711   9.272  67.803  1.00  0.00    -0.270 A  
HETATM   11  C   UNL     1     -10.041   9.109  66.568  1.00  0.00    -0.357 A  
HETATM   12  C   UNL     1      -9.939  10.225  65.738  1.00  0.00    -0.271 A  
HETATM   13  C   UNL     1     -10.419  11.487  66.083  1.00  0.00    -0.296 A  
HETATM   14  N   UNL     1      -9.296   9.831  64.596  1.00  0.00    -0.329 NA 
HETATM   15  C   UNL     1     -11.043  11.623  67.324  1.00  0.00    -0.346 A  
HETATM   16  H   UNL     1      -9.077  10.439  63.807  1.00  0.00     0.000 HD 
HETATM   17  C   UNL     1      -8.990   8.503  64.668  1.00  0.00     0.240 A  
HETATM   18  C   UNL     1      -9.366   8.017  65.910  1.00  0.00    -0.093 A  
BRANCH  18  19
HETATM   19  C   UNL     1      -9.118   6.611  66.442  1.00  0.00    -0.172 C  
HETATM   20  C   UNL     1      -7.862   6.498  67.332  1.00  0.00    -0.112 C  
HETATM   21  C   UNL     1      -8.062   7.152  68.709  1.00  0.00    -0.121 C  
HETATM   22  N   UNL     1      -9.245   6.685  69.439  1.00  0.00    -0.142 NA 
HETATM   23  C   UNL     1     -10.451   6.735  68.602  1.00  0.00    -0.206 C  
HETATM   24  C   UNL     1      -9.034   5.377  70.048  1.00  0.00    -0.129 C  
HETATM   25  C   UNL     1     -10.299   6.041  67.246  1.00  0.00    -0.275 C  
ENDBRANCH  18  19
ENDBRANCH   8   9
ENDBRANCH   7   8
ENDBRANCH   4   7
ENDBRANCH   2   4
TORSDOF 5
ENDMDL
MODEL      207
REMARK 921   NORMALIZED FREE ENERGY PREDICTED BY IDOCK:   -2.99 KCAL/MOL
REMARK 922        TOTAL FREE ENERGY PREDICTED BY IDOCK:   -4.20 KCAL/MOL
REMARK 923 INTER-LIGAND FREE ENERGY PREDICTED BY IDOCK:   -4.28 KCAL/MOL
REMARK 924 INTRA-LIGAND FREE ENERGY PREDICTED BY IDOCK:    0.08 KCAL/MOL
REMARK 927      BINDING AFFINITY PREDICTED BY RF-SCORE:    0.00 PKD
ROOT
HETATM    1  C   UNL     1      -7.219   9.924  65.334  1.00  0.00    -0.125 C  
HETATM    2  N   UNL     1      -8.496   9.419  65.846  1.00  0.00    -0.123 N  
HETATM    3  H   UNL     1      -9.352   9.491  65.295  1.00  0.00     0.000 HD 
ENDROOT
BRANCH   2   4
HETATM    4  S   UNL     1      -8.497   8.714  67.380  1.00  0.00    -0.123 S  
HETATM    5  O   UNL     1      -7.915   9.672  68.294  1.00  0.00    -0.095 OA 
HETATM    6  O   UNL     1      -7.938   7.394  67.207  1.00  0.00    -0.111 OA 
BRANCH   4   7
HETATM    7  C   UNL     1     -10.244   8.567  67.701  1.00  0.00    -0.236 C  
BRANCH   7   8
HETATM    8  C   UNL     1     -10.601   7.170  68.187  1.00  0.00    -0.241 C  
BRANCH   8   9
HETATM    9  C   UNL     1     -10.761   7.070  69.692  1.00  0.00    -0.265 A  
HETATM   10  C   UNL     1     -10.394   5.874  70.343  1.00  0.00    -0.294 A  
HETATM   11  C   UNL     1     -10.579   5.727  71.737  1.00  0.00    -0.293 A  
HETATM   12  C   UNL     1     -11.100   6.815  72.437  1.00  0.00    -0.257 A  
HETATM   13  C   UNL     1     -11.485   8.008  71.828  1.00  0.00    -0.324 A  
HETATM   14  N   UNL     1     -11.156   6.465  73.759  1.00  0.00    -0.372 NA 
HETATM   15  C   UNL     1     -11.323   8.109  70.445  1.00  0.00    -0.181 A  
HETATM   16  H   UNL     1     -11.500   7.065  74.509  1.00  0.00     0.000 HD 
HETATM   17  C   UNL     1     -10.684   5.196  73.926  1.00  0.00    -0.290 A  
HETATM   18  C   UNL     1     -10.379   4.658  72.686  1.00  0.00    -0.253 A  
BRANCH  18  19
HETATM   19  C   UNL     1      -9.916   3.234  72.409  1.00  0.00    -0.233 C  
HETATM   20  C   UNL     1      -9.423   3.011  70.964  1.00  0.00    -0.228 C  
HETATM   21  C   UNL     1      -8.059   3.672  70.705  1.00  0.00    -0.053 C  
HETATM   22  N   UNL     1      -7.010   3.299  71.661  1.00  0.00    -0.030 NA 
HETATM   23  C   UNL     1      -7.466   3.454  73.049  1.00  0.00    -0.059 C  
HETATM   24  C   UNL     1      -6.465   1.974  71.390  1.00  0.00    -0.019 C  
HETATM   25  C   UNL     1      -8.796   2.758  73.351  1.00  0.00    -0.079 C  
ENDBRANCH  18  19
ENDBRANCH   8   9
ENDBRANCH   7   8
ENDBRANCH   4   7
ENDBRANCH   2   4
TORSDOF 5
ENDMDL
MODEL      208
REMARK 921   NORMALIZED FREE ENERGY PREDICTED BY IDOCK:   -2.96 KCAL/MOL
REMARK 922        TOTAL FREE ENERGY PREDICTED BY IDOCK:   -4.17 KCAL/MOL
REMARK 923 INTER-LIGAND FREE ENERGY PREDICTED BY IDOCK:   -4.59 KCAL/MOL
REMARK 924 INTRA-LIGAND FREE ENERGY PREDICTED BY IDOCK:    0.42 KCAL/MOL
REMARK 927      BINDING AFFINITY PREDICTED BY RF-SCORE:    0.00 PKD
ROOT
HETATM    1  C   UNL     1     -13.721   7.709  71.631  1.00  0.00    -0.374 C  
HETATM    2  N   UNL     1     -12.578   7.150  72.358  1.00  0.00    -0.503 N  
HETATM    3  H   UNL     1     -12.518   7.210  73.375  1.00  0.00     0.000 HD 
ENDROOT
BRANCH   2   4
HETATM    4  S   UNL     1     -11.366   6.404  71.451  1.00  0.00    -0.306 S  
HETATM    5  O   UNL     1     -11.716   6.560  70.056  1.00  0.00    -0.416 OA 
HETATM    6  O   UNL     1     -11.175   5.101  72.043  1.00  0.00    -0.099 OA 
BRANCH   4   7
HETATM    7  C   UNL     1      -9.958   7.427  71.831  1.00  0.00    -0.170 C  
BRANCH   7   8
HETATM    8  C   UNL     1      -8.674   6.831  71.272  1.00  0.00    -0.128 C  
BRANCH   8   9
HETATM    9  C   UNL     1      -8.585   6.883  69.759  1.00  0.00    -0.141 A  
HETATM   10  C   UNL     1      -8.458   8.135  69.122  1.00  0.00    -0.135 A  
HETATM   11  C   UNL     1      -8.426   8.225  67.710  1.00  0.00    -0.131 A  
HETATM   12  C   UNL     1      -8.488   7.034  66.987  1.00  0.00    -0.121 A  
HETATM   13  C   UNL     1      -8.625   5.780  67.580  1.00  0.00    -0.101 A  
HETATM   14  N   UNL     1      -8.403   7.354  65.659  1.00  0.00    -0.137 NA 
HETATM   15  C   UNL     1      -8.690   5.728  68.973  1.00  0.00    -0.112 A  
HETATM   16  H   UNL     1      -8.426   6.682  64.892  1.00  0.00     0.000 HD 
HETATM   17  C   UNL     1      -8.284   8.705  65.512  1.00  0.00    -0.135 A  
HETATM   18  C   UNL     1      -8.367   9.307  66.758  1.00  0.00    -0.123 A  
BRANCH  18  19
HETATM   19  C   UNL     1      -8.379  10.804  67.038  1.00  0.00    -0.129 C  
HETATM   20  C   UNL     1      -9.499  11.564  66.298  1.00  0.00    -0.235 C  
HETATM   21  C   UNL     1     -10.888  11.283  66.895  1.00  0.00    -0.282 C  
HETATM   22  N   UNL     1     -10.988  11.515  68.340  1.00  0.00    -0.204 NA 
HETATM   23  C   UNL     1      -9.905  10.842  69.070  1.00  0.00    -0.180 C  
HETATM   24  C   UNL     1     -11.091  12.933  68.663  1.00  0.00    -0.269 C  
HETATM   25  C   UNL     1      -8.505  11.148  68.532  1.00  0.00    -0.156 C  
ENDBRANCH  18  19
ENDBRANCH   8   9
ENDBRANCH   7   8
ENDBRANCH   4   7
ENDBRANCH   2   4
TORSDOF 5
ENDMDL
MODEL      209
REMARK 921   NORMALIZED FREE ENERGY PREDICTED BY IDOCK:   -2.94 KCAL/MOL
REMARK 922        TOTAL FREE ENERGY PREDICTED BY IDOCK:   -4.14 KCAL/MOL
REMARK 923 INTER-LIGAND FREE ENERGY PREDICTED BY IDOCK:   -4.64 KCAL/MOL
REMARK 924 INTRA-LIGAND FREE ENERGY PREDICTED BY IDOCK:    0.49 KCAL/MOL
REMARK 927      BINDING AFFINITY PREDICTED BY RF-SCORE:    0.00 PKD
ROOT
HETATM    1  C   UNL     1     -13.249  13.134  65.475  1.00  0.00     0.615 C  
HETATM    2  N   UNL     1     -12.416  14.217  66.004  1.00  0.00    -0.423 N  
HETATM    3  H   UNL     1     -12.834  15.064  66.392  1.00  0.00     0.000 HD 
ENDROOT
BRANCH   2   4
HETATM    4  S   UNL     1     -10.742  14.011  65.949  1.00  0.00    -0.300 S  
HETATM    5  O   UNL     1     -10.431  12.815  66.701  1.00  0.00    -0.253 OA 
HETATM    6  O   UNL     1     -10.175  15.293  66.295  1.00  0.00    -0.262 OA 
BRANCH   4   7
HETATM    7  C   UNL     1     -10.479  13.709  64.212  1.00  0.00    -0.157 C  
BRANCH   7   8
HETATM    8  C   UNL     1     -11.084  12.380  63.785  1.00  0.00    -0.506 C  
BRANCH   8   9
HETATM    9  C   UNL     1     -10.126  11.210  63.892  1.00  0.00    -0.404 A  
HETATM   10  C   UNL     1     -10.276  10.296  64.956  1.00  0.00    -0.277 A  
HETATM   11  C   UNL     1      -9.368   9.224  65.118  1.00  0.00    -0.239 A  
HETATM   12  C   UNL     1      -8.353   9.090  64.171  1.00  0.00    -0.173 A  
HETATM   13  C   UNL     1      -8.166   9.979  63.114  1.00  0.00    -0.159 A  
HETATM   14  N   UNL     1      -7.627   7.978  64.500  1.00  0.00    -0.106 NA 
HETATM   15  C   UNL     1      -9.057  11.047  63.003  1.00  0.00    -0.300 A  
HETATM   16  H   UNL     1      -6.816   7.634  63.985  1.00  0.00     0.000 HD 
HETATM   17  C   UNL     1      -8.148   7.395  65.619  1.00  0.00    -0.129 A  
HETATM   18  C   UNL     1      -9.192   8.174  66.092  1.00  0.00    -0.230 A  
BRANCH  18  19
HETATM   19  C   UNL     1      -9.984   7.940  67.372  1.00  0.00    -0.261 C  
HETATM   20  C   UNL     1      -9.232   7.093  68.420  1.00  0.00    -0.133 C  
HETATM   21  C   UNL     1      -8.086   7.872  69.086  1.00  0.00    -0.124 C  
HETATM   22  N   UNL     1      -8.482   9.161  69.665  1.00  0.00    -0.124 NA 
HETATM   23  C   UNL     1      -9.243   9.972  68.705  1.00  0.00    -0.159 C  
HETATM   24  C   UNL     1      -9.169   9.002  70.941  1.00  0.00    -0.259 C  
HETATM   25  C   UNL     1     -10.425   9.239  68.067  1.00  0.00    -0.275 C  
ENDBRANCH  18  19
ENDBRANCH   8   9
ENDBRANCH   7   8
ENDBRANCH   4   7
ENDBRANCH   2   4
TORSDOF 5
ENDMDL
MODEL      210
REMARK 921   NORMALIZED FREE ENERGY PREDICTED BY IDOCK:   -2.92 KCAL/MOL
REMARK 922        TOTAL FREE ENERGY PREDICTED BY IDOCK:   -4.11 KCAL/MOL
REMARK 923 INTER-LIGAND FREE ENERGY PREDICTED BY IDOCK:   -3.56 KCAL/MOL
REMARK 924 INTRA-LIGAND FREE ENERGY PREDICTED BY IDOCK:   -0.55 KCAL/MOL
REMARK 927      BINDING AFFINITY PREDICTED BY RF-SCORE:    0.00 PKD
ROOT
HETATM    1  C   UNL     1     -10.531  13.459  68.434  1.00  0.00    -0.250 C  
HETATM    2  N   UNL     1     -10.767  12.109  67.915  1.00  0.00    -0.201 N  
HETATM    3  H   UNL     1     -11.492  11.510  68.310  1.00  0.00     0.000 HD 
ENDROOT
BRANCH   2   4
HETATM    4  S   UNL     1      -9.795  11.584  66.638  1.00  0.00    -0.207 S  
HETATM    5  O   UNL     1     -10.263  12.246  65.441  1.00  0.00    -0.261 OA 
HETATM    6  O   UNL     1      -9.751  10.145  66.742  1.00  0.00    -0.173 OA 
BRANCH   4   7
HETATM    7  C   UNL     1      -8.208  12.248  67.106  1.00  0.00    -0.179 C  
BRANCH   7   8
HETATM    8  C   UNL     1      -7.153  11.155  67.186  1.00  0.00    -0.113 C  
BRANCH   8   9
HETATM    9  C   UNL     1      -6.789  10.760  68.604  1.00  0.00    -0.060 A  
HETATM   10  C   UNL     1      -7.338   9.580  69.149  1.00  0.00    -0.072 A  
HETATM   11  C   UNL     1      -7.063   9.210  70.487  1.00  0.00    -0.088 A  
HETATM   12  C   UNL     1      -6.207  10.031  71.220  1.00  0.00     0.132 A  
HETATM   13  C   UNL     1      -5.655  11.209  70.720  1.00  0.00    -0.114 A  
HETATM   14  N   UNL     1      -6.055   9.466  72.457  1.00  0.00    -0.295 NA 
HETATM   15  C   UNL     1      -5.975  11.566  69.409  1.00  0.00    -0.076 A  
HETATM   16  H   UNL     1      -5.485   9.851  73.211  1.00  0.00     0.000 HD 
HETATM   17  C   UNL     1      -6.778   8.312  72.535  1.00  0.00    -0.088 A  
HETATM   18  C   UNL     1      -7.488   8.140  71.357  1.00  0.00    -0.079 A  
BRANCH  18  19
HETATM   19  C   UNL     1      -8.494   7.035  71.062  1.00  0.00    -0.133 C  
HETATM   20  C   UNL     1      -9.015   6.319  72.325  1.00  0.00    -0.136 C  
HETATM   21  C   UNL     1      -9.982   7.196  73.137  1.00  0.00    -0.228 C  
HETATM   22  N   UNL     1     -11.103   7.742  72.365  1.00  0.00    -0.295 NA 
HETATM   23  C   UNL     1     -10.643   8.391  71.129  1.00  0.00    -0.215 C  
HETATM   24  C   UNL     1     -12.143   6.748  72.127  1.00  0.00    -0.252 C  
HETATM   25  C   UNL     1      -9.723   7.518  70.272  1.00  0.00    -0.179 C  
ENDBRANCH  18  19
ENDBRANCH   8   9
ENDBRANCH   7   8
ENDBRANCH   4   7
ENDBRANCH   2   4
TORSDOF 5
ENDMDL
MODEL      211
REMARK 921   NORMALIZED FREE ENERGY PREDICTED BY IDOCK:   -2.90 KCAL/MOL
REMARK 922        TOTAL FREE ENERGY PREDICTED BY IDOCK:   -4.09 KCAL/MOL
REMARK 923 INTER-LIGAND FREE ENERGY PREDICTED BY IDOCK:   -5.15 KCAL/MOL
REMARK 924 INTRA-LIGAND FREE ENERGY PREDICTED BY IDOCK:    1.06 KCAL/MOL
REMARK 927      BINDING AFFINITY PREDICTED BY RF-SCORE:    0.00 PKD
ROOT
HETATM    1  C   UNL     1      -9.476  13.109  66.811  1.00  0.00    -0.252 C  
HETATM    2  N   UNL     1      -8.788  12.798  68.066  1.00  0.00    -0.189 N  
HETATM    3  H   UNL     1      -8.963  13.339  68.913  1.00  0.00     0.000 HD 
ENDROOT
BRANCH   2   4
HETATM    4  S   UNL     1      -7.697  11.510  68.057  1.00  0.00    -0.127 S  
HETATM    5  O   UNL     1      -6.442  12.006  68.580  1.00  0.00    -0.052 OA 
HETATM    6  O   UNL     1      -7.791  10.921  66.742  1.00  0.00    -0.127 OA 
BRANCH   4   7
HETATM    7  C   UNL     1      -8.442  10.406  69.242  1.00  0.00    -0.154 C  
BRANCH   7   8
HETATM    8  C   UNL     1      -9.952  10.591  69.296  1.00  0.00    -0.233 C  
BRANCH   8   9
HETATM    9  C   UNL     1     -10.654   9.611  70.215  1.00  0.00    -0.333 A  
HETATM   10  C   UNL     1     -10.182   8.283  70.292  1.00  0.00    -0.199 A  
HETATM   11  C   UNL     1     -10.846   7.329  71.097  1.00  0.00    -0.260 A  
HETATM   12  C   UNL     1     -11.950   7.760  71.831  1.00  0.00    -0.301 A  
HETATM   13  C   UNL     1     -12.452   9.059  71.773  1.00  0.00    -0.438 A  
HETATM   14  N   UNL     1     -12.404   6.693  72.558  1.00  0.00    -0.503 NA 
HETATM   15  C   UNL     1     -11.797   9.968  70.941  1.00  0.00    -0.459 A  
HETATM   16  H   UNL     1     -13.206   6.712  73.187  1.00  0.00     0.000 HD 
HETATM   17  C   UNL     1     -11.624   5.600  72.317  1.00  0.00    -0.181 A  
HETATM   18  C   UNL     1     -10.679   5.919  71.355  1.00  0.00    -0.319 A  
BRANCH  18  19
HETATM   19  C   UNL     1      -9.674   4.963  70.725  1.00  0.00    -0.268 C  
HETATM   20  C   UNL     1      -9.741   4.921  69.183  1.00  0.00    -0.252 C  
HETATM   21  C   UNL     1      -9.169   6.195  68.540  1.00  0.00    -0.115 C  
HETATM   22  N   UNL     1      -7.813   6.542  68.979  1.00  0.00    -0.109 NA 
HETATM   23  C   UNL     1      -7.704   6.544  70.444  1.00  0.00    -0.098 C  
HETATM   24  C   UNL     1      -6.799   5.715  68.338  1.00  0.00    -0.063 C  
HETATM   25  C   UNL     1      -8.216   5.263  71.109  1.00  0.00    -0.118 C  
ENDBRANCH  18  19
ENDBRANCH   8   9
ENDBRANCH   7   8
ENDBRANCH   4   7
ENDBRANCH   2   4
TORSDOF 5
ENDMDL
MODEL      212
REMARK 921   NORMALIZED FREE ENERGY PREDICTED BY IDOCK:   -2.88 KCAL/MOL
REMARK 922        TOTAL FREE ENERGY PREDICTED BY IDOCK:   -4.06 KCAL/MOL
REMARK 923 INTER-LIGAND FREE ENERGY PREDICTED BY IDOCK:   -4.04 KCAL/MOL
REMARK 924 INTRA-LIGAND FREE ENERGY PREDICTED BY IDOCK:   -0.03 KCAL/MOL
REMARK 927      BINDING AFFINITY PREDICTED BY RF-SCORE:    0.00 PKD
ROOT
HETATM    1  C   UNL     1     -10.560  16.388  68.277  1.00  0.00    -0.318 C  
HETATM    2  N   UNL     1     -11.519  15.339  67.922  1.00  0.00    -0.332 N  
HETATM    3  H   UNL     1     -12.447  15.306  68.344  1.00  0.00     0.000 HD 
ENDROOT
BRANCH   2   4
HETATM    4  S   UNL     1     -11.029  14.186  66.790  1.00  0.00    -0.306 S  
HETATM    5  O   UNL     1      -9.589  14.267  66.689  1.00  0.00    -0.266 OA 
HETATM    6  O   UNL     1     -11.883  14.374  65.641  1.00  0.00    -0.353 OA 
BRANCH   4   7
HETATM    7  C   UNL     1     -11.485  12.670  67.610  1.00  0.00    -0.334 C  
BRANCH   7   8
HETATM    8  C   UNL     1     -10.906  11.458  66.893  1.00  0.00    -0.335 C  
BRANCH   8   9
HETATM    9  C   UNL     1      -9.678  10.879  67.568  1.00  0.00    -0.187 A  
HETATM   10  C   UNL     1      -9.555   9.478  67.683  1.00  0.00    -0.163 A  
HETATM   11  C   UNL     1      -8.449   8.905  68.354  1.00  0.00    -0.129 A  
HETATM   12  C   UNL     1      -7.480   9.772  68.857  1.00  0.00    -0.075 A  
HETATM   13  C   UNL     1      -7.572  11.160  68.772  1.00  0.00    -0.129 A  
HETATM   14  N   UNL     1      -6.497   9.007  69.423  1.00  0.00    -0.044 NA 
HETATM   15  C   UNL     1      -8.693  11.696  68.137  1.00  0.00    -0.159 A  
HETATM   16  H   UNL     1      -5.659   9.371  69.876  1.00  0.00     0.000 HD 
HETATM   17  C   UNL     1      -6.804   7.684  69.293  1.00  0.00    -0.052 A  
HETATM   18  C   UNL     1      -8.049   7.562  68.698  1.00  0.00    -0.124 A  
BRANCH  18  19
HETATM   19  C   UNL     1      -8.812   6.266  68.457  1.00  0.00    -0.114 C  
HETATM   20  C   UNL     1      -9.482   6.190  67.069  1.00  0.00    -0.141 C  
HETATM   21  C   UNL     1      -8.461   5.982  65.939  1.00  0.00    -0.143 C  
HETATM   22  N   UNL     1      -7.563   4.838  66.131  1.00  0.00    -0.089 NA 
HETATM   23  C   UNL     1      -6.945   4.856  67.464  1.00  0.00    -0.061 C  
HETATM   24  C   UNL     1      -8.216   3.570  65.828  1.00  0.00    -0.097 C  
HETATM   25  C   UNL     1      -7.944   5.005  68.614  1.00  0.00    -0.085 C  
ENDBRANCH  18  19
ENDBRANCH   8   9
ENDBRANCH   7   8
ENDBRANCH   4   7
ENDBRANCH   2   4
TORSDOF 5
ENDMDL
MODEL      213
REMARK 921   NORMALIZED FREE ENERGY PREDICTED BY IDOCK:   -2.88 KCAL/MOL
REMARK 922        TOTAL FREE ENERGY PREDICTED BY IDOCK:   -4.06 KCAL/MOL
REMARK 923 INTER-LIGAND FREE ENERGY PREDICTED BY IDOCK:   -4.23 KCAL/MOL
REMARK 924 INTRA-LIGAND FREE ENERGY PREDICTED BY IDOCK:    0.17 KCAL/MOL
REMARK 927      BINDING AFFINITY PREDICTED BY RF-SCORE:    0.00 PKD
ROOT
HETATM    1  C   UNL     1      -7.202  17.853  65.943  1.00  0.00    -0.242 C  
HETATM    2  N   UNL     1      -6.573  18.365  67.163  1.00  0.00    -0.183 N  
HETATM    3  H   UNL     1      -5.578  18.589  67.192  1.00  0.00     0.000 HD 
ENDROOT
BRANCH   2   4
HETATM    4  S   UNL     1      -7.557  18.568  68.520  1.00  0.00    -0.311 S  
HETATM    5  O   UNL     1      -8.912  18.746  68.046  1.00  0.00    -0.286 OA 
HETATM    6  O   UNL     1      -6.903  19.563  69.337  1.00  0.00    -0.332 OA 
BRANCH   4   7
HETATM    7  C   UNL     1      -7.405  16.977  69.309  1.00  0.00    -0.119 C  
BRANCH   7   8
HETATM    8  C   UNL     1      -7.214  15.868  68.285  1.00  0.00    -0.118 C  
BRANCH   8   9
HETATM    9  C   UNL     1      -8.321  14.832  68.293  1.00  0.00    -0.148 A  
HETATM   10  C   UNL     1      -7.998  13.480  68.051  1.00  0.00    -0.151 A  
HETATM   11  C   UNL     1      -9.012  12.496  67.998  1.00  0.00    -0.192 A  
HETATM   12  C   UNL     1     -10.324  12.908  68.229  1.00  0.00    -0.244 A  
HETATM   13  C   UNL     1     -10.684  14.235  68.460  1.00  0.00    -0.262 A  
HETATM   14  N   UNL     1     -11.122  11.798  68.168  1.00  0.00    -0.225 NA 
HETATM   15  C   UNL     1      -9.664  15.188  68.470  1.00  0.00    -0.214 A  
HETATM   16  H   UNL     1     -12.134  11.796  68.295  1.00  0.00     0.000 HD 
HETATM   17  C   UNL     1     -10.363  10.693  67.913  1.00  0.00    -0.199 A  
HETATM   18  C   UNL     1      -9.046  11.080  67.724  1.00  0.00    -0.147 A  
BRANCH  18  19
HETATM   19  C   UNL     1      -7.888  10.175  67.321  1.00  0.00    -0.103 C  
HETATM   20  C   UNL     1      -8.112   8.689  67.673  1.00  0.00    -0.107 C  
HETATM   21  C   UNL     1      -9.155   8.024  66.760  1.00  0.00    -0.155 C  
HETATM   22  N   UNL     1      -8.889   8.171  65.324  1.00  0.00    -0.062 NA 
HETATM   23  C   UNL     1      -8.624   9.570  64.965  1.00  0.00    -0.167 C  
HETATM   24  C   UNL     1      -7.847   7.262  64.863  1.00  0.00    -0.126 C  
HETATM   25  C   UNL     1      -7.549  10.242  65.822  1.00  0.00    -0.143 C  
ENDBRANCH  18  19
ENDBRANCH   8   9
ENDBRANCH   7   8
ENDBRANCH   4   7
ENDBRANCH   2   4
TORSDOF 5
ENDMDL
MODEL      214
REMARK 921   NORMALIZED FREE ENERGY PREDICTED BY IDOCK:   -2.86 KCAL/MOL
REMARK 922        TOTAL FREE ENERGY PREDICTED BY IDOCK:   -4.04 KCAL/MOL
REMARK 923 INTER-LIGAND FREE ENERGY PREDICTED BY IDOCK:   -3.69 KCAL/MOL
REMARK 924 INTRA-LIGAND FREE ENERGY PREDICTED BY IDOCK:   -0.35 KCAL/MOL
REMARK 927      BINDING AFFINITY PREDICTED BY RF-SCORE:    0.00 PKD
ROOT
HETATM    1  C   UNL     1     -10.999  11.239  66.026  1.00  0.00    -0.174 C  
HETATM    2  N   UNL     1     -11.591  12.315  66.826  1.00  0.00    -0.372 N  
HETATM    3  H   UNL     1     -12.210  12.111  67.611  1.00  0.00     0.000 HD 
ENDROOT
BRANCH   2   4
HETATM    4  S   UNL     1     -11.210  13.903  66.399  1.00  0.00    -0.323 S  
HETATM    5  O   UNL     1     -12.392  14.705  66.628  1.00  0.00    -0.258 OA 
HETATM    6  O   UNL     1     -10.587  13.824  65.099  1.00  0.00    -0.330 OA 
BRANCH   4   7
HETATM    7  C   UNL     1      -9.971  14.309  67.614  1.00  0.00    -0.225 C  
BRANCH   7   8
HETATM    8  C   UNL     1      -8.575  14.293  67.006  1.00  0.00    -0.213 C  
BRANCH   8   9
HETATM    9  C   UNL     1      -7.638  13.293  67.655  1.00  0.00    -0.171 A  
HETATM   10  C   UNL     1      -8.151  12.052  68.086  1.00  0.00    -0.160 A  
HETATM   11  C   UNL     1      -7.317  11.117  68.743  1.00  0.00    -0.114 A  
HETATM   12  C   UNL     1      -5.975  11.457  68.912  1.00  0.00    -0.048 A  
HETATM   13  C   UNL     1      -5.435  12.678  68.510  1.00  0.00    -0.057 A  
HETATM   14  N   UNL     1      -5.357  10.403  69.528  1.00  0.00    -0.038 NA 
HETATM   15  C   UNL     1      -6.292  13.593  67.897  1.00  0.00    -0.159 A  
HETATM   16  H   UNL     1      -4.370  10.370  69.783  1.00  0.00     0.000 HD 
HETATM   17  C   UNL     1      -6.258   9.402  69.753  1.00  0.00    -0.039 A  
HETATM   18  C   UNL     1      -7.515   9.823  69.350  1.00  0.00    -0.099 A  
BRANCH  18  19
HETATM   19  C   UNL     1      -8.819   9.054  69.513  1.00  0.00    -0.146 C  
HETATM   20  C   UNL     1      -9.196   8.204  68.280  1.00  0.00    -0.134 C  
HETATM   21  C   UNL     1      -8.301   6.963  68.131  1.00  0.00    -0.118 C  
HETATM   22  N   UNL     1      -8.229   6.117  69.328  1.00  0.00    -0.115 NA 
HETATM   23  C   UNL     1      -7.918   6.905  70.528  1.00  0.00    -0.114 C  
HETATM   24  C   UNL     1      -9.418   5.289  69.487  1.00  0.00    -0.138 C  
HETATM   25  C   UNL     1      -8.831   8.117  70.733  1.00  0.00    -0.149 C  
ENDBRANCH  18  19
ENDBRANCH   8   9
ENDBRANCH   7   8
ENDBRANCH   4   7
ENDBRANCH   2   4
TORSDOF 5
ENDMDL
MODEL      215
REMARK 921   NORMALIZED FREE ENERGY PREDICTED BY IDOCK:   -2.84 KCAL/MOL
REMARK 922        TOTAL FREE ENERGY PREDICTED BY IDOCK:   -4.01 KCAL/MOL
REMARK 923 INTER-LIGAND FREE ENERGY PREDICTED BY IDOCK:   -4.68 KCAL/MOL
REMARK 924 INTRA-LIGAND FREE ENERGY PREDICTED BY IDOCK:    0.66 KCAL/MOL
REMARK 927      BINDING AFFINITY PREDICTED BY RF-SCORE:    0.00 PKD
ROOT
HETATM    1  C   UNL     1      -9.087  14.978  66.189  1.00  0.00    -0.202 C  
HETATM    2  N   UNL     1     -10.176  13.999  66.258  1.00  0.00    -0.288 N  
HETATM    3  H   UNL     1      -9.997  13.025  66.503  1.00  0.00     0.000 HD 
ENDROOT
BRANCH   2   4
HETATM    4  S   UNL     1     -11.737  14.545  65.916  1.00  0.00    -0.314 S  
HETATM    5  O   UNL     1     -11.686  15.220  64.638  1.00  0.00    -0.392 OA 
HETATM    6  O   UNL     1     -12.191  15.215  67.111  1.00  0.00     0.060 OA 
BRANCH   4   7
HETATM    7  C   UNL     1     -12.619  13.006  65.742  1.00  0.00    -0.201 C  
BRANCH   7   8
HETATM    8  C   UNL     1     -11.674  11.815  65.816  1.00  0.00    -0.093 C  
BRANCH   8   9
HETATM    9  C   UNL     1     -11.362  11.371  67.232  1.00  0.00    -0.347 A  
HETATM   10  C   UNL     1     -10.586  10.209  67.431  1.00  0.00    -0.329 A  
HETATM   11  C   UNL     1     -10.321   9.736  68.737  1.00  0.00    -0.227 A  
HETATM   12  C   UNL     1     -10.821  10.479  69.806  1.00  0.00    -0.281 A  
HETATM   13  C   UNL     1     -11.599  11.624  69.649  1.00  0.00    -0.401 A  
HETATM   14  N   UNL     1     -10.415   9.865  70.960  1.00  0.00    -0.313 NA 
HETATM   15  C   UNL     1     -11.874  12.045  68.347  1.00  0.00    -0.360 A  
HETATM   16  H   UNL     1     -10.636  10.185  71.903  1.00  0.00     0.000 HD 
HETATM   17  C   UNL     1      -9.669   8.762  70.663  1.00  0.00    -0.197 A  
HETATM   18  C   UNL     1      -9.639   8.590  69.288  1.00  0.00    -0.170 A  
BRANCH  18  19
HETATM   19  C   UNL     1      -9.001   7.428  68.538  1.00  0.00    -0.128 C  
HETATM   20  C   UNL     1      -8.930   7.641  67.011  1.00  0.00    -0.148 C  
HETATM   21  C   UNL     1      -7.870   8.682  66.616  1.00  0.00    -0.097 C  
HETATM   22  N   UNL     1      -6.530   8.422  67.155  1.00  0.00    -0.057 NA 
HETATM   23  C   UNL     1      -6.571   8.167  68.602  1.00  0.00    -0.058 C  
HETATM   24  C   UNL     1      -5.834   7.376  66.416  1.00  0.00    -0.036 C  
HETATM   25  C   UNL     1      -7.579   7.093  69.018  1.00  0.00    -0.100 C  
ENDBRANCH  18  19
ENDBRANCH   8   9
ENDBRANCH   7   8
ENDBRANCH   4   7
ENDBRANCH   2   4
TORSDOF 5
ENDMDL
MODEL      216
REMARK 921   NORMALIZED FREE ENERGY PREDICTED BY IDOCK:   -2.82 KCAL/MOL
REMARK 922        TOTAL FREE ENERGY PREDICTED BY IDOCK:   -3.98 KCAL/MOL
REMARK 923 INTER-LIGAND FREE ENERGY PREDICTED BY IDOCK:   -3.95 KCAL/MOL
REMARK 924 INTRA-LIGAND FREE ENERGY PREDICTED BY IDOCK:   -0.04 KCAL/MOL
REMARK 927      BINDING AFFINITY PREDICTED BY RF-SCORE:    0.00 PKD
ROOT
HETATM    1  C   UNL     1      -6.567   4.590  69.970  1.00  0.00    -0.032 C  
HETATM    2  N   UNL     1      -7.715   4.289  70.829  1.00  0.00    -0.055 N  
HETATM    3  H   UNL     1      -7.984   3.327  71.035  1.00  0.00     0.000 HD 
ENDROOT
BRANCH   2   4
HETATM    4  S   UNL     1      -8.576   5.595  71.464  1.00  0.00    -0.132 S  
HETATM    5  O   UNL     1      -8.483   5.511  72.905  1.00  0.00    -0.119 OA 
HETATM    6  O   UNL     1      -9.851   5.595  70.786  1.00  0.00    -0.170 OA 
BRANCH   4   7
HETATM    7  C   UNL     1      -7.608   6.974  70.883  1.00  0.00    -0.086 C  
BRANCH   7   8
HETATM    8  C   UNL     1      -8.385   8.278  70.986  1.00  0.00    -0.138 C  
BRANCH   8   9
HETATM    9  C   UNL     1      -8.741   8.885  69.643  1.00  0.00    -0.140 A  
HETATM   10  C   UNL     1      -8.990  10.271  69.561  1.00  0.00    -0.176 A  
HETATM   11  C   UNL     1      -9.377  10.862  68.335  1.00  0.00    -0.172 A  
HETATM   12  C   UNL     1      -9.464  10.031  67.218  1.00  0.00    -0.154 A  
HETATM   13  C   UNL     1      -9.238   8.656  67.263  1.00  0.00    -0.167 A  
HETATM   14  N   UNL     1      -9.812  10.813  66.150  1.00  0.00    -0.212 NA 
HETATM   15  C   UNL     1      -8.893   8.098  68.494  1.00  0.00    -0.134 A  
HETATM   16  H   UNL     1      -9.952  10.475  65.198  1.00  0.00     0.000 HD 
HETATM   17  C   UNL     1      -9.942  12.112  66.546  1.00  0.00    -0.213 A  
HETATM   18  C   UNL     1      -9.754  12.190  67.917  1.00  0.00    -0.200 A  
BRANCH  18  19
HETATM   19  C   UNL     1      -9.909  13.436  68.780  1.00  0.00    -0.030 C  
HETATM   20  C   UNL     1      -8.973  14.593  68.370  1.00  0.00    -0.180 C  
HETATM   21  C   UNL     1      -9.410  15.259  67.055  1.00  0.00    -0.224 C  
HETATM   22  N   UNL     1     -10.807  15.705  67.033  1.00  0.00    -0.315 NA 
HETATM   23  C   UNL     1     -11.721  14.638  67.465  1.00  0.00    -0.379 C  
HETATM   24  C   UNL     1     -10.999  16.947  67.772  1.00  0.00    -0.212 C  
HETATM   25  C   UNL     1     -11.342  13.995  68.801  1.00  0.00    -0.309 C  
ENDBRANCH  18  19
ENDBRANCH   8   9
ENDBRANCH   7   8
ENDBRANCH   4   7
ENDBRANCH   2   4
TORSDOF 5
ENDMDL
MODEL      217
REMARK 921   NORMALIZED FREE ENERGY PREDICTED BY IDOCK:   -2.80 KCAL/MOL
REMARK 922        TOTAL FREE ENERGY PREDICTED BY IDOCK:   -3.97 KCAL/MOL
REMARK 923 INTER-LIGAND FREE ENERGY PREDICTED BY IDOCK:   -3.55 KCAL/MOL
REMARK 924 INTRA-LIGAND FREE ENERGY PREDICTED BY IDOCK:   -0.41 KCAL/MOL
REMARK 927      BINDING AFFINITY PREDICTED BY RF-SCORE:    0.00 PKD
ROOT
HETATM    1  C   UNL     1      -5.645   8.232  68.862  1.00  0.00    -0.039 C  
HETATM    2  N   UNL     1      -5.271   9.188  67.816  1.00  0.00    -0.034 N  
HETATM    3  H   UNL     1      -4.670   9.987  68.019  1.00  0.00     0.000 HD 
ENDROOT
BRANCH   2   4
HETATM    4  S   UNL     1      -5.873   8.916  66.262  1.00  0.00    -0.051 S  
HETATM    5  O   UNL     1      -5.588   7.539  65.925  1.00  0.00    -0.031 OA 
HETATM    6  O   UNL     1      -5.388  10.011  65.454  1.00  0.00    -0.049 OA 
BRANCH   4   7
HETATM    7  C   UNL     1      -7.625   9.117  66.521  1.00  0.00    -0.093 C  
BRANCH   7   8
HETATM    8  C   UNL     1      -8.362   9.289  65.201  1.00  0.00    -0.155 C  
BRANCH   8   9
HETATM    9  C   UNL     1      -9.434  10.361  65.235  1.00  0.00    -0.290 A  
HETATM   10  C   UNL     1      -9.667  11.060  66.438  1.00  0.00    -0.235 A  
HETATM   11  C   UNL     1     -10.695  12.028  66.521  1.00  0.00    -0.293 A  
HETATM   12  C   UNL     1     -11.434  12.285  65.367  1.00  0.00    -0.354 A  
HETATM   13  C   UNL     1     -11.240  11.608  64.164  1.00  0.00    -0.421 A  
HETATM   14  N   UNL     1     -12.335  13.271  65.665  1.00  0.00    -0.459 NA 
HETATM   15  C   UNL     1     -10.243  10.633  64.125  1.00  0.00    -0.365 A  
HETATM   16  H   UNL     1     -13.013  13.661  65.011  1.00  0.00     0.000 HD 
HETATM   17  C   UNL     1     -12.191  13.654  66.967  1.00  0.00    -0.329 A  
HETATM   18  C   UNL     1     -11.231  12.859  67.572  1.00  0.00    -0.329 A  
BRANCH  18  19
HETATM   19  C   UNL     1     -10.833  12.886  69.042  1.00  0.00    -0.188 C  
HETATM   20  C   UNL     1     -11.829  13.649  69.940  1.00  0.00    -0.389 C  
HETATM   21  C   UNL     1     -13.140  12.874  70.148  1.00  0.00     0.815 C  
HETATM   22  N   UNL     1     -12.965  11.502  70.637  1.00  0.00    -0.045 NA 
HETATM   23  C   UNL     1     -11.985  10.762  69.830  1.00  0.00    -0.342 C  
HETATM   24  C   UNL     1     -12.668  11.461  72.064  1.00  0.00    -0.014 C  
HETATM   25  C   UNL     1     -10.648  11.487  69.654  1.00  0.00     0.139 C  
ENDBRANCH  18  19
ENDBRANCH   8   9
ENDBRANCH   7   8
ENDBRANCH   4   7
ENDBRANCH   2   4
TORSDOF 5
ENDMDL
MODEL      218
REMARK 921   NORMALIZED FREE ENERGY PREDICTED BY IDOCK:   -2.74 KCAL/MOL
REMARK 922        TOTAL FREE ENERGY PREDICTED BY IDOCK:   -3.88 KCAL/MOL
REMARK 923 INTER-LIGAND FREE ENERGY PREDICTED BY IDOCK:   -4.25 KCAL/MOL
REMARK 924 INTRA-LIGAND FREE ENERGY PREDICTED BY IDOCK:    0.37 KCAL/MOL
REMARK 927      BINDING AFFINITY PREDICTED BY RF-SCORE:    0.00 PKD
ROOT
HETATM    1  C   UNL     1     -11.343   6.478  70.134  1.00  0.00    -0.402 C  
HETATM    2  N   UNL     1     -10.734   7.617  70.827  1.00  0.00    -0.222 N  
HETATM    3  H   UNL     1     -10.293   8.377  70.308  1.00  0.00     0.000 HD 
ENDROOT
BRANCH   2   4
HETATM    4  S   UNL     1     -10.788   7.622  72.514  1.00  0.00    -0.345 S  
HETATM    5  O   UNL     1     -10.638   6.252  72.953  1.00  0.00    -0.211 OA 
HETATM    6  O   UNL     1     -11.944   8.411  72.869  1.00  0.00    -0.289 OA 
BRANCH   4   7
HETATM    7  C   UNL     1      -9.313   8.541  72.912  1.00  0.00    -0.127 C  
BRANCH   7   8
HETATM    8  C   UNL     1      -8.067   7.839  72.391  1.00  0.00    -0.150 C  
BRANCH   8   9
HETATM    9  C   UNL     1      -7.511   8.447  71.118  1.00  0.00    -0.084 A  
HETATM   10  C   UNL     1      -8.406   8.941  70.146  1.00  0.00    -0.142 A  
HETATM   11  C   UNL     1      -7.925   9.465  68.924  1.00  0.00    -0.087 A  
HETATM   12  C   UNL     1      -6.543   9.505  68.740  1.00  0.00    -0.051 A  
HETATM   13  C   UNL     1      -5.628   9.017  69.671  1.00  0.00    -0.033 A  
HETATM   14  N   UNL     1      -6.307  10.079  67.520  1.00  0.00    -0.059 NA 
HETATM   15  C   UNL     1      -6.137   8.473  70.851  1.00  0.00    -0.035 A  
HETATM   16  H   UNL     1      -5.384  10.236  67.115  1.00  0.00     0.000 HD 
HETATM   17  C   UNL     1      -7.489  10.411  66.925  1.00  0.00    -0.107 A  
HETATM   18  C   UNL     1      -8.537   9.982  67.724  1.00  0.00    -0.118 A  
BRANCH  18  19
HETATM   19  C   UNL     1     -10.020  10.064  67.388  1.00  0.00    -0.242 C  
HETATM   20  C   UNL     1     -10.853  10.823  68.442  1.00  0.00    -0.276 C  
HETATM   21  C   UNL     1     -10.601  12.339  68.403  1.00  0.00    -0.235 C  
HETATM   22  N   UNL     1     -10.776  12.952  67.082  1.00  0.00    -0.251 NA 
HETATM   23  C   UNL     1     -10.032  12.222  66.046  1.00  0.00    -0.252 C  
HETATM   24  C   UNL     1     -12.182  13.136  66.743  1.00  0.00    -0.243 C  
HETATM   25  C   UNL     1     -10.306  10.716  66.025  1.00  0.00    -0.290 C  
ENDBRANCH  18  19
ENDBRANCH   8   9
ENDBRANCH   7   8
ENDBRANCH   4   7
ENDBRANCH   2   4
TORSDOF 5
ENDMDL
MODEL      219
REMARK 921   NORMALIZED FREE ENERGY PREDICTED BY IDOCK:   -2.74 KCAL/MOL
REMARK 922        TOTAL FREE ENERGY PREDICTED BY IDOCK:   -3.88 KCAL/MOL
REMARK 923 INTER-LIGAND FREE ENERGY PREDICTED BY IDOCK:   -4.82 KCAL/MOL
REMARK 924 INTRA-LIGAND FREE ENERGY PREDICTED BY IDOCK:    0.93 KCAL/MOL
REMARK 927      BINDING AFFINITY PREDICTED BY RF-SCORE:    0.00 PKD
ROOT
HETATM    1  C   UNL     1      -6.417   7.388  65.249  1.00  0.00    -0.041 C  
HETATM    2  N   UNL     1      -6.621   8.607  66.036  1.00  0.00    -0.057 N  
HETATM    3  H   UNL     1      -6.802   8.564  67.040  1.00  0.00     0.000 HD 
ENDROOT
BRANCH   2   4
HETATM    4  S   UNL     1      -6.544  10.083  65.221  1.00  0.00    -0.122 S  
HETATM    5  O   UNL     1      -7.687  10.147  64.338  1.00  0.00    -0.143 OA 
HETATM    6  O   UNL     1      -5.193  10.188  64.722  1.00  0.00    -0.068 OA 
BRANCH   4   7
HETATM    7  C   UNL     1      -6.760  11.239  66.561  1.00  0.00    -0.105 C  
BRANCH   7   8
HETATM    8  C   UNL     1      -6.591  10.557  67.911  1.00  0.00    -0.061 C  
BRANCH   8   9
HETATM    9  C   UNL     1      -7.894  10.354  68.659  1.00  0.00    -0.108 A  
HETATM   10  C   UNL     1      -9.005  11.162  68.335  1.00  0.00    -0.165 A  
HETATM   11  C   UNL     1     -10.220  11.036  69.049  1.00  0.00    -0.217 A  
HETATM   12  C   UNL     1     -10.282  10.066  70.048  1.00  0.00    -0.255 A  
HETATM   13  C   UNL     1      -9.204   9.257  70.404  1.00  0.00    -0.291 A  
HETATM   14  N   UNL     1     -11.547  10.095  70.572  1.00  0.00    -0.304 NA 
HETATM   15  C   UNL     1      -8.009   9.431  69.706  1.00  0.00    -0.119 A  
HETATM   16  H   UNL     1     -11.883   9.495  71.325  1.00  0.00     0.000 HD 
HETATM   17  C   UNL     1     -12.292  11.045  69.936  1.00  0.00    -0.288 A  
HETATM   18  C   UNL     1     -11.492  11.716  69.025  1.00  0.00    -0.356 A  
BRANCH  18  19
HETATM   19  C   UNL     1     -11.899  12.914  68.177  1.00  0.00    -0.380 C  
HETATM   20  C   UNL     1     -10.959  14.129  68.328  1.00  0.00    -0.266 C  
HETATM   21  C   UNL     1      -9.602  13.905  67.641  1.00  0.00    -0.215 C  
HETATM   22  N   UNL     1      -9.691  13.505  66.232  1.00  0.00    -0.289 NA 
HETATM   23  C   UNL     1     -10.617  12.380  66.048  1.00  0.00    -0.256 C  
HETATM   24  C   UNL     1      -9.993  14.633  65.359  1.00  0.00    -0.330 C  
HETATM   25  C   UNL     1     -11.997  12.598  66.675  1.00  0.00    -0.382 C  
ENDBRANCH  18  19
ENDBRANCH   8   9
ENDBRANCH   7   8
ENDBRANCH   4   7
ENDBRANCH   2   4
TORSDOF 5
ENDMDL
MODEL      220
REMARK 921   NORMALIZED FREE ENERGY PREDICTED BY IDOCK:   -2.71 KCAL/MOL
REMARK 922        TOTAL FREE ENERGY PREDICTED BY IDOCK:   -3.85 KCAL/MOL
REMARK 923 INTER-LIGAND FREE ENERGY PREDICTED BY IDOCK:   -4.03 KCAL/MOL
REMARK 924 INTRA-LIGAND FREE ENERGY PREDICTED BY IDOCK:    0.19 KCAL/MOL
REMARK 927      BINDING AFFINITY PREDICTED BY RF-SCORE:    0.00 PKD
ROOT
HETATM    1  C   UNL     1     -12.859  12.501  64.527  1.00  0.00    -0.262 C  
HETATM    2  N   UNL     1     -13.203  13.882  64.879  1.00  0.00    -0.452 N  
HETATM    3  H   UNL     1     -14.132  14.123  65.225  1.00  0.00     0.000 HD 
ENDROOT
BRANCH   2   4
HETATM    4  S   UNL     1     -12.005  15.056  64.690  1.00  0.00    -0.283 S  
HETATM    5  O   UNL     1     -12.622  16.201  64.058  1.00  0.00    -0.586 OA 
HETATM    6  O   UNL     1     -10.877  14.377  64.096  1.00  0.00    -0.052 OA 
BRANCH   4   7
HETATM    7  C   UNL     1     -11.622  15.446  66.386  1.00  0.00     0.105 C  
BRANCH   7   8
HETATM    8  C   UNL     1     -10.543  16.516  66.478  1.00  0.00    -0.217 C  
BRANCH   8   9
HETATM    9  C   UNL     1      -9.162  15.968  66.776  1.00  0.00    -0.264 A  
HETATM   10  C   UNL     1      -8.938  14.579  66.673  1.00  0.00    -0.247 A  
HETATM   11  C   UNL     1      -7.677  14.026  66.996  1.00  0.00     0.151 A  
HETATM   12  C   UNL     1      -6.667  14.908  67.381  1.00  0.00    -0.050 A  
HETATM   13  C   UNL     1      -6.852  16.283  67.505  1.00  0.00    -0.189 A  
HETATM   14  N   UNL     1      -5.538  14.167  67.605  1.00  0.00    -0.339 NA 
HETATM   15  C   UNL     1      -8.119  16.793  67.214  1.00  0.00    -0.201 A  
HETATM   16  H   UNL     1      -4.639  14.546  67.902  1.00  0.00     0.000 HD 
HETATM   17  C   UNL     1      -5.792  12.847  67.371  1.00  0.00    -0.060 A  
HETATM   18  C   UNL     1      -7.134  12.691  67.060  1.00  0.00     0.074 A  
BRANCH  18  19
HETATM   19  C   UNL     1      -7.858  11.372  66.825  1.00  0.00    -0.157 C  
HETATM   20  C   UNL     1      -7.630  10.332  67.942  1.00  0.00    -0.089 C  
HETATM   21  C   UNL     1      -8.379  10.693  69.236  1.00  0.00    -0.103 C  
HETATM   22  N   UNL     1      -9.814  10.942  69.060  1.00  0.00    -0.202 NA 
HETATM   23  C   UNL     1     -10.067  11.893  67.969  1.00  0.00    -0.195 C  
HETATM   24  C   UNL     1     -10.573   9.705  68.918  1.00  0.00    -0.217 C  
HETATM   25  C   UNL     1      -9.379  11.529  66.651  1.00  0.00    -0.201 C  
ENDBRANCH  18  19
ENDBRANCH   8   9
ENDBRANCH   7   8
ENDBRANCH   4   7
ENDBRANCH   2   4
TORSDOF 5
ENDMDL
MODEL      221
REMARK 921   NORMALIZED FREE ENERGY PREDICTED BY IDOCK:   -2.67 KCAL/MOL
REMARK 922        TOTAL FREE ENERGY PREDICTED BY IDOCK:   -3.80 KCAL/MOL
REMARK 923 INTER-LIGAND FREE ENERGY PREDICTED BY IDOCK:   -4.26 KCAL/MOL
REMARK 924 INTRA-LIGAND FREE ENERGY PREDICTED BY IDOCK:    0.47 KCAL/MOL
REMARK 927      BINDING AFFINITY PREDICTED BY RF-SCORE:    0.00 PKD
ROOT
HETATM    1  C   UNL     1     -10.753  12.301  64.011  1.00  0.00    -0.396 C  
HETATM    2  N   UNL     1      -9.645  12.781  64.840  1.00  0.00    -0.477 N  
HETATM    3  H   UNL     1      -8.716  12.933  64.445  1.00  0.00     0.000 HD 
ENDROOT
BRANCH   2   4
HETATM    4  S   UNL     1      -9.961  13.071  66.473  1.00  0.00    -0.266 S  
HETATM    5  O   UNL     1     -11.383  13.304  66.600  1.00  0.00    -0.301 OA 
HETATM    6  O   UNL     1      -8.991  14.054  66.894  1.00  0.00    -0.234 OA 
BRANCH   4   7
HETATM    7  C   UNL     1      -9.547  11.497  67.199  1.00  0.00    -0.177 C  
BRANCH   7   8
HETATM    8  C   UNL     1      -9.841  10.352  66.241  1.00  0.00    -0.272 C  
BRANCH   8   9
HETATM    9  C   UNL     1     -10.161   9.042  66.935  1.00  0.00    -0.339 A  
HETATM   10  C   UNL     1     -10.034   8.960  68.338  1.00  0.00    -0.198 A  
HETATM   11  C   UNL     1     -10.273   7.740  69.013  1.00  0.00    -0.213 A  
HETATM   12  C   UNL     1     -10.670   6.646  68.245  1.00  0.00    -0.257 A  
HETATM   13  C   UNL     1     -10.796   6.685  66.857  1.00  0.00    -0.415 A  
HETATM   14  N   UNL     1     -10.881   5.598  69.099  1.00  0.00    -0.266 NA 
HETATM   15  C   UNL     1     -10.518   7.894  66.218  1.00  0.00     0.491 A  
HETATM   16  H   UNL     1     -11.176   4.663  68.818  1.00  0.00     0.000 HD 
HETATM   17  C   UNL     1     -10.637   5.988  70.384  1.00  0.00    -0.268 A  
HETATM   18  C   UNL     1     -10.181   7.297  70.383  1.00  0.00    -0.200 A  
BRANCH  18  19
HETATM   19  C   UNL     1      -9.702   8.087  71.593  1.00  0.00    -0.222 C  
HETATM   20  C   UNL     1      -8.743   7.297  72.509  1.00  0.00    -0.143 C  
HETATM   21  C   UNL     1      -7.352   7.115  71.880  1.00  0.00    -0.081 C  
HETATM   22  N   UNL     1      -6.717   8.361  71.437  1.00  0.00    -0.057 NA 
HETATM   23  C   UNL     1      -7.623   9.161  70.601  1.00  0.00    -0.133 C  
HETATM   24  C   UNL     1      -6.159   9.119  72.550  1.00  0.00     0.082 C  
HETATM   25  C   UNL     1      -8.998   9.405  71.228  1.00  0.00     0.081 C  
ENDBRANCH  18  19
ENDBRANCH   8   9
ENDBRANCH   7   8
ENDBRANCH   4   7
ENDBRANCH   2   4
TORSDOF 5
ENDMDL
MODEL      222
REMARK 921   NORMALIZED FREE ENERGY PREDICTED BY IDOCK:   -2.53 KCAL/MOL
REMARK 922        TOTAL FREE ENERGY PREDICTED BY IDOCK:   -3.61 KCAL/MOL
REMARK 923 INTER-LIGAND FREE ENERGY PREDICTED BY IDOCK:   -4.61 KCAL/MOL
REMARK 924 INTRA-LIGAND FREE ENERGY PREDICTED BY IDOCK:    1.00 KCAL/MOL
REMARK 927      BINDING AFFINITY PREDICTED BY RF-SCORE:    0.00 PKD
ROOT
HETATM    1  C   UNL     1      -6.488   6.875  65.899  1.00  0.00    -0.051 C  
HETATM    2  N   UNL     1      -7.189   8.144  66.112  1.00  0.00    -0.066 N  
HETATM    3  H   UNL     1      -7.406   8.477  67.052  1.00  0.00     0.000 HD 
ENDROOT
BRANCH   2   4
HETATM    4  S   UNL     1      -7.625   9.034  64.745  1.00  0.00    -0.110 S  
HETATM    5  O   UNL     1      -8.636   8.275  64.043  1.00  0.00    -0.015 OA 
HETATM    6  O   UNL     1      -6.385   9.415  64.111  1.00  0.00    -0.087 OA 
BRANCH   4   7
HETATM    7  C   UNL     1      -8.367  10.476  65.483  1.00  0.00    -0.170 C  
BRANCH   7   8
HETATM    8  C   UNL     1      -8.141  10.506  66.988  1.00  0.00    -0.118 C  
BRANCH   8   9
HETATM    9  C   UNL     1      -9.419  10.614  67.796  1.00  0.00    -0.165 A  
HETATM   10  C   UNL     1      -9.576   9.808  68.943  1.00  0.00    -0.167 A  
HETATM   11  C   UNL     1     -10.777   9.843  69.689  1.00  0.00    -0.277 A  
HETATM   12  C   UNL     1     -11.772  10.726  69.269  1.00  0.00    -0.303 A  
HETATM   13  C   UNL     1     -11.658  11.530  68.136  1.00  0.00    -0.378 A  
HETATM   14  N   UNL     1     -12.814  10.622  70.149  1.00  0.00    -0.439 NA 
HETATM   15  C   UNL     1     -10.475  11.445  67.400  1.00  0.00    -0.239 A  
HETATM   16  H   UNL     1     -13.685  11.149  70.091  1.00  0.00     0.000 HD 
HETATM   17  C   UNL     1     -12.515   9.709  71.118  1.00  0.00    -0.332 A  
HETATM   18  C   UNL     1     -11.285   9.135  70.839  1.00  0.00    -0.359 A  
BRANCH  18  19
HETATM   19  C   UNL     1     -10.622   8.002  71.611  1.00  0.00    -0.280 C  
HETATM   20  C   UNL     1     -10.312   6.762  70.746  1.00  0.00    -0.227 C  
HETATM   21  C   UNL     1      -9.139   7.001  69.782  1.00  0.00    -0.144 C  
HETATM   22  N   UNL     1      -7.914   7.490  70.423  1.00  0.00    -0.100 NA 
HETATM   23  C   UNL     1      -8.183   8.644  71.292  1.00  0.00    -0.154 C  
HETATM   24  C   UNL     1      -7.188   6.426  71.105  1.00  0.00    -0.079 C  
HETATM   25  C   UNL     1      -9.311   8.414  72.302  1.00  0.00    -0.356 C  
ENDBRANCH  18  19
ENDBRANCH   8   9
ENDBRANCH   7   8
ENDBRANCH   4   7
ENDBRANCH   2   4
TORSDOF 5
ENDMDL
MODEL      223
REMARK 921   NORMALIZED FREE ENERGY PREDICTED BY IDOCK:   -2.49 KCAL/MOL
REMARK 922        TOTAL FREE ENERGY PREDICTED BY IDOCK:   -3.56 KCAL/MOL
REMARK 923 INTER-LIGAND FREE ENERGY PREDICTED BY IDOCK:   -3.17 KCAL/MOL
REMARK 924 INTRA-LIGAND FREE ENERGY PREDICTED BY IDOCK:   -0.39 KCAL/MOL
REMARK 927      BINDING AFFINITY PREDICTED BY RF-SCORE:    0.00 PKD
ROOT
HETATM    1  C   UNL     1      -5.930   7.247  65.761  1.00  0.00    -0.037 C  
HETATM    2  N   UNL     1      -7.074   6.339  65.649  1.00  0.00    -0.064 N  
HETATM    3  H   UNL     1      -7.779   6.463  64.921  1.00  0.00     0.000 HD 
ENDROOT
BRANCH   2   4
HETATM    4  S   UNL     1      -7.183   5.080  66.768  1.00  0.00    -0.078 S  
HETATM    5  O   UNL     1      -6.556   3.921  66.174  1.00  0.00    -0.036 OA 
HETATM    6  O   UNL     1      -8.560   5.058  67.205  1.00  0.00    -0.106 OA 
BRANCH   4   7
HETATM    7  C   UNL     1      -6.164   5.696  68.094  1.00  0.00    -0.033 C  
BRANCH   7   8
HETATM    8  C   UNL     1      -5.855   4.604  69.108  1.00  0.00    -0.017 C  
BRANCH   8   9
HETATM    9  C   UNL     1      -7.065   4.146  69.899  1.00  0.00    -0.042 A  
HETATM   10  C   UNL     1      -7.811   5.098  70.624  1.00  0.00    -0.080 A  
HETATM   11  C   UNL     1      -8.913   4.698  71.416  1.00  0.00    -0.163 A  
HETATM   12  C   UNL     1      -9.248   3.344  71.419  1.00  0.00    -0.123 A  
HETATM   13  C   UNL     1      -8.528   2.373  70.725  1.00  0.00    -0.087 A  
HETATM   14  N   UNL     1     -10.354   3.195  72.210  1.00  0.00    -0.097 NA 
HETATM   15  C   UNL     1      -7.424   2.795  69.982  1.00  0.00    -0.043 A  
HETATM   16  H   UNL     1     -10.822   2.309  72.402  1.00  0.00     0.000 HD 
HETATM   17  C   UNL     1     -10.738   4.406  72.707  1.00  0.00    -0.158 A  
HETATM   18  C   UNL     1      -9.830   5.372  72.303  1.00  0.00    -0.199 A  
BRANCH  18  19
HETATM   19  C   UNL     1      -9.829   6.838  72.715  1.00  0.00    -0.183 C  
HETATM   20  C   UNL     1      -9.252   7.784  71.640  1.00  0.00    -0.168 C  
HETATM   21  C   UNL     1     -10.204   7.958  70.445  1.00  0.00    -0.197 C  
HETATM   22  N   UNL     1     -11.565   8.371  70.806  1.00  0.00    -0.265 NA 
HETATM   23  C   UNL     1     -12.125   7.518  71.863  1.00  0.00    -0.305 C  
HETATM   24  C   UNL     1     -11.642   9.791  71.126  1.00  0.00    -0.392 C  
HETATM   25  C   UNL     1     -11.222   7.372  73.091  1.00  0.00    -0.294 C  
ENDBRANCH  18  19
ENDBRANCH   8   9
ENDBRANCH   7   8
ENDBRANCH   4   7
ENDBRANCH   2   4
TORSDOF 5
ENDMDL
MODEL      224
REMARK 921   NORMALIZED FREE ENERGY PREDICTED BY IDOCK:   -2.04 KCAL/MOL
REMARK 922        TOTAL FREE ENERGY PREDICTED BY IDOCK:   -2.97 KCAL/MOL
REMARK 923 INTER-LIGAND FREE ENERGY PREDICTED BY IDOCK:   -2.70 KCAL/MOL
REMARK 924 INTRA-LIGAND FREE ENERGY PREDICTED BY IDOCK:   -0.28 KCAL/MOL
REMARK 927      BINDING AFFINITY PREDICTED BY RF-SCORE:    0.00 PKD
ROOT
HETATM    1  C   UNL     1      -7.685   3.812  65.180  1.00  0.00    -0.085 C  
HETATM    2  N   UNL     1      -8.038   5.204  65.471  1.00  0.00    -0.113 N  
HETATM    3  H   UNL     1      -8.739   5.436  66.176  1.00  0.00     0.000 HD 
ENDROOT
BRANCH   2   4
HETATM    4  S   UNL     1      -7.242   6.409  64.597  1.00  0.00    -0.069 S  
HETATM    5  O   UNL     1      -8.086   7.584  64.618  1.00  0.00    -0.138 OA 
HETATM    6  O   UNL     1      -6.832   5.792  63.357  1.00  0.00    -0.035 OA 
BRANCH   4   7
HETATM    7  C   UNL     1      -5.803   6.690  65.610  1.00  0.00    -0.030 C  
BRANCH   7   8
HETATM    8  C   UNL     1      -5.931   5.992  66.957  1.00  0.00    -0.018 C  
BRANCH   8   9
HETATM    9  C   UNL     1      -6.418   6.899  68.071  1.00  0.00    -0.050 A  
HETATM   10  C   UNL     1      -6.783   6.330  69.309  1.00  0.00    -0.056 A  
HETATM   11  C   UNL     1      -7.291   7.140  70.351  1.00  0.00    -0.079 A  
HETATM   12  C   UNL     1      -7.380   8.512  70.117  1.00  0.00    -0.051 A  
HETATM   13  C   UNL     1      -7.040   9.109  68.905  1.00  0.00    -0.068 A  
HETATM   14  N   UNL     1      -7.855   9.095  71.261  1.00  0.00    -0.324 NA 
HETATM   15  C   UNL     1      -6.576   8.278  67.884  1.00  0.00    -0.061 A  
HETATM   16  H   UNL     1      -8.026  10.093  71.382  1.00  0.00     0.000 HD 
HETATM   17  C   UNL     1      -8.066   8.143  72.216  1.00  0.00    -0.139 A  
HETATM   18  C   UNL     1      -7.801   6.893  71.678  1.00  0.00    -0.100 A  
BRANCH  18  19
HETATM   19  C   UNL     1      -8.003   5.552  72.371  1.00  0.00    -0.103 C  
HETATM   20  C   UNL     1      -8.560   5.672  73.805  1.00  0.00    -0.119 C  
HETATM   21  C   UNL     1     -10.042   6.081  73.822  1.00  0.00    -0.229 C  
HETATM   22  N   UNL     1     -10.918   5.231  73.007  1.00  0.00    -0.275 NA 
HETATM   23  C   UNL     1     -10.388   5.057  71.648  1.00  0.00    -0.192 C  
HETATM   24  C   UNL     1     -11.218   3.964  73.663  1.00  0.00    -0.203 C  
HETATM   25  C   UNL     1      -8.929   4.596  71.601  1.00  0.00    -0.163 C  
ENDBRANCH  18  19
ENDBRANCH   8   9
ENDBRANCH   7   8
ENDBRANCH   4   7
ENDBRANCH   2   4
TORSDOF 5
ENDMDL
MODEL      225
REMARK 921   NORMALIZED FREE ENERGY PREDICTED BY IDOCK:   -1.99 KCAL/MOL
REMARK 922        TOTAL FREE ENERGY PREDICTED BY IDOCK:   -2.91 KCAL/MOL
REMARK 923 INTER-LIGAND FREE ENERGY PREDICTED BY IDOCK:   -4.14 KCAL/MOL
REMARK 924 INTRA-LIGAND FREE ENERGY PREDICTED BY IDOCK:    1.23 KCAL/MOL
REMARK 927      BINDING AFFINITY PREDICTED BY RF-SCORE:    0.00 PKD
ROOT
HETATM    1  C   UNL     1     -14.194   7.159  71.840  1.00  0.00    -0.279 C  
HETATM    2  N   UNL     1     -12.821   6.890  72.277  1.00  0.00    -0.536 N  
HETATM    3  H   UNL     1     -12.630   6.423  73.163  1.00  0.00     0.000 HD 
ENDROOT
BRANCH   2   4
HETATM    4  S   UNL     1     -11.569   7.383  71.258  1.00  0.00    -0.291 S  
HETATM    5  O   UNL     1     -11.869   8.731  70.827  1.00  0.00    -0.266 OA 
HETATM    6  O   UNL     1     -11.383   6.308  70.312  1.00  0.00    -0.357 OA 
BRANCH   4   7
HETATM    7  C   UNL     1     -10.187   7.411  72.384  1.00  0.00    -0.199 C  
BRANCH   7   8
HETATM    8  C   UNL     1      -8.921   6.892  71.718  1.00  0.00    -0.138 C  
BRANCH   8   9
HETATM    9  C   UNL     1      -8.246   7.906  70.816  1.00  0.00    -0.110 A  
HETATM   10  C   UNL     1      -8.519   7.883  69.432  1.00  0.00    -0.133 A  
HETATM   11  C   UNL     1      -7.867   8.779  68.553  1.00  0.00    -0.104 A  
HETATM   12  C   UNL     1      -6.981   9.700  69.113  1.00  0.00    -0.050 A  
HETATM   13  C   UNL     1      -6.677   9.746  70.472  1.00  0.00    -0.125 A  
HETATM   14  N   UNL     1      -6.503  10.481  68.096  1.00  0.00    -0.062 NA 
HETATM   15  C   UNL     1      -7.310   8.825  71.307  1.00  0.00    -0.112 A  
HETATM   16  H   UNL     1      -5.831  11.240  68.207  1.00  0.00     0.000 HD 
HETATM   17  C   UNL     1      -7.057  10.094  66.911  1.00  0.00    -0.091 A  
HETATM   18  C   UNL     1      -7.861   8.985  67.125  1.00  0.00    -0.099 A  
BRANCH  18  19
HETATM   19  C   UNL     1      -8.588   8.178  66.058  1.00  0.00    -0.165 C  
HETATM   20  C   UNL     1      -7.979   6.781  65.815  1.00  0.00    -0.112 C  
HETATM   21  C   UNL     1      -8.268   5.809  66.970  1.00  0.00    -0.101 C  
HETATM   22  N   UNL     1      -9.687   5.688  67.324  1.00  0.00    -0.128 NA 
HETATM   23  C   UNL     1     -10.309   7.005  67.515  1.00  0.00    -0.225 C  
HETATM   24  C   UNL     1     -10.418   4.849  66.382  1.00  0.00    -0.280 C  
HETATM   25  C   UNL     1     -10.085   7.977  66.354  1.00  0.00    -0.174 C  
ENDBRANCH  18  19
ENDBRANCH   8   9
ENDBRANCH   7   8
ENDBRANCH   4   7
ENDBRANCH   2   4
TORSDOF 5
ENDMDL
MODEL      226
REMARK 921   NORMALIZED FREE ENERGY PREDICTED BY IDOCK:   -1.70 KCAL/MOL
REMARK 922        TOTAL FREE ENERGY PREDICTED BY IDOCK:   -2.55 KCAL/MOL
REMARK 923 INTER-LIGAND FREE ENERGY PREDICTED BY IDOCK:   -2.54 KCAL/MOL
REMARK 924 INTRA-LIGAND FREE ENERGY PREDICTED BY IDOCK:   -0.01 KCAL/MOL
REMARK 927      BINDING AFFINITY PREDICTED BY RF-SCORE:    0.00 PKD
ROOT
HETATM    1  C   UNL     1      -6.883   3.097  67.131  1.00  0.00    -0.046 C  
HETATM    2  N   UNL     1      -7.582   4.336  66.780  1.00  0.00    -0.084 N  
HETATM    3  H   UNL     1      -8.403   4.645  67.301  1.00  0.00     0.000 HD 
ENDROOT
BRANCH   2   4
HETATM    4  S   UNL     1      -6.977   5.231  65.483  1.00  0.00    -0.067 S  
HETATM    5  O   UNL     1      -8.073   5.451  64.565  1.00  0.00    -0.110 OA 
HETATM    6  O   UNL     1      -5.766   4.562  65.072  1.00  0.00    -0.014 OA 
BRANCH   4   7
HETATM    7  C   UNL     1      -6.551   6.767  66.281  1.00  0.00    -0.048 C  
BRANCH   7   8
HETATM    8  C   UNL     1      -7.399   6.999  67.523  1.00  0.00    -0.092 C  
BRANCH   8   9
HETATM    9  C   UNL     1      -8.412   8.117  67.370  1.00  0.00    -0.126 A  
HETATM   10  C   UNL     1      -9.173   8.510  68.491  1.00  0.00    -0.135 A  
HETATM   11  C   UNL     1     -10.165   9.512  68.372  1.00  0.00    -0.221 A  
HETATM   12  C   UNL     1     -10.328  10.112  67.124  1.00  0.00    -0.238 A  
HETATM   13  C   UNL     1      -9.604   9.743  65.992  1.00  0.00    -0.296 A  
HETATM   14  N   UNL     1     -11.301  11.067  67.251  1.00  0.00    -0.452 NA 
HETATM   15  C   UNL     1      -8.659   8.726  66.134  1.00  0.00    -0.162 A  
HETATM   16  H   UNL     1     -11.635  11.666  66.496  1.00  0.00     0.000 HD 
HETATM   17  C   UNL     1     -11.757  11.100  68.536  1.00  0.00    -0.298 A  
HETATM   18  C   UNL     1     -11.135  10.098  69.265  1.00  0.00    -0.270 A  
BRANCH  18  19
HETATM   19  C   UNL     1     -11.425   9.722  70.712  1.00  0.00    -0.417 C  
HETATM   20  C   UNL     1     -12.929   9.597  71.031  1.00  0.00    -0.325 C  
HETATM   21  C   UNL     1     -13.553   8.334  70.414  1.00  0.00     1.467 C  
HETATM   22  N   UNL     1     -12.858   7.087  70.749  1.00  0.00    -0.141 NA 
HETATM   23  C   UNL     1     -11.414   7.190  70.502  1.00  0.00    -0.295 C  
HETATM   24  C   UNL     1     -13.169   6.629  72.098  1.00  0.00     0.112 C  
HETATM   25  C   UNL     1     -10.755   8.409  71.152  1.00  0.00    -0.280 C  
ENDBRANCH  18  19
ENDBRANCH   8   9
ENDBRANCH   7   8
ENDBRANCH   4   7
ENDBRANCH   2   4
TORSDOF 5
ENDMDL
MODEL      227
REMARK 921   NORMALIZED FREE ENERGY PREDICTED BY IDOCK:   -1.67 KCAL/MOL
REMARK 922        TOTAL FREE ENERGY PREDICTED BY IDOCK:   -2.51 KCAL/MOL
REMARK 923 INTER-LIGAND FREE ENERGY PREDICTED BY IDOCK:   -2.31 KCAL/MOL
REMARK 924 INTRA-LIGAND FREE ENERGY PREDICTED BY IDOCK:   -0.20 KCAL/MOL
REMARK 927      BINDING AFFINITY PREDICTED BY RF-SCORE:    0.00 PKD
ROOT
HETATM    1  C   UNL     1     -10.213  12.523  68.344  1.00  0.00    -0.228 C  
HETATM    2  N   UNL     1     -10.432  11.193  67.769  1.00  0.00    -0.185 N  
HETATM    3  H   UNL     1     -11.159  10.575  68.130  1.00  0.00     0.000 HD 
ENDROOT
BRANCH   2   4
HETATM    4  S   UNL     1      -9.437  10.724  66.489  1.00  0.00    -0.174 S  
HETATM    5  O   UNL     1      -9.863  11.461  65.320  1.00  0.00    -0.229 OA 
HETATM    6  O   UNL     1      -9.420   9.280  66.511  1.00  0.00    -0.171 OA 
BRANCH   4   7
HETATM    7  C   UNL     1      -7.851  11.332  67.032  1.00  0.00    -0.150 C  
BRANCH   7   8
HETATM    8  C   UNL     1      -6.798  10.233  67.002  1.00  0.00    -0.084 C  
BRANCH   8   9
HETATM    9  C   UNL     1      -6.496   9.640  68.364  1.00  0.00    -0.052 A  
HETATM   10  C   UNL     1      -7.028   8.376  68.695  1.00  0.00    -0.068 A  
HETATM   11  C   UNL     1      -6.811   7.816  69.976  1.00  0.00    -0.049 A  
HETATM   12  C   UNL     1      -6.028   8.543  70.873  1.00  0.00    -0.034 A  
HETATM   13  C   UNL     1      -5.495   9.799  70.586  1.00  0.00    -0.052 A  
HETATM   14  N   UNL     1      -5.920   7.803  72.019  1.00  0.00    -0.036 NA 
HETATM   15  C   UNL     1      -5.758  10.339  69.327  1.00  0.00    -0.037 A  
HETATM   16  H   UNL     1      -5.407   8.086  72.853  1.00  0.00     0.000 HD 
HETATM   17  C   UNL     1      -6.602   6.629  71.881  1.00  0.00    -0.054 A  
HETATM   18  C   UNL     1      -7.241   6.615  70.651  1.00  0.00    -0.074 A  
BRANCH  18  19
HETATM   19  C   UNL     1      -8.186   5.538  70.136  1.00  0.00    -0.102 C  
HETATM   20  C   UNL     1      -7.817   4.115  70.605  1.00  0.00    -0.052 C  
HETATM   21  C   UNL     1      -8.124   3.893  72.095  1.00  0.00    -0.084 C  
HETATM   22  N   UNL     1      -9.501   4.215  72.487  1.00  0.00    -0.126 NA 
HETATM   23  C   UNL     1      -9.899   5.547  72.013  1.00  0.00    -0.166 C  
HETATM   24  C   UNL     1     -10.442   3.172  72.097  1.00  0.00     0.111 C  
HETATM   25  C   UNL     1      -9.657   5.777  70.520  1.00  0.00    -0.214 C  
ENDBRANCH  18  19
ENDBRANCH   8   9
ENDBRANCH   7   8
ENDBRANCH   4   7
ENDBRANCH   2   4
TORSDOF 5
ENDMDL
MODEL      228
REMARK 921   NORMALIZED FREE ENERGY PREDICTED BY IDOCK:   -1.18 KCAL/MOL
REMARK 922        TOTAL FREE ENERGY PREDICTED BY IDOCK:   -1.87 KCAL/MOL
REMARK 923 INTER-LIGAND FREE ENERGY PREDICTED BY IDOCK:   -2.51 KCAL/MOL
REMARK 924 INTRA-LIGAND FREE ENERGY PREDICTED BY IDOCK:    0.64 KCAL/MOL
REMARK 927      BINDING AFFINITY PREDICTED BY RF-SCORE:    0.00 PKD
ROOT
HETATM    1  C   UNL     1     -13.230  15.215  70.659  1.00  0.00    -0.309 C  
HETATM    2  N   UNL     1     -13.264  13.880  71.262  1.00  0.00    -0.310 N  
HETATM    3  H   UNL     1     -13.679  13.725  72.181  1.00  0.00     0.000 HD 
ENDROOT
BRANCH   2   4
HETATM    4  S   UNL     1     -12.589  12.609  70.379  1.00  0.00     0.046 S  
HETATM    5  O   UNL     1     -13.625  12.087  69.516  1.00  0.00     2.452 OA 
HETATM    6  O   UNL     1     -11.913  11.773  71.344  1.00  0.00     0.164 OA 
BRANCH   4   7
HETATM    7  C   UNL     1     -11.371  13.466  69.400  1.00  0.00    -0.226 C  
BRANCH   7   8
HETATM    8  C   UNL     1     -11.659  13.324  67.912  1.00  0.00    -0.370 C  
BRANCH   8   9
HETATM    9  C   UNL     1     -11.231  11.990  67.332  1.00  0.00    -0.368 A  
HETATM   10  C   UNL     1     -11.062  10.889  68.196  1.00  0.00    -0.337 A  
HETATM   11  C   UNL     1     -10.612   9.644  67.697  1.00  0.00    -0.334 A  
HETATM   12  C   UNL     1     -10.382   9.545  66.325  1.00  0.00    -0.156 A  
HETATM   13  C   UNL     1     -10.528  10.613  65.442  1.00  0.00    -0.254 A  
HETATM   14  N   UNL     1      -9.997   8.258  66.064  1.00  0.00    -0.444 NA 
HETATM   15  C   UNL     1     -10.938  11.837  65.971  1.00  0.00    -0.355 A  
HETATM   16  H   UNL     1      -9.758   7.893  65.142  1.00  0.00     0.000 HD 
HETATM   17  C   UNL     1      -9.979   7.534  67.221  1.00  0.00    -0.210 A  
HETATM   18  C   UNL     1     -10.283   8.368  68.285  1.00  0.00    -0.244 A  
BRANCH  18  19
HETATM   19  C   UNL     1     -10.276   7.989  69.760  1.00  0.00    -0.206 C  
HETATM   20  C   UNL     1     -11.318   6.911  70.127  1.00  0.00    -0.364 C  
HETATM   21  C   UNL     1     -10.925   5.519  69.607  1.00  0.00    -0.085 C  
HETATM   22  N   UNL     1      -9.581   5.079  69.998  1.00  0.00    -0.171 NA 
HETATM   23  C   UNL     1      -8.571   6.105  69.704  1.00  0.00    -0.128 C  
HETATM   24  C   UNL     1      -9.534   4.619  71.380  1.00  0.00    -0.157 C  
HETATM   25  C   UNL     1      -8.909   7.491  70.260  1.00  0.00    -0.146 C  
ENDBRANCH  18  19
ENDBRANCH   8   9
ENDBRANCH   7   8
ENDBRANCH   4   7
ENDBRANCH   2   4
TORSDOF 5
ENDMDL
MODEL      229
REMARK 921   NORMALIZED FREE ENERGY PREDICTED BY IDOCK:   -1.10 KCAL/MOL
REMARK 922        TOTAL FREE ENERGY PREDICTED BY IDOCK:   -1.77 KCAL/MOL
REMARK 923 INTER-LIGAND FREE ENERGY PREDICTED BY IDOCK:   -3.26 KCAL/MOL
REMARK 924 INTRA-LIGAND FREE ENERGY PREDICTED BY IDOCK:    1.50 KCAL/MOL
REMARK 927      BINDING AFFINITY PREDICTED BY RF-SCORE:    0.00 PKD
ROOT
HETATM    1  C   UNL     1      -7.777  15.675  66.589  1.00  0.00    -0.033 C  
HETATM    2  N   UNL     1      -8.770  16.062  65.583  1.00  0.00     0.049 N  
HETATM    3  H   UNL     1      -8.587  16.819  64.923  1.00  0.00     0.000 HD 
ENDROOT
BRANCH   2   4
HETATM    4  S   UNL     1     -10.226  15.208  65.557  1.00  0.00    -0.389 S  
HETATM    5  O   UNL     1      -9.907  13.809  65.736  1.00  0.00    -0.280 OA 
HETATM    6  O   UNL     1     -10.940  15.682  64.395  1.00  0.00    -0.335 OA 
BRANCH   4   7
HETATM    7  C   UNL     1     -11.026  15.829  67.024  1.00  0.00    -0.221 C  
BRANCH   7   8
HETATM    8  C   UNL     1     -11.486  14.693  67.926  1.00  0.00    -0.350 C  
BRANCH   8   9
HETATM    9  C   UNL     1     -10.368  13.759  68.348  1.00  0.00    -0.247 A  
HETATM   10  C   UNL     1     -10.602  12.368  68.351  1.00  0.00    -0.251 A  
HETATM   11  C   UNL     1      -9.600  11.470  68.790  1.00  0.00    -0.112 A  
HETATM   12  C   UNL     1      -8.375  12.012  69.180  1.00  0.00     0.442 A  
HETATM   13  C   UNL     1      -8.111  13.380  69.201  1.00  0.00     0.414 A  
HETATM   14  N   UNL     1      -7.556  10.971  69.524  1.00  0.00    -0.351 NA 
HETATM   15  C   UNL     1      -9.132  14.241  68.797  1.00  0.00    -0.103 A  
HETATM   16  H   UNL     1      -6.595  11.066  69.853  1.00  0.00     0.000 HD 
HETATM   17  C   UNL     1      -8.214   9.787  69.361  1.00  0.00    -0.135 A  
HETATM   18  C   UNL     1      -9.520  10.042  68.975  1.00  0.00    -0.190 A  
BRANCH  18  19
HETATM   19  C   UNL     1     -10.622   9.008  68.781  1.00  0.00    -0.196 C  
HETATM   20  C   UNL     1     -10.812   8.572  67.313  1.00  0.00    -0.076 C  
HETATM   21  C   UNL     1      -9.666   7.674  66.819  1.00  0.00    -0.222 C  
HETATM   22  N   UNL     1      -9.401   6.505  67.665  1.00  0.00    -0.119 NA 
HETATM   23  C   UNL     1      -9.263   6.881  69.078  1.00  0.00    -0.137 C  
HETATM   24  C   UNL     1     -10.378   5.443  67.456  1.00  0.00    -0.190 C  
HETATM   25  C   UNL     1     -10.419   7.730  69.614  1.00  0.00    -0.229 C  
ENDBRANCH  18  19
ENDBRANCH   8   9
ENDBRANCH   7   8
ENDBRANCH   4   7
ENDBRANCH   2   4
TORSDOF 5
ENDMDL
MODEL      230
REMARK 921   NORMALIZED FREE ENERGY PREDICTED BY IDOCK:   -1.05 KCAL/MOL
REMARK 922        TOTAL FREE ENERGY PREDICTED BY IDOCK:   -1.70 KCAL/MOL
REMARK 923 INTER-LIGAND FREE ENERGY PREDICTED BY IDOCK:   -1.34 KCAL/MOL
REMARK 924 INTRA-LIGAND FREE ENERGY PREDICTED BY IDOCK:   -0.36 KCAL/MOL
REMARK 927      BINDING AFFINITY PREDICTED BY RF-SCORE:    0.00 PKD
ROOT
HETATM    1  C   UNL     1      -6.867  12.622  67.073  1.00  0.00     0.117 C  
HETATM    2  N   UNL     1      -6.907  12.724  68.535  1.00  0.00    -0.087 N  
HETATM    3  H   UNL     1      -7.432  13.465  68.999  1.00  0.00     0.000 HD 
ENDROOT
BRANCH   2   4
HETATM    4  S   UNL     1      -6.051  11.569  69.420  1.00  0.00    -0.097 S  
HETATM    5  O   UNL     1      -5.197  12.282  70.344  1.00  0.00    -0.091 OA 
HETATM    6  O   UNL     1      -5.514  10.646  68.449  1.00  0.00    -0.041 OA 
BRANCH   4   7
HETATM    7  C   UNL     1      -7.365  10.768  70.319  1.00  0.00     0.504 C  
BRANCH   7   8
HETATM    8  C   UNL     1      -8.694  10.898  69.589  1.00  0.00     0.390 C  
BRANCH   8   9
HETATM    9  C   UNL     1      -9.602   9.696  69.756  1.00  0.00    -0.242 A  
HETATM   10  C   UNL     1      -9.087   8.407  69.506  1.00  0.00    -0.153 A  
HETATM   11  C   UNL     1      -9.921   7.267  69.599  1.00  0.00    -0.176 A  
HETATM   12  C   UNL     1     -11.247   7.468  69.980  1.00  0.00    -0.157 A  
HETATM   13  C   UNL     1     -11.795   8.727  70.225  1.00  0.00     0.144 A  
HETATM   14  N   UNL     1     -11.848   6.241  70.042  1.00  0.00    -0.350 NA 
HETATM   15  C   UNL     1     -10.956   9.834  70.089  1.00  0.00    -0.339 A  
HETATM   16  H   UNL     1     -12.823   6.078  70.292  1.00  0.00     0.000 HD 
HETATM   17  C   UNL     1     -10.950   5.265  69.720  1.00  0.00     0.284 A  
HETATM   18  C   UNL     1      -9.748   5.855  69.361  1.00  0.00    -0.191 A  
BRANCH  18  19
HETATM   19  C   UNL     1      -8.511   5.137  68.839  1.00  0.00    -0.090 C  
HETATM   20  C   UNL     1      -8.816   3.772  68.186  1.00  0.00    -0.144 C  
HETATM   21  C   UNL     1      -9.499   3.920  66.817  1.00  0.00    -0.202 C  
HETATM   22  N   UNL     1      -8.787   4.786  65.871  1.00  0.00    -0.123 NA 
HETATM   23  C   UNL     1      -8.440   6.078  66.479  1.00  0.00    -0.115 C  
HETATM   24  C   UNL     1      -7.640   4.118  65.270  1.00  0.00    -0.081 C  
HETATM   25  C   UNL     1      -7.707   5.960  67.818  1.00  0.00    -0.097 C  
ENDBRANCH  18  19
ENDBRANCH   8   9
ENDBRANCH   7   8
ENDBRANCH   4   7
ENDBRANCH   2   4
TORSDOF 5
ENDMDL
MODEL      231
REMARK 921   NORMALIZED FREE ENERGY PREDICTED BY IDOCK:   -0.91 KCAL/MOL
REMARK 922        TOTAL FREE ENERGY PREDICTED BY IDOCK:   -1.52 KCAL/MOL
REMARK 923 INTER-LIGAND FREE ENERGY PREDICTED BY IDOCK:   -1.01 KCAL/MOL
REMARK 924 INTRA-LIGAND FREE ENERGY PREDICTED BY IDOCK:   -0.52 KCAL/MOL
REMARK 927      BINDING AFFINITY PREDICTED BY RF-SCORE:    0.00 PKD
ROOT
HETATM    1  C   UNL     1     -11.296  13.588  68.707  1.00  0.00    -0.290 C  
HETATM    2  N   UNL     1     -11.264  14.009  70.110  1.00  0.00    -0.482 N  
HETATM    3  H   UNL     1     -10.559  14.664  70.450  1.00  0.00     0.000 HD 
ENDROOT
BRANCH   2   4
HETATM    4  S   UNL     1     -12.438  13.371  71.142  1.00  0.00    -0.249 S  
HETATM    5  O   UNL     1     -13.711  13.930  70.744  1.00  0.00     0.036 OA 
HETATM    6  O   UNL     1     -11.920  13.539  72.480  1.00  0.00     0.860 OA 
BRANCH   4   7
HETATM    7  C   UNL     1     -12.385  11.642  70.712  1.00  0.00    -0.358 C  
BRANCH   7   8
HETATM    8  C   UNL     1     -12.442  10.761  71.952  1.00  0.00    -0.130 C  
BRANCH   8   9
HETATM    9  C   UNL     1     -11.360   9.701  71.998  1.00  0.00     0.215 A  
HETATM   10  C   UNL     1     -10.084  10.000  71.477  1.00  0.00     1.452 A  
HETATM   11  C   UNL     1      -9.066   9.017  71.454  1.00  0.00    -0.271 A  
HETATM   12  C   UNL     1      -9.366   7.767  71.996  1.00  0.00    -0.152 A  
HETATM   13  C   UNL     1     -10.617   7.431  72.510  1.00  0.00    -0.304 A  
HETATM   14  N   UNL     1      -8.237   6.998  71.905  1.00  0.00    -0.103 NA 
HETATM   15  C   UNL     1     -11.610   8.411  72.484  1.00  0.00    -0.426 A  
HETATM   16  H   UNL     1      -8.161   6.031  72.220  1.00  0.00     0.000 HD 
HETATM   17  C   UNL     1      -7.230   7.716  71.329  1.00  0.00    -0.062 A  
HETATM   18  C   UNL     1      -7.713   8.961  70.959  1.00  0.00    -0.155 A  
BRANCH  18  19
HETATM   19  C   UNL     1      -6.947  10.035  70.198  1.00  0.00    -0.148 C  
HETATM   20  C   UNL     1      -5.630   9.533  69.572  1.00  0.00    -0.034 C  
HETATM   21  C   UNL     1      -5.871   8.623  68.356  1.00  0.00    -0.042 C  
HETATM   22  N   UNL     1      -6.733   9.205  67.322  1.00  0.00    -0.068 NA 
HETATM   23  C   UNL     1      -7.978   9.737  67.894  1.00  0.00    -0.104 C  
HETATM   24  C   UNL     1      -6.026  10.181  66.502  1.00  0.00    -0.062 C  
HETATM   25  C   UNL     1      -7.765  10.691  69.072  1.00  0.00    -0.130 C  
ENDBRANCH  18  19
ENDBRANCH   8   9
ENDBRANCH   7   8
ENDBRANCH   4   7
ENDBRANCH   2   4
TORSDOF 5
ENDMDL
MODEL      232
REMARK 921   NORMALIZED FREE ENERGY PREDICTED BY IDOCK:   -0.71 KCAL/MOL
REMARK 922        TOTAL FREE ENERGY PREDICTED BY IDOCK:   -1.27 KCAL/MOL
REMARK 923 INTER-LIGAND FREE ENERGY PREDICTED BY IDOCK:   -3.35 KCAL/MOL
REMARK 924 INTRA-LIGAND FREE ENERGY PREDICTED BY IDOCK:    2.08 KCAL/MOL
REMARK 927      BINDING AFFINITY PREDICTED BY RF-SCORE:    0.00 PKD
ROOT
HETATM    1  C   UNL     1      -6.151   7.459  66.176  1.00  0.00    -0.037 C  
HETATM    2  N   UNL     1      -7.574   7.521  66.517  1.00  0.00    -0.087 N  
HETATM    3  H   UNL     1      -8.290   7.581  65.791  1.00  0.00     0.000 HD 
ENDROOT
BRANCH   2   4
HETATM    4  S   UNL     1      -7.986   7.490  68.154  1.00  0.00    -0.124 S  
HETATM    5  O   UNL     1      -8.081   6.102  68.547  1.00  0.00    -0.106 OA 
HETATM    6  O   UNL     1      -9.101   8.397  68.297  1.00  0.00    -0.139 OA 
BRANCH   4   7
HETATM    7  C   UNL     1      -6.542   8.224  68.896  1.00  0.00    -0.053 C  
BRANCH   7   8
HETATM    8  C   UNL     1      -6.671   8.289  70.411  1.00  0.00    -0.036 C  
BRANCH   8   9
HETATM    9  C   UNL     1      -8.102   8.221  70.905  1.00  0.00    -0.105 A  
HETATM   10  C   UNL     1      -8.647   6.968  71.259  1.00  0.00    -0.119 A  
HETATM   11  C   UNL     1      -9.996   6.860  71.673  1.00  0.00    -0.180 A  
HETATM   12  C   UNL     1     -10.742   8.036  71.750  1.00  0.00    -0.240 A  
HETATM   13  C   UNL     1     -10.243   9.289  71.399  1.00  0.00    -0.371 A  
HETATM   14  N   UNL     1     -11.990   7.702  72.204  1.00  0.00    -0.321 NA 
HETATM   15  C   UNL     1      -8.920   9.357  70.960  1.00  0.00    -0.117 A  
HETATM   16  H   UNL     1     -12.753   8.361  72.355  1.00  0.00     0.000 HD 
HETATM   17  C   UNL     1     -12.061   6.357  72.423  1.00  0.00    -0.125 A  
HETATM   18  C   UNL     1     -10.867   5.769  72.037  1.00  0.00    -0.306 A  
BRANCH  18  19
HETATM   19  C   UNL     1     -10.558   4.278  72.022  1.00  0.00    -0.018 C  
HETATM   20  C   UNL     1      -9.068   3.956  71.782  1.00  0.00    -0.169 C  
HETATM   21  C   UNL     1      -8.196   4.283  73.005  1.00  0.00    -0.091 C  
HETATM   22  N   UNL     1      -8.651   3.672  74.259  1.00  0.00    -0.088 NA 
HETATM   23  C   UNL     1     -10.080   3.921  74.493  1.00  0.00    -0.189 C  
HETATM   24  C   UNL     1      -8.303   2.259  74.339  1.00  0.00    -0.059 C  
HETATM   25  C   UNL     1     -10.980   3.551  73.311  1.00  0.00    -0.271 C  
ENDBRANCH  18  19
ENDBRANCH   8   9
ENDBRANCH   7   8
ENDBRANCH   4   7
ENDBRANCH   2   4
TORSDOF 5
ENDMDL
MODEL      233
REMARK 921   NORMALIZED FREE ENERGY PREDICTED BY IDOCK:   -0.70 KCAL/MOL
REMARK 922        TOTAL FREE ENERGY PREDICTED BY IDOCK:   -1.24 KCAL/MOL
REMARK 923 INTER-LIGAND FREE ENERGY PREDICTED BY IDOCK:   -0.92 KCAL/MOL
REMARK 924 INTRA-LIGAND FREE ENERGY PREDICTED BY IDOCK:   -0.32 KCAL/MOL
REMARK 927      BINDING AFFINITY PREDICTED BY RF-SCORE:    0.00 PKD
ROOT
HETATM    1  C   UNL     1      -6.867  12.622  67.073  1.00  0.00     0.117 C  
HETATM    2  N   UNL     1      -6.907  12.724  68.535  1.00  0.00    -0.087 N  
HETATM    3  H   UNL     1      -7.432  13.465  68.999  1.00  0.00     0.000 HD 
ENDROOT
BRANCH   2   4
HETATM    4  S   UNL     1      -6.051  11.569  69.420  1.00  0.00    -0.097 S  
HETATM    5  O   UNL     1      -5.197  12.282  70.344  1.00  0.00    -0.091 OA 
HETATM    6  O   UNL     1      -5.514  10.646  68.449  1.00  0.00    -0.041 OA 
BRANCH   4   7
HETATM    7  C   UNL     1      -7.365  10.768  70.319  1.00  0.00     0.504 C  
BRANCH   7   8
HETATM    8  C   UNL     1      -8.694  10.898  69.589  1.00  0.00     0.390 C  
BRANCH   8   9
HETATM    9  C   UNL     1      -9.602   9.696  69.756  1.00  0.00    -0.242 A  
HETATM   10  C   UNL     1      -9.102   8.411  69.456  1.00  0.00    -0.153 A  
HETATM   11  C   UNL     1      -9.938   7.274  69.549  1.00  0.00    -0.170 A  
HETATM   12  C   UNL     1     -11.250   7.470  69.979  1.00  0.00    -0.157 A  
HETATM   13  C   UNL     1     -11.783   8.724  70.273  1.00  0.00     0.061 A  
HETATM   14  N   UNL     1     -11.855   6.244  70.030  1.00  0.00    -0.350 NA 
HETATM   15  C   UNL     1     -10.943   9.831  70.137  1.00  0.00    -0.339 A  
HETATM   16  H   UNL     1     -12.822   6.079  70.309  1.00  0.00     0.000 HD 
HETATM   17  C   UNL     1     -10.972   5.274  69.653  1.00  0.00     0.328 A  
HETATM   18  C   UNL     1      -9.780   5.867  69.269  1.00  0.00    -0.182 A  
BRANCH  18  19
HETATM   19  C   UNL     1      -8.565   5.157  68.688  1.00  0.00    -0.088 C  
HETATM   20  C   UNL     1      -7.219   5.749  69.156  1.00  0.00    -0.074 C  
HETATM   21  C   UNL     1      -6.910   5.409  70.623  1.00  0.00    -0.048 C  
HETATM   22  N   UNL     1      -6.974   3.979  70.943  1.00  0.00    -0.032 NA 
HETATM   23  C   UNL     1      -8.225   3.374  70.468  1.00  0.00    -0.052 C  
HETATM   24  C   UNL     1      -5.790   3.261  70.487  1.00  0.00    -0.018 C  
HETATM   25  C   UNL     1      -8.530   3.649  68.993  1.00  0.00    -0.101 C  
ENDBRANCH  18  19
ENDBRANCH   8   9
ENDBRANCH   7   8
ENDBRANCH   4   7
ENDBRANCH   2   4
TORSDOF 5
ENDMDL
MODEL      234
REMARK 921   NORMALIZED FREE ENERGY PREDICTED BY IDOCK:   -0.15 KCAL/MOL
REMARK 922        TOTAL FREE ENERGY PREDICTED BY IDOCK:   -0.54 KCAL/MOL
REMARK 923 INTER-LIGAND FREE ENERGY PREDICTED BY IDOCK:   -1.58 KCAL/MOL
REMARK 924 INTRA-LIGAND FREE ENERGY PREDICTED BY IDOCK:    1.04 KCAL/MOL
REMARK 927      BINDING AFFINITY PREDICTED BY RF-SCORE:    0.00 PKD
ROOT
HETATM    1  C   UNL     1      -8.677  13.611  66.443  1.00  0.00     0.248 C  
HETATM    2  N   UNL     1      -7.251  13.560  66.777  1.00  0.00     0.170 N  
HETATM    3  H   UNL     1      -6.654  12.807  66.432  1.00  0.00     0.000 HD 
ENDROOT
BRANCH   2   4
HETATM    4  S   UNL     1      -6.634  14.792  67.751  1.00  0.00    -0.161 S  
HETATM    5  O   UNL     1      -6.821  16.038  67.040  1.00  0.00    -0.204 OA 
HETATM    6  O   UNL     1      -5.325  14.346  68.169  1.00  0.00    -0.108 OA 
BRANCH   4   7
HETATM    7  C   UNL     1      -7.742  14.729  69.146  1.00  0.00    -0.144 C  
BRANCH   7   8
HETATM    8  C   UNL     1      -8.876  15.733  68.997  1.00  0.00    -0.236 C  
BRANCH   8   9
HETATM    9  C   UNL     1     -10.141  15.339  69.734  1.00  0.00    -0.230 A  
HETATM   10  C   UNL     1     -10.433  13.971  69.913  1.00  0.00     0.505 A  
HETATM   11  C   UNL     1     -11.630  13.566  70.548  1.00  0.00     0.003 A  
HETATM   12  C   UNL     1     -12.481  14.567  71.016  1.00  0.00    -0.341 A  
HETATM   13  C   UNL     1     -12.233  15.929  70.848  1.00  0.00    -0.397 A  
HETATM   14  N   UNL     1     -13.544  13.954  71.622  1.00  0.00    -0.351 NA 
HETATM   15  C   UNL     1     -11.060  16.294  70.185  1.00  0.00    -0.346 A  
HETATM   16  H   UNL     1     -14.331  14.438  72.055  1.00  0.00     0.000 HD 
HETATM   17  C   UNL     1     -13.397  12.599  71.560  1.00  0.00    -0.119 A  
HETATM   18  C   UNL     1     -12.255  12.298  70.834  1.00  0.00    -0.296 A  
BRANCH  18  19
HETATM   19  C   UNL     1     -11.774  10.906  70.444  1.00  0.00    -0.444 C  
HETATM   20  C   UNL     1     -12.490  10.328  69.206  1.00  0.00     0.532 C  
HETATM   21  C   UNL     1     -12.050  11.016  67.903  1.00  0.00     0.441 C  
HETATM   22  N   UNL     1     -10.599  11.037  67.686  1.00  0.00    -0.203 NA 
HETATM   23  C   UNL     1      -9.884  11.539  68.868  1.00  0.00    -0.075 C  
HETATM   24  C   UNL     1     -10.093   9.750  67.225  1.00  0.00    -0.207 C  
HETATM   25  C   UNL     1     -10.262  10.833  70.172  1.00  0.00     0.383 C  
ENDBRANCH  18  19
ENDBRANCH   8   9
ENDBRANCH   7   8
ENDBRANCH   4   7
ENDBRANCH   2   4
TORSDOF 5
ENDMDL
MODEL      235
REMARK 921   NORMALIZED FREE ENERGY PREDICTED BY IDOCK:    0.35 KCAL/MOL
REMARK 922        TOTAL FREE ENERGY PREDICTED BY IDOCK:    0.11 KCAL/MOL
REMARK 923 INTER-LIGAND FREE ENERGY PREDICTED BY IDOCK:   -3.75 KCAL/MOL
REMARK 924 INTRA-LIGAND FREE ENERGY PREDICTED BY IDOCK:    3.87 KCAL/MOL
REMARK 927      BINDING AFFINITY PREDICTED BY RF-SCORE:    0.00 PKD
ROOT
HETATM    1  C   UNL     1      -9.720  11.180  64.954  1.00  0.00    -0.251 C  
HETATM    2  N   UNL     1     -10.075  12.325  64.112  1.00  0.00    -0.473 N  
HETATM    3  H   UNL     1      -9.382  12.780  63.517  1.00  0.00     0.000 HD 
ENDROOT
BRANCH   2   4
HETATM    4  S   UNL     1     -11.674  12.864  64.164  1.00  0.00    -0.440 S  
HETATM    5  O   UNL     1     -12.515  11.755  63.773  1.00  0.00    -0.421 OA 
HETATM    6  O   UNL     1     -11.691  14.119  63.449  1.00  0.00     0.105 OA 
BRANCH   4   7
HETATM    7  C   UNL     1     -11.883  13.186  65.905  1.00  0.00    -0.406 C  
BRANCH   7   8
HETATM    8  C   UNL     1     -11.867  11.895  66.711  1.00  0.00    -0.170 C  
BRANCH   8   9
HETATM    9  C   UNL     1     -10.527  11.593  67.354  1.00  0.00    -0.239 A  
HETATM   10  C   UNL     1      -9.897  10.361  67.081  1.00  0.00    -0.221 A  
HETATM   11  C   UNL     1      -8.673  10.024  67.706  1.00  0.00    -0.125 A  
HETATM   12  C   UNL     1      -8.106  10.966  68.563  1.00  0.00    -0.137 A  
HETATM   13  C   UNL     1      -8.704  12.188  68.866  1.00  0.00     0.236 A  
HETATM   14  N   UNL     1      -6.923  10.450  69.017  1.00  0.00    -0.066 NA 
HETATM   15  C   UNL     1      -9.928  12.476  68.262  1.00  0.00    -0.229 A  
HETATM   16  H   UNL     1      -6.290  10.919  69.665  1.00  0.00     0.000 HD 
HETATM   17  C   UNL     1      -6.714   9.216  68.474  1.00  0.00    -0.059 A  
HETATM   18  C   UNL     1      -7.812   8.866  67.704  1.00  0.00    -0.101 A  
BRANCH  18  19
HETATM   19  C   UNL     1      -8.034   7.533  67.001  1.00  0.00    -0.116 C  
HETATM   20  C   UNL     1      -6.969   6.469  67.339  1.00  0.00    -0.078 C  
HETATM   21  C   UNL     1      -7.125   5.921  68.767  1.00  0.00    -0.081 C  
HETATM   22  N   UNL     1      -8.465   5.414  69.081  1.00  0.00    -0.102 NA 
HETATM   23  C   UNL     1      -9.507   6.386  68.726  1.00  0.00    -0.127 C  
HETATM   24  C   UNL     1      -8.703   4.095  68.506  1.00  0.00    -0.098 C  
HETATM   25  C   UNL     1      -9.410   6.908  67.290  1.00  0.00    -0.152 C  
ENDBRANCH  18  19
ENDBRANCH   8   9
ENDBRANCH   7   8
ENDBRANCH   4   7
ENDBRANCH   2   4
TORSDOF 5
ENDMDL
MODEL      236
REMARK 921   NORMALIZED FREE ENERGY PREDICTED BY IDOCK:    1.85 KCAL/MOL
REMARK 922        TOTAL FREE ENERGY PREDICTED BY IDOCK:    2.05 KCAL/MOL
REMARK 923 INTER-LIGAND FREE ENERGY PREDICTED BY IDOCK:    1.17 KCAL/MOL
REMARK 924 INTRA-LIGAND FREE ENERGY PREDICTED BY IDOCK:    0.88 KCAL/MOL
REMARK 927      BINDING AFFINITY PREDICTED BY RF-SCORE:    0.00 PKD
ROOT
HETATM    1  C   UNL     1     -13.516  15.817  70.479  1.00  0.00     0.550 C  
HETATM    2  N   UNL     1     -13.117  14.615  69.743  1.00  0.00    -0.295 N  
HETATM    3  H   UNL     1     -13.692  13.771  69.756  1.00  0.00     0.000 HD 
ENDROOT
BRANCH   2   4
HETATM    4  S   UNL     1     -11.672  14.677  68.872  1.00  0.00    -0.309 S  
HETATM    5  O   UNL     1     -11.930  15.431  67.665  1.00  0.00    -0.124 OA 
HETATM    6  O   UNL     1     -11.178  13.321  68.829  1.00  0.00    -0.248 OA 
BRANCH   4   7
HETATM    7  C   UNL     1     -10.642  15.637  69.965  1.00  0.00    -0.332 C  
BRANCH   7   8
HETATM    8  C   UNL     1      -9.709  16.552  69.184  1.00  0.00    -0.241 C  
BRANCH   8   9
HETATM    9  C   UNL     1      -8.543  15.829  68.540  1.00  0.00    -0.183 A  
HETATM   10  C   UNL     1      -8.775  14.606  67.877  1.00  0.00    -0.169 A  
HETATM   11  C   UNL     1      -7.703  13.877  67.311  1.00  0.00    -0.104 A  
HETATM   12  C   UNL     1      -6.427  14.432  67.405  1.00  0.00     0.120 A  
HETATM   13  C   UNL     1      -6.156  15.632  68.062  1.00  0.00    -0.150 A  
HETATM   14  N   UNL     1      -5.562  13.587  66.764  1.00  0.00     0.484 NA 
HETATM   15  C   UNL     1      -7.230  16.308  68.640  1.00  0.00    -0.166 A  
HETATM   16  H   UNL     1      -4.557  13.734  66.675  1.00  0.00     0.000 HD 
HETATM   17  C   UNL     1      -6.244  12.517  66.261  1.00  0.00     1.977 A  
HETATM   18  C   UNL     1      -7.575  12.608  66.637  1.00  0.00     0.436 A  
BRANCH  18  19
HETATM   19  C   UNL     1      -8.660  11.574  66.371  1.00  0.00    -0.159 C  
HETATM   20  C   UNL     1      -9.124  11.527  64.899  1.00  0.00     0.080 C  
HETATM   21  C   UNL     1      -8.072  10.890  63.977  1.00  0.00     0.298 C  
HETATM   22  N   UNL     1      -7.609   9.566  64.405  1.00  0.00    -0.116 NA 
HETATM   23  C   UNL     1      -7.205   9.566  65.817  1.00  0.00    -0.097 C  
HETATM   24  C   UNL     1      -8.575   8.519  64.093  1.00  0.00     0.042 C  
HETATM   25  C   UNL     1      -8.257  10.144  66.767  1.00  0.00    -0.122 C  
ENDBRANCH  18  19
ENDBRANCH   8   9
ENDBRANCH   7   8
ENDBRANCH   4   7
ENDBRANCH   2   4
TORSDOF 5
ENDMDL
MODEL      237
REMARK 921   NORMALIZED FREE ENERGY PREDICTED BY IDOCK:    3.49 KCAL/MOL
REMARK 922        TOTAL FREE ENERGY PREDICTED BY IDOCK:    4.17 KCAL/MOL
REMARK 923 INTER-LIGAND FREE ENERGY PREDICTED BY IDOCK:    2.75 KCAL/MOL
REMARK 924 INTRA-LIGAND FREE ENERGY PREDICTED BY IDOCK:    1.41 KCAL/MOL
REMARK 927      BINDING AFFINITY PREDICTED BY RF-SCORE:    0.00 PKD
ROOT
HETATM    1  C   UNL     1     -10.043  15.202  65.186  1.00  0.00    -0.296 C  
HETATM    2  N   UNL     1     -10.672  15.163  63.863  1.00  0.00     0.672 N  
HETATM    3  H   UNL     1     -10.197  15.537  63.040  1.00  0.00     0.000 HD 
ENDROOT
BRANCH   2   4
HETATM    4  S   UNL     1     -12.211  14.479  63.752  1.00  0.00     0.352 S  
HETATM    5  O   UNL     1     -12.292  13.808  62.473  1.00  0.00     0.116 OA 
HETATM    6  O   UNL     1     -13.136  15.524  64.120  1.00  0.00    -0.199 OA 
BRANCH   4   7
HETATM    7  C   UNL     1     -12.155  13.267  65.058  1.00  0.00    -0.408 C  
BRANCH   7   8
HETATM    8  C   UNL     1     -11.644  13.877  66.356  1.00  0.00    -0.382 C  
BRANCH   8   9
HETATM    9  C   UNL     1     -11.875  13.003  67.573  1.00  0.00    -0.408 A  
HETATM   10  C   UNL     1     -11.854  13.593  68.854  1.00  0.00    -0.402 A  
HETATM   11  C   UNL     1     -12.013  12.800  70.015  1.00  0.00    -0.371 A  
HETATM   12  C   UNL     1     -12.225  11.434  69.838  1.00  0.00    -0.277 A  
HETATM   13  C   UNL     1     -12.242  10.813  68.590  1.00  0.00     0.207 A  
HETATM   14  N   UNL     1     -12.389  10.878  71.078  1.00  0.00    -0.377 NA 
HETATM   15  C   UNL     1     -12.046  11.618  67.466  1.00  0.00     0.191 A  
HETATM   16  H   UNL     1     -12.557   9.888  71.259  1.00  0.00     0.000 HD 
HETATM   17  C   UNL     1     -12.294  11.844  72.037  1.00  0.00     0.776 A  
HETATM   18  C   UNL     1     -11.985  13.053  71.435  1.00  0.00     0.628 A  
BRANCH  18  19
HETATM   19  C   UNL     1     -11.693  14.367  72.148  1.00  0.00     0.273 C  
HETATM   20  C   UNL     1     -12.123  15.615  71.348  1.00  0.00    -0.476 C  
HETATM   21  C   UNL     1     -13.650  15.790  71.317  1.00  0.00    -0.055 C  
HETATM   22  N   UNL     1     -14.291  15.789  72.636  1.00  0.00    -0.360 NA 
HETATM   23  C   UNL     1     -13.864  14.637  73.442  1.00  0.00     1.165 C  
HETATM   24  C   UNL     1     -14.119  17.059  73.332  1.00  0.00     2.618 C  
HETATM   25  C   UNL     1     -12.345  14.470  73.537  1.00  0.00    -0.235 C  
ENDBRANCH  18  19
ENDBRANCH   8   9
ENDBRANCH   7   8
ENDBRANCH   4   7
ENDBRANCH   2   4
TORSDOF 5
ENDMDL
MODEL      238
REMARK 921   NORMALIZED FREE ENERGY PREDICTED BY IDOCK:    3.65 KCAL/MOL
REMARK 922        TOTAL FREE ENERGY PREDICTED BY IDOCK:    4.38 KCAL/MOL
REMARK 923 INTER-LIGAND FREE ENERGY PREDICTED BY IDOCK:    3.35 KCAL/MOL
REMARK 924 INTRA-LIGAND FREE ENERGY PREDICTED BY IDOCK:    1.03 KCAL/MOL
REMARK 927      BINDING AFFINITY PREDICTED BY RF-SCORE:    0.00 PKD
ROOT
HETATM    1  C   UNL     1     -10.004  15.171  65.139  1.00  0.00    -0.231 C  
HETATM    2  N   UNL     1     -10.987  15.469  64.094  1.00  0.00    -0.399 N  
HETATM    3  H   UNL     1     -10.792  16.158  63.366  1.00  0.00     0.000 HD 
ENDROOT
BRANCH   2   4
HETATM    4  S   UNL     1     -12.451  14.630  64.138  1.00  0.00     0.116 S  
HETATM    5  O   UNL     1     -13.203  15.016  62.965  1.00  0.00     1.374 OA 
HETATM    6  O   UNL     1     -12.973  14.819  65.471  1.00  0.00    -0.109 OA 
BRANCH   4   7
HETATM    7  C   UNL     1     -11.898  12.945  63.965  1.00  0.00    -0.443 C  
BRANCH   7   8
HETATM    8  C   UNL     1     -10.535  12.740  64.612  1.00  0.00    -0.373 C  
BRANCH   8   9
HETATM    9  C   UNL     1     -10.318  11.339  65.149  1.00  0.00    -0.353 A  
HETATM   10  C   UNL     1      -9.136  11.055  65.864  1.00  0.00    -0.214 A  
HETATM   11  C   UNL     1      -8.875   9.746  66.333  1.00  0.00    -0.163 A  
HETATM   12  C   UNL     1      -9.842   8.770  66.092  1.00  0.00    -0.227 A  
HETATM   13  C   UNL     1     -11.016   9.011  65.380  1.00  0.00     3.748 A  
HETATM   14  N   UNL     1      -9.403   7.606  66.661  1.00  0.00    -0.181 NA 
HETATM   15  C   UNL     1     -11.227  10.304  64.900  1.00  0.00     1.714 A  
HETATM   16  H   UNL     1      -9.905   6.718  66.640  1.00  0.00     0.000 HD 
HETATM   17  C   UNL     1      -8.193   7.807  67.259  1.00  0.00    -0.119 A  
HETATM   18  C   UNL     1      -7.780   9.108  67.022  1.00  0.00    -0.098 A  
BRANCH  18  19
HETATM   19  C   UNL     1      -6.444   9.719  67.428  1.00  0.00    -0.069 C  
HETATM   20  C   UNL     1      -6.525  11.224  67.756  1.00  0.00    -0.060 C  
HETATM   21  C   UNL     1      -7.232  11.493  69.094  1.00  0.00    -0.084 C  
HETATM   22  N   UNL     1      -6.678  10.755  70.234  1.00  0.00    -0.265 NA 
HETATM   23  C   UNL     1      -6.543   9.323  69.936  1.00  0.00    -0.049 C  
HETATM   24  C   UNL     1      -5.439  11.349  70.723  1.00  0.00    -0.126 C  
HETATM   25  C   UNL     1      -5.793   9.024  68.636  1.00  0.00    -0.041 C  
ENDBRANCH  18  19
ENDBRANCH   8   9
ENDBRANCH   7   8
ENDBRANCH   4   7
ENDBRANCH   2   4
TORSDOF 5
ENDMDL
MODEL      239
REMARK 921   NORMALIZED FREE ENERGY PREDICTED BY IDOCK:    5.35 KCAL/MOL
REMARK 922        TOTAL FREE ENERGY PREDICTED BY IDOCK:    6.57 KCAL/MOL
REMARK 923 INTER-LIGAND FREE ENERGY PREDICTED BY IDOCK:   -4.46 KCAL/MOL
REMARK 924 INTRA-LIGAND FREE ENERGY PREDICTED BY IDOCK:   11.03 KCAL/MOL
REMARK 927      BINDING AFFINITY PREDICTED BY RF-SCORE:    0.00 PKD
ROOT
HETATM    1  C   UNL     1      -9.036  13.362  67.268  1.00  0.00    -0.221 C  
HETATM    2  N   UNL     1      -7.998  12.393  66.907  1.00  0.00    -0.368 N  
HETATM    3  H   UNL     1      -8.114  11.766  66.110  1.00  0.00     0.000 HD 
ENDROOT
BRANCH   2   4
HETATM    4  S   UNL     1      -6.604  12.352  67.859  1.00  0.00    -0.113 S  
HETATM    5  O   UNL     1      -5.470  12.371  66.961  1.00  0.00    -0.301 OA 
HETATM    6  O   UNL     1      -6.804  11.281  68.806  1.00  0.00    -0.069 OA 
BRANCH   4   7
HETATM    7  C   UNL     1      -6.714  13.912  68.714  1.00  0.00    -0.102 C  
BRANCH   7   8
HETATM    8  C   UNL     1      -5.816  14.959  68.072  1.00  0.00    -0.155 C  
BRANCH   8   9
HETATM    9  C   UNL     1      -6.534  16.248  67.723  1.00  0.00    -0.161 A  
HETATM   10  C   UNL     1      -7.935  16.230  67.558  1.00  0.00    -0.171 A  
HETATM   11  C   UNL     1      -8.631  17.402  67.180  1.00  0.00    -0.233 A  
HETATM   12  C   UNL     1      -7.886  18.570  67.017  1.00  0.00    -0.227 A  
HETATM   13  C   UNL     1      -6.500  18.625  67.161  1.00  0.00    -0.196 A  
HETATM   14  N   UNL     1      -8.758  19.574  66.694  1.00  0.00    -0.324 NA 
HETATM   15  C   UNL     1      -5.839  17.443  67.498  1.00  0.00    -0.151 A  
HETATM   16  H   UNL     1      -8.496  20.542  66.512  1.00  0.00     0.000 HD 
HETATM   17  C   UNL     1     -10.032  19.087  66.652  1.00  0.00    -0.374 A  
HETATM   18  C   UNL     1     -10.005  17.719  66.874  1.00  0.00    -0.332 A  
BRANCH  18  19
HETATM   19  C   UNL     1     -11.195  16.771  66.815  1.00  0.00     0.424 C  
HETATM   20  C   UNL     1     -11.386  16.101  65.438  1.00  0.00     0.134 C  
HETATM   21  C   UNL     1     -10.319  15.029  65.158  1.00  0.00    -0.392 C  
HETATM   22  N   UNL     1     -10.191  14.010  66.205  1.00  0.00    -0.288 NA 
HETATM   23  C   UNL     1     -10.055  14.617  67.536  1.00  0.00    -0.224 C  
HETATM   24  C   UNL     1     -11.259  13.020  66.142  1.00  0.00    -0.291 C  
HETATM   25  C   UNL     1     -11.138  15.648  67.865  1.00  0.00    -0.324 C  
ENDBRANCH  18  19
ENDBRANCH   8   9
ENDBRANCH   7   8
ENDBRANCH   4   7
ENDBRANCH   2   4
TORSDOF 5
ENDMDL
MODEL      240
REMARK 921   NORMALIZED FREE ENERGY PREDICTED BY IDOCK:    6.07 KCAL/MOL
REMARK 922        TOTAL FREE ENERGY PREDICTED BY IDOCK:    7.51 KCAL/MOL
REMARK 923 INTER-LIGAND FREE ENERGY PREDICTED BY IDOCK:    0.03 KCAL/MOL
REMARK 924 INTRA-LIGAND FREE ENERGY PREDICTED BY IDOCK:    7.48 KCAL/MOL
REMARK 927      BINDING AFFINITY PREDICTED BY RF-SCORE:    0.00 PKD
ROOT
HETATM    1  C   UNL     1      -8.998   8.542  71.887  1.00  0.00    -0.231 C  
HETATM    2  N   UNL     1     -10.251   7.783  71.921  1.00  0.00    -0.195 N  
HETATM    3  H   UNL     1     -10.607   7.389  72.793  1.00  0.00     0.000 HD 
ENDROOT
BRANCH   2   4
HETATM    4  S   UNL     1     -11.083   7.587  70.466  1.00  0.00    -0.256 S  
HETATM    5  O   UNL     1     -12.486   7.801  70.740  1.00  0.00    -0.127 OA 
HETATM    6  O   UNL     1     -10.601   6.348  69.900  1.00  0.00    -0.204 OA 
BRANCH   4   7
HETATM    7  C   UNL     1     -10.447   8.949  69.508  1.00  0.00    -0.226 C  
BRANCH   7   8
HETATM    8  C   UNL     1     -10.877   8.849  68.052  1.00  0.00    -0.079 C  
BRANCH   8   9
HETATM    9  C   UNL     1     -10.193   7.733  67.287  1.00  0.00    -0.343 A  
HETATM   10  C   UNL     1      -9.260   6.914  67.958  1.00  0.00    -0.121 A  
HETATM   11  C   UNL     1      -8.564   5.898  67.263  1.00  0.00    -0.106 A  
HETATM   12  C   UNL     1      -8.862   5.720  65.912  1.00  0.00    -0.150 A  
HETATM   13  C   UNL     1      -9.768   6.516  65.213  1.00  0.00     1.138 A  
HETATM   14  N   UNL     1      -8.109   4.671  65.459  1.00  0.00    -0.105 NA 
HETATM   15  C   UNL     1     -10.412   7.533  65.919  1.00  0.00     1.562 A  
HETATM   16  H   UNL     1      -8.115   4.315  64.503  1.00  0.00     0.000 HD 
HETATM   17  C   UNL     1      -7.346   4.172  66.475  1.00  0.00    -0.080 A  
HETATM   18  C   UNL     1      -7.534   4.948  67.608  1.00  0.00    -0.079 A  
BRANCH  18  19
HETATM   19  C   UNL     1      -6.802   4.799  68.935  1.00  0.00    -0.051 C  
HETATM   20  C   UNL     1      -5.648   5.807  69.122  1.00  0.00    -0.008 C  
HETATM   21  C   UNL     1      -6.157   7.234  69.384  1.00  0.00    -0.030 C  
HETATM   22  N   UNL     1      -7.113   7.346  70.491  1.00  0.00    -0.056 NA 
HETATM   23  C   UNL     1      -8.200   6.365  70.367  1.00  0.00    -0.121 C  
HETATM   24  C   UNL     1      -6.456   7.299  71.792  1.00  0.00    -0.043 C  
HETATM   25  C   UNL     1      -7.721   4.926  70.161  1.00  0.00    -0.062 C  
ENDBRANCH  18  19
ENDBRANCH   8   9
ENDBRANCH   7   8
ENDBRANCH   4   7
ENDBRANCH   2   4
TORSDOF 5
ENDMDL
MODEL      241
REMARK 921   NORMALIZED FREE ENERGY PREDICTED BY IDOCK:    6.82 KCAL/MOL
REMARK 922        TOTAL FREE ENERGY PREDICTED BY IDOCK:    8.47 KCAL/MOL
REMARK 923 INTER-LIGAND FREE ENERGY PREDICTED BY IDOCK:    8.01 KCAL/MOL
REMARK 924 INTRA-LIGAND FREE ENERGY PREDICTED BY IDOCK:    0.46 KCAL/MOL
REMARK 927      BINDING AFFINITY PREDICTED BY RF-SCORE:    0.00 PKD
ROOT
HETATM    1  C   UNL     1     -12.712   5.368  69.197  1.00  0.00    10.144 C  
HETATM    2  N   UNL     1     -12.201   6.484  69.997  1.00  0.00    -0.389 N  
HETATM    3  H   UNL     1     -11.430   7.064  69.664  1.00  0.00     0.000 HD 
ENDROOT
BRANCH   2   4
HETATM    4  S   UNL     1     -12.935   6.773  71.490  1.00  0.00    -0.103 S  
HETATM    5  O   UNL     1     -13.122   5.491  72.133  1.00  0.00     0.775 OA 
HETATM    6  O   UNL     1     -14.045   7.656  71.219  1.00  0.00    -0.361 OA 
BRANCH   4   7
HETATM    7  C   UNL     1     -11.661   7.686  72.339  1.00  0.00    -0.317 C  
BRANCH   7   8
HETATM    8  C   UNL     1     -10.462   6.801  72.652  1.00  0.00    -0.240 C  
BRANCH   8   9
HETATM    9  C   UNL     1      -9.196   7.576  72.959  1.00  0.00    -0.233 A  
HETATM   10  C   UNL     1      -8.326   7.916  71.903  1.00  0.00    -0.151 A  
HETATM   11  C   UNL     1      -7.109   8.591  72.160  1.00  0.00    -0.102 A  
HETATM   12  C   UNL     1      -6.830   8.934  73.482  1.00  0.00     0.232 A  
HETATM   13  C   UNL     1      -7.659   8.606  74.554  1.00  0.00    -0.150 A  
HETATM   14  N   UNL     1      -5.637   9.606  73.490  1.00  0.00    -0.319 NA 
HETATM   15  C   UNL     1      -8.834   7.908  74.271  1.00  0.00    -0.110 A  
HETATM   16  H   UNL     1      -5.179   9.976  74.323  1.00  0.00     0.000 HD 
HETATM   17  C   UNL     1      -5.151   9.707  72.219  1.00  0.00    -0.076 A  
HETATM   18  C   UNL     1      -5.994   9.025  71.355  1.00  0.00    -0.062 A  
BRANCH  18  19
HETATM   19  C   UNL     1      -5.771   8.805  69.864  1.00  0.00    -0.028 C  
HETATM   20  C   UNL     1      -6.876   7.966  69.190  1.00  0.00    -0.052 C  
HETATM   21  C   UNL     1      -8.191   8.747  69.037  1.00  0.00    -0.117 C  
HETATM   22  N   UNL     1      -8.055  10.042  68.361  1.00  0.00    -0.100 NA 
HETATM   23  C   UNL     1      -6.976  10.847  68.951  1.00  0.00    -0.084 C  
HETATM   24  C   UNL     1      -7.927   9.897  66.916  1.00  0.00    -0.109 C  
HETATM   25  C   UNL     1      -5.639  10.112  69.063  1.00  0.00    -0.034 C  
ENDBRANCH  18  19
ENDBRANCH   8   9
ENDBRANCH   7   8
ENDBRANCH   4   7
ENDBRANCH   2   4
TORSDOF 5
ENDMDL
MODEL      242
REMARK 921   NORMALIZED FREE ENERGY PREDICTED BY IDOCK:   11.73 KCAL/MOL
REMARK 922        TOTAL FREE ENERGY PREDICTED BY IDOCK:   14.82 KCAL/MOL
REMARK 923 INTER-LIGAND FREE ENERGY PREDICTED BY IDOCK:   14.64 KCAL/MOL
REMARK 924 INTRA-LIGAND FREE ENERGY PREDICTED BY IDOCK:    0.18 KCAL/MOL
REMARK 927      BINDING AFFINITY PREDICTED BY RF-SCORE:    0.00 PKD
ROOT
HETATM    1  C   UNL     1     -13.926  11.601  66.198  1.00  0.00    12.410 C  
HETATM    2  N   UNL     1     -13.489  12.516  65.141  1.00  0.00     0.671 N  
HETATM    3  H   UNL     1     -14.040  13.338  64.891  1.00  0.00     0.000 HD 
ENDROOT
BRANCH   2   4
HETATM    4  S   UNL     1     -12.039  12.160  64.352  1.00  0.00    -0.329 S  
HETATM    5  O   UNL     1     -11.200  13.334  64.445  1.00  0.00    -0.350 OA 
HETATM    6  O   UNL     1     -12.412  11.593  63.078  1.00  0.00    -0.341 OA 
BRANCH   4   7
HETATM    7  C   UNL     1     -11.379  10.871  65.391  1.00  0.00     0.434 C  
BRANCH   7   8
HETATM    8  C   UNL     1     -10.874  11.430  66.713  1.00  0.00    -0.336 C  
BRANCH   8   9
HETATM    9  C   UNL     1      -9.396  11.770  66.708  1.00  0.00    -0.199 A  
HETATM   10  C   UNL     1      -8.955  12.922  67.392  1.00  0.00    -0.199 A  
HETATM   11  C   UNL     1      -7.591  13.298  67.363  1.00  0.00    -0.137 A  
HETATM   12  C   UNL     1      -6.709  12.471  66.669  1.00  0.00     0.735 A  
HETATM   13  C   UNL     1      -7.109  11.332  65.973  1.00  0.00     0.143 A  
HETATM   14  N   UNL     1      -5.454  13.001  66.806  1.00  0.00    -0.013 NA 
HETATM   15  C   UNL     1      -8.466  11.008  65.990  1.00  0.00    -0.158 A  
HETATM   16  H   UNL     1      -4.605  12.609  66.399  1.00  0.00     0.000 HD 
HETATM   17  C   UNL     1      -5.507  14.132  67.567  1.00  0.00     0.206 A  
HETATM   18  C   UNL     1      -6.828  14.408  67.881  1.00  0.00    -0.178 A  
BRANCH  18  19
HETATM   19  C   UNL     1      -7.342  15.630  68.631  1.00  0.00    -0.127 C  
HETATM   20  C   UNL     1      -7.821  15.321  70.065  1.00  0.00     0.221 C  
HETATM   21  C   UNL     1      -6.652  15.031  71.021  1.00  0.00     0.561 C  
HETATM   22  N   UNL     1      -5.614  16.068  71.046  1.00  0.00     0.052 NA 
HETATM   23  C   UNL     1      -5.170  16.419  69.690  1.00  0.00    -0.133 C  
HETATM   24  C   UNL     1      -6.017  17.230  71.827  1.00  0.00     1.871 C  
HETATM   25  C   UNL     1      -6.311  16.768  68.731  1.00  0.00    -0.158 C  
ENDBRANCH  18  19
ENDBRANCH   8   9
ENDBRANCH   7   8
ENDBRANCH   4   7
ENDBRANCH   2   4
TORSDOF 5
ENDMDL
MODEL      243
REMARK 921   NORMALIZED FREE ENERGY PREDICTED BY IDOCK:   61.72 KCAL/MOL
REMARK 922        TOTAL FREE ENERGY PREDICTED BY IDOCK:   79.41 KCAL/MOL
REMARK 923 INTER-LIGAND FREE ENERGY PREDICTED BY IDOCK:   79.59 KCAL/MOL
REMARK 924 INTRA-LIGAND FREE ENERGY PREDICTED BY IDOCK:   -0.17 KCAL/MOL
REMARK 927      BINDING AFFINITY PREDICTED BY RF-SCORE:    0.00 PKD
ROOT
HETATM    1  C   UNL     1      -5.487   8.189  68.630  1.00  0.00    -0.032 C  
HETATM    2  N   UNL     1      -5.602   8.900  67.354  1.00  0.00    -0.038 N  
HETATM    3  H   UNL     1      -5.058   9.742  67.167  1.00  0.00     0.000 HD 
ENDROOT
BRANCH   2   4
HETATM    4  S   UNL     1      -6.668   8.271  66.205  1.00  0.00    -0.058 S  
HETATM    5  O   UNL     1      -7.309   7.119  66.799  1.00  0.00    -0.080 OA 
HETATM    6  O   UNL     1      -5.912   8.171  64.979  1.00  0.00    -0.044 OA 
BRANCH   4   7
HETATM    7  C   UNL     1      -7.847   9.599  66.053  1.00  0.00    -0.102 C  
BRANCH   7   8
HETATM    8  C   UNL     1      -7.970  10.067  64.610  1.00  0.00    -0.145 C  
BRANCH   8   9
HETATM    9  C   UNL     1      -7.606  11.524  64.408  1.00  0.00     1.845 A  
HETATM   10  C   UNL     1      -8.203  12.502  65.232  1.00  0.00     2.389 A  
HETATM   11  C   UNL     1      -7.927  13.875  65.036  1.00  0.00     7.680 A  
HETATM   12  C   UNL     1      -7.024  14.214  64.029  1.00  0.00    22.881 A  
HETATM   13  C   UNL     1      -6.423  13.279  63.188  1.00  0.00    14.363 A  
HETATM   14  N   UNL     1      -6.881  15.575  64.045  1.00  0.00    16.615 NA 
HETATM   15  C   UNL     1      -6.744  11.935  63.383  1.00  0.00     3.714 A  
HETATM   16  H   UNL     1      -6.283  16.108  63.414  1.00  0.00     0.000 HD 
HETATM   17  C   UNL     1      -7.657  16.113  65.029  1.00  0.00     6.294 A  
HETATM   18  C   UNL     1      -8.391  15.104  65.633  1.00  0.00     2.070 A  
BRANCH  18  19
HETATM   19  C   UNL     1      -9.452  15.281  66.711  1.00  0.00    -0.264 C  
HETATM   20  C   UNL     1     -10.323  16.541  66.523  1.00  0.00    -0.307 C  
HETATM   21  C   UNL     1     -11.311  16.398  65.355  1.00  0.00     0.241 C  
HETATM   22  N   UNL     1     -12.157  15.201  65.416  1.00  0.00     0.040 NA 
HETATM   23  C   UNL     1     -11.361  13.987  65.642  1.00  0.00    -0.313 C  
HETATM   24  C   UNL     1     -13.248  15.347  66.372  1.00  0.00     3.105 C  
HETATM   25  C   UNL     1     -10.407  14.081  66.836  1.00  0.00    -0.269 C  
ENDBRANCH  18  19
ENDBRANCH   8   9
ENDBRANCH   7   8
ENDBRANCH   4   7
ENDBRANCH   2   4
TORSDOF 5
ENDMDL
