MODEL        1
REMARK 921   NORMALIZED FREE ENERGY PREDICTED BY IDOCK:   -9.38 KCAL/MOL
REMARK 922        TOTAL FREE ENERGY PREDICTED BY IDOCK:  -11.05 KCAL/MOL
REMARK 923 INTER-LIGAND FREE ENERGY PREDICTED BY IDOCK:  -10.48 KCAL/MOL
REMARK 924 INTRA-LIGAND FREE ENERGY PREDICTED BY IDOCK:   -0.57 KCAL/MOL
REMARK 927      BINDING AFFINITY PREDICTED BY RF-SCORE:    0.00 PKD
ROOT
HETATM    1  C   UNL     1     -11.646  11.743  70.401  1.00  0.00    -0.015 C  
HETATM    2  C   UNL     1     -12.532  12.870  69.348  1.00  0.00     0.196 C  
HETATM    3  C   UNL     1     -11.787  14.266  68.556  1.00  0.00    -0.347 C  
HETATM    4  O   UNL     1     -12.396  15.428  69.222  1.00  0.00    -0.577 OA 
HETATM    5  C   UNL     1     -11.866  14.813  66.897  1.00  0.00    -0.279 C  
HETATM    6  H   UNL     1     -11.996  16.178  68.798  1.00  0.00     0.000 HD 
HETATM    7  C   UNL     1     -10.632  15.080  65.784  1.00  0.00    -0.339 C  
HETATM    8  O   UNL     1     -11.157  14.878  64.455  1.00  0.00    -0.620 OA 
HETATM    9  C   UNL     1      -9.937  16.454  65.467  1.00  0.00    -0.175 C  
HETATM   10  H   UNL     1     -10.460  15.028  63.827  1.00  0.00     0.000 HD 
HETATM   11  C   UNL     1      -8.952  16.965  66.497  1.00  0.00    -0.272 C  
HETATM   12  O   UNL     1      -8.068  17.950  65.920  1.00  0.00    -0.524 OA 
HETATM   13  C   UNL     1      -8.073  15.841  67.077  1.00  0.00    -0.272 C  
HETATM   14  H   UNL     1      -7.450  18.271  66.567  1.00  0.00     0.000 HD 
HETATM   15  C   UNL     1      -8.848  14.509  67.163  1.00  0.00    -0.229 C  
HETATM   16  C   UNL     1      -7.770  16.316  68.474  1.00  0.00    -0.189 C  
HETATM   17  O   UNL     1      -9.549  14.179  65.999  1.00  0.00    -0.286 OA 
HETATM   18  C   UNL     1      -8.074  13.302  67.698  1.00  0.00    -0.174 C  
HETATM   19  O   UNL     1      -8.630  16.459  69.362  1.00  0.00    -0.174 OA 
HETATM   20  O   UNL     1      -6.494  16.503  68.729  1.00  0.00    -0.139 OA 
HETATM   21  C   UNL     1      -8.998  12.100  68.059  1.00  0.00    -0.189 C  
HETATM   22  O   UNL     1     -11.780  10.437  69.933  1.00  0.00    -0.258 OA 
HETATM   23  C   UNL     1      -8.335  11.049  68.908  1.00  0.00    -0.123 C  
HETATM   24  C   UNL     1      -8.851   9.840  69.167  1.00  0.00    -0.160 C  
HETATM   25  C   UNL     1     -12.017  10.028  71.223  1.00  0.00    -0.394 C  
HETATM   26  C   UNL     1      -8.088   8.848  69.850  1.00  0.00    -0.112 C  
HETATM   27  C   UNL     1     -10.917   8.916  71.967  1.00  0.00    -0.412 C  
HETATM   28  C   UNL     1      -8.470   7.570  69.990  1.00  0.00    -0.137 C  
HETATM   29  C   UNL     1     -10.673   7.569  72.408  1.00  0.00    -0.311 C  
HETATM   30  C   UNL     1      -7.605   6.656  70.679  1.00  0.00    -0.095 C  
HETATM   31  O   UNL     1     -12.197   5.451  72.718  1.00  0.00    -0.125 OA 
HETATM   32  C   UNL     1     -11.043   5.896  72.698  1.00  0.00    -0.280 C  
HETATM   33  O   UNL     1      -9.893   5.037  73.019  1.00  0.00    -0.148 OA 
HETATM   34  C   UNL     1      -7.858   5.355  70.821  1.00  0.00    -0.095 C  
HETATM   35  C   UNL     1     -10.247   2.224  72.970  1.00  0.00    -0.212 C  
HETATM   36  C   UNL     1      -9.619   3.522  73.594  1.00  0.00    -0.106 C  
HETATM   37  C   UNL     1      -7.134   4.588  71.805  1.00  0.00    -0.055 C  
HETATM   38  C   UNL     1      -8.058   3.208  73.547  1.00  0.00    -0.073 C  
HETATM   39  C   UNL     1      -7.621   3.387  72.107  1.00  0.00    -0.057 C  
ENDROOT
BRANCH  21  40
HETATM   40  O   UNL     1      -9.729  11.566  66.973  1.00  0.00    -0.182 OA 
BRANCH  40  41
HETATM   41  C   UNL     1      -9.118  10.630  66.079  1.00  0.00    -0.180 C  
HETATM   42  C   UNL     1      -9.840  10.861  64.733  1.00  0.00    -0.288 C  
HETATM   43  O   UNL     1      -9.652  12.224  64.325  1.00  0.00    -0.499 OA 
HETATM   44  H   UNL     1     -10.096  12.366  63.497  1.00  0.00     0.000 HD 
HETATM   45  N   UNL     1      -9.995  10.047  62.386  1.00  0.00    -0.654 NA 
HETATM   46  H   UNL     1      -7.580   9.463  61.707  1.00  0.00     0.000 HD 
HETATM   47  O   UNL     1      -7.173   9.355  62.559  1.00  0.00    -0.101 OA 
HETATM   48  C   UNL     1      -9.268   9.918  63.673  1.00  0.00    -0.240 C  
HETATM   49  C   UNL     1      -5.633  10.462  64.905  1.00  0.00    -0.143 C  
HETATM   50  C   UNL     1      -7.758  10.201  63.554  1.00  0.00    -0.144 C  
HETATM   51  C   UNL     1      -7.093  10.026  64.944  1.00  0.00    -0.136 C  
HETATM   52  O   UNL     1      -7.710  10.811  65.974  1.00  0.00    -0.153 OA 
HETATM   53  H2  UNL     1      -9.571   9.457  61.671  1.00  0.00     0.000 HD 
HETATM   54  H1  UNL     1     -10.994   9.860  62.465  1.00  0.00     0.000 HD 
ENDBRANCH  40  41
ENDBRANCH  21  40
TORSDOF 2
ENDMDL
MODEL        2
REMARK 921   NORMALIZED FREE ENERGY PREDICTED BY IDOCK:   -8.49 KCAL/MOL
REMARK 922        TOTAL FREE ENERGY PREDICTED BY IDOCK:  -10.06 KCAL/MOL
REMARK 923 INTER-LIGAND FREE ENERGY PREDICTED BY IDOCK:  -10.18 KCAL/MOL
REMARK 924 INTRA-LIGAND FREE ENERGY PREDICTED BY IDOCK:    0.12 KCAL/MOL
REMARK 927      BINDING AFFINITY PREDICTED BY RF-SCORE:    0.00 PKD
ROOT
HETATM    1  C   UNL     1     -10.392  13.734  69.313  1.00  0.00     0.128 C  
HETATM    2  C   UNL     1     -11.335  15.207  68.995  1.00  0.00    -0.307 C  
HETATM    3  C   UNL     1     -10.611  16.801  68.734  1.00  0.00    -0.348 C  
HETATM    4  O   UNL     1     -11.010  17.579  69.918  1.00  0.00    -0.129 OA 
HETATM    5  C   UNL     1     -10.903  17.998  67.493  1.00  0.00    -0.252 C  
HETATM    6  H   UNL     1     -10.621  18.434  69.779  1.00  0.00     0.000 HD 
HETATM    7  C   UNL     1      -9.840  18.698  66.392  1.00  0.00    -0.367 C  
HETATM    8  O   UNL     1     -10.582  19.080  65.214  1.00  0.00    -0.421 OA 
HETATM    9  C   UNL     1      -9.092  20.071  66.555  1.00  0.00    -0.452 C  
HETATM   10  H   UNL     1      -9.982  19.475  64.592  1.00  0.00     0.000 HD 
HETATM   11  C   UNL     1      -7.919  20.091  67.512  1.00  0.00    -0.307 C  
HETATM   12  O   UNL     1      -7.058  21.220  67.249  1.00  0.00    -0.623 OA 
HETATM   13  C   UNL     1      -7.057  18.819  67.409  1.00  0.00    -0.213 C  
HETATM   14  H   UNL     1      -6.322  21.232  67.850  1.00  0.00     0.000 HD 
HETATM   15  C   UNL     1      -7.916  17.582  67.072  1.00  0.00    -0.216 C  
HETATM   16  C   UNL     1      -6.501  18.658  68.801  1.00  0.00    -0.245 C  
HETATM   17  O   UNL     1      -8.815  17.780  66.019  1.00  0.00    -0.494 OA 
HETATM   18  C   UNL     1      -7.170  16.256  66.913  1.00  0.00    -0.257 C  
HETATM   19  O   UNL     1      -7.197  18.420  69.804  1.00  0.00     0.149 OA 
HETATM   20  O   UNL     1      -5.190  18.708  68.880  1.00  0.00    -0.185 OA 
HETATM   21  C   UNL     1      -8.122  15.022  66.901  1.00  0.00    -0.126 C  
HETATM   22  O   UNL     1     -10.705  12.748  68.378  1.00  0.00    -0.235 OA 
HETATM   23  C   UNL     1      -7.423  13.705  67.106  1.00  0.00     0.085 C  
HETATM   24  C   UNL     1      -7.991  12.504  66.928  1.00  0.00    -0.013 C  
HETATM   25  C   UNL     1     -10.770  11.836  69.402  1.00  0.00     0.003 C  
HETATM   26  C   UNL     1      -7.215  11.309  66.993  1.00  0.00    -0.129 C  
HETATM   27  C   UNL     1      -9.663  10.503  69.412  1.00  0.00    -0.188 C  
HETATM   28  C   UNL     1      -7.675  10.095  66.656  1.00  0.00    -0.106 C  
HETATM   29  C   UNL     1      -9.464   9.094  69.205  1.00  0.00    -0.158 C  
HETATM   30  C   UNL     1      -6.791   8.969  66.741  1.00  0.00    -0.080 C  
HETATM   31  O   UNL     1     -11.091   7.057  68.874  1.00  0.00    -0.153 OA 
HETATM   32  C   UNL     1      -9.921   7.458  68.837  1.00  0.00    -0.169 C  
HETATM   33  O   UNL     1      -8.810   6.533  68.564  1.00  0.00    -0.122 OA 
HETATM   34  C   UNL     1      -7.125   7.732  66.374  1.00  0.00    -0.071 C  
HETATM   35  C   UNL     1      -9.398   4.008  67.419  1.00  0.00    -0.215 C  
HETATM   36  C   UNL     1      -8.575   4.915  68.402  1.00  0.00    -0.097 C  
HETATM   37  C   UNL     1      -6.321   6.615  66.807  1.00  0.00    -0.042 C  
HETATM   38  C   UNL     1      -7.072   4.637  67.955  1.00  0.00    -0.061 C  
HETATM   39  C   UNL     1      -6.853   5.402  66.665  1.00  0.00    -0.063 C  
ENDROOT
BRANCH  21  40
HETATM   40  O   UNL     1      -9.056  15.003  65.839  1.00  0.00    -0.227 OA 
BRANCH  40  41
HETATM   41  C   UNL     1     -10.078  14.003  65.791  1.00  0.00    -0.327 C  
HETATM   42  C   UNL     1     -11.394  14.807  65.697  1.00  0.00    -0.343 C  
HETATM   43  O   UNL     1     -11.362  15.626  64.519  1.00  0.00    -0.634 OA 
HETATM   44  H   UNL     1     -12.171  16.121  64.461  1.00  0.00     0.000 HD 
HETATM   45  N   UNL     1     -13.871  14.580  65.624  1.00  0.00     0.291 NA 
HETATM   46  H   UNL     1     -14.321  12.478  64.206  1.00  0.00     0.000 HD 
HETATM   47  O   UNL     1     -13.485  12.031  64.273  1.00  0.00    -0.654 OA 
HETATM   48  C   UNL     1     -12.582  13.846  65.629  1.00  0.00    -0.517 C  
HETATM   49  C   UNL     1     -10.718  11.442  63.225  1.00  0.00    -0.332 C  
HETATM   50  C   UNL     1     -12.388  12.943  64.395  1.00  0.00    -0.398 C  
HETATM   51  C   UNL     1     -11.024  12.214  64.504  1.00  0.00    -0.314 C  
HETATM   52  O   UNL     1      -9.916  13.103  64.700  1.00  0.00    -0.245 OA 
HETATM   53  H2  UNL     1     -14.654  13.935  65.522  1.00  0.00     0.000 HD 
HETATM   54  H1  UNL     1     -13.999  15.178  66.440  1.00  0.00     0.000 HD 
ENDBRANCH  40  41
ENDBRANCH  21  40
TORSDOF 2
ENDMDL
MODEL        3
REMARK 921   NORMALIZED FREE ENERGY PREDICTED BY IDOCK:   -7.84 KCAL/MOL
REMARK 922        TOTAL FREE ENERGY PREDICTED BY IDOCK:   -9.33 KCAL/MOL
REMARK 923 INTER-LIGAND FREE ENERGY PREDICTED BY IDOCK:   -9.56 KCAL/MOL
REMARK 924 INTRA-LIGAND FREE ENERGY PREDICTED BY IDOCK:    0.22 KCAL/MOL
REMARK 927      BINDING AFFINITY PREDICTED BY RF-SCORE:    0.00 PKD
ROOT
HETATM    1  C   UNL     1      -6.699  10.981  68.735  1.00  0.00    -0.065 C  
HETATM    2  C   UNL     1      -6.502   9.257  68.345  1.00  0.00    -0.054 C  
HETATM    3  C   UNL     1      -7.375   7.958  69.169  1.00  0.00    -0.083 C  
HETATM    4  O   UNL     1      -6.334   7.241  69.923  1.00  0.00    -0.033 OA 
HETATM    5  C   UNL     1      -8.256   6.589  68.527  1.00  0.00    -0.121 C  
HETATM    6  H   UNL     1      -6.803   6.543  70.365  1.00  0.00     0.000 HD 
HETATM    7  C   UNL     1      -9.862   6.136  68.745  1.00  0.00    -0.136 C  
HETATM    8  O   UNL     1     -10.296   5.399  67.583  1.00  0.00    -0.193 OA 
HETATM    9  C   UNL     1     -10.409   5.102  69.796  1.00  0.00    -0.332 C  
HETATM   10  H   UNL     1     -11.203   5.144  67.706  1.00  0.00     0.000 HD 
HETATM   11  C   UNL     1     -10.474   5.571  71.234  1.00  0.00    -0.239 C  
HETATM   12  O   UNL     1     -11.381   4.751  72.003  1.00  0.00     0.188 OA 
HETATM   13  C   UNL     1     -10.956   7.028  71.354  1.00  0.00    -0.266 C  
HETATM   14  H   UNL     1     -11.421   5.045  72.905  1.00  0.00     0.000 HD 
HETATM   15  C   UNL     1     -10.483   7.878  70.156  1.00  0.00    -0.231 C  
HETATM   16  C   UNL     1     -10.270   7.524  72.601  1.00  0.00    -0.245 C  
HETATM   17  O   UNL     1     -10.696   7.280  68.910  1.00  0.00    -0.205 OA 
HETATM   18  C   UNL     1     -10.923   9.344  70.143  1.00  0.00    -0.282 C  
HETATM   19  O   UNL     1      -9.037   7.648  72.713  1.00  0.00    -0.139 OA 
HETATM   20  O   UNL     1     -11.081   7.903  73.563  1.00  0.00    -0.214 OA 
HETATM   21  C   UNL     1     -10.147  10.201  69.097  1.00  0.00    -0.213 C  
HETATM   22  O   UNL     1      -7.061  11.696  67.594  1.00  0.00    -0.083 OA 
HETATM   23  C   UNL     1     -10.287  11.686  69.294  1.00  0.00     0.034 C  
HETATM   24  C   UNL     1      -9.892  12.614  68.411  1.00  0.00    -0.200 C  
HETATM   25  C   UNL     1      -6.142  12.657  67.938  1.00  0.00    -0.108 C  
HETATM   26  C   UNL     1     -10.202  13.992  68.608  1.00  0.00    -0.233 C  
HETATM   27  C   UNL     1      -6.693  14.263  68.281  1.00  0.00    -0.108 C  
HETATM   28  C   UNL     1      -9.995  14.947  67.690  1.00  0.00    -0.226 C  
HETATM   29  C   UNL     1      -6.798  15.627  67.836  1.00  0.00    -0.159 C  
HETATM   30  C   UNL     1     -10.370  16.298  67.994  1.00  0.00    -0.279 C  
HETATM   31  O   UNL     1      -5.712  16.986  65.867  1.00  0.00    -0.152 OA 
HETATM   32  C   UNL     1      -6.561  16.976  66.767  1.00  0.00    -0.227 C  
HETATM   33  O   UNL     1      -7.377  18.166  67.053  1.00  0.00    -0.198 OA 
HETATM   34  C   UNL     1     -10.264  17.311  67.134  1.00  0.00    -0.319 C  
HETATM   35  C   UNL     1      -7.517  20.217  65.101  1.00  0.00     0.133 C  
HETATM   36  C   UNL     1      -7.445  19.743  66.597  1.00  0.00    -0.256 C  
HETATM   37  C   UNL     1     -10.330  18.669  67.617  1.00  0.00    -0.455 C  
HETATM   38  C   UNL     1      -8.732  20.429  67.239  1.00  0.00    -0.429 C  
HETATM   39  C   UNL     1      -9.930  19.623  66.779  1.00  0.00    -0.521 C  
ENDROOT
BRANCH  21  40
HETATM   40  O   UNL     1     -10.317   9.795  67.753  1.00  0.00    -0.195 OA 
BRANCH  40  41
HETATM   41  C   UNL     1      -9.901  10.646  66.681  1.00  0.00    -0.201 C  
HETATM   42  C   UNL     1      -9.004   9.743  65.804  1.00  0.00    -0.160 C  
HETATM   43  O   UNL     1      -9.768   8.615  65.353  1.00  0.00    -0.405 OA 
HETATM   44  H   UNL     1      -9.216   8.060  64.814  1.00  0.00     0.000 HD 
HETATM   45  N   UNL     1      -7.557   9.732  63.779  1.00  0.00    -0.126 NA 
HETATM   46  H   UNL     1      -8.743  11.269  62.085  1.00  0.00     0.000 HD 
HETATM   47  O   UNL     1      -9.297  11.782  62.663  1.00  0.00    -0.306 OA 
HETATM   48  C   UNL     1      -8.493  10.538  64.601  1.00  0.00    -0.139 C  
HETATM   49  C   UNL     1     -11.926  12.258  64.063  1.00  0.00    -0.551 C  
HETATM   50  C   UNL     1      -9.718  11.044  63.814  1.00  0.00    -0.309 C  
HETATM   51  C   UNL     1     -10.621  11.882  64.756  1.00  0.00    -0.299 C  
HETATM   52  O   UNL     1     -10.998  11.187  65.953  1.00  0.00    -0.213 OA 
HETATM   53  H2  UNL     1      -7.267  10.250  62.950  1.00  0.00     0.000 HD 
HETATM   54  H1  UNL     1      -6.747   9.398  64.299  1.00  0.00     0.000 HD 
ENDBRANCH  40  41
ENDBRANCH  21  40
TORSDOF 2
ENDMDL
MODEL        4
REMARK 921   NORMALIZED FREE ENERGY PREDICTED BY IDOCK:   -7.45 KCAL/MOL
REMARK 922        TOTAL FREE ENERGY PREDICTED BY IDOCK:   -8.89 KCAL/MOL
REMARK 923 INTER-LIGAND FREE ENERGY PREDICTED BY IDOCK:   -8.37 KCAL/MOL
REMARK 924 INTRA-LIGAND FREE ENERGY PREDICTED BY IDOCK:   -0.52 KCAL/MOL
REMARK 927      BINDING AFFINITY PREDICTED BY RF-SCORE:    0.00 PKD
ROOT
HETATM    1  C   UNL     1      -6.442  11.376  67.526  1.00  0.00    -0.074 C  
HETATM    2  C   UNL     1      -6.298  12.741  68.656  1.00  0.00    -0.075 C  
HETATM    3  C   UNL     1      -7.223  14.242  68.507  1.00  0.00    -0.118 C  
HETATM    4  O   UNL     1      -6.214  15.258  68.166  1.00  0.00    -0.108 OA 
HETATM    5  C   UNL     1      -8.143  15.139  69.694  1.00  0.00    -0.096 C  
HETATM    6  H   UNL     1      -6.711  16.064  68.086  1.00  0.00     0.000 HD 
HETATM    7  C   UNL     1      -9.765  15.586  69.695  1.00  0.00    -0.274 C  
HETATM    8  O   UNL     1     -10.212  15.700  71.063  1.00  0.00     0.085 OA 
HETATM    9  C   UNL     1     -10.357  16.965  69.226  1.00  0.00    -0.298 C  
HETATM   10  H   UNL     1     -11.128  15.952  71.064  1.00  0.00     0.000 HD 
HETATM   11  C   UNL     1     -10.421  17.198  67.731  1.00  0.00    -0.362 C  
HETATM   12  O   UNL     1     -11.362  18.246  67.412  1.00  0.00     0.114 OA 
HETATM   13  C   UNL     1     -10.855  15.938  66.960  1.00  0.00    -0.252 C  
HETATM   14  H   UNL     1     -11.403  18.392  66.474  1.00  0.00     0.000 HD 
HETATM   15  C   UNL     1     -10.342  14.654  67.644  1.00  0.00    -0.233 C  
HETATM   16  C   UNL     1     -10.166  16.086  65.627  1.00  0.00    -0.386 C  
HETATM   17  O   UNL     1     -10.562  14.614  69.024  1.00  0.00    -0.237 OA 
HETATM   18  C   UNL     1     -10.732  13.327  66.988  1.00  0.00    -0.263 C  
HETATM   19  O   UNL     1      -8.931  16.069  65.479  1.00  0.00    -0.270 OA 
HETATM   20  O   UNL     1     -10.974  16.157  64.593  1.00  0.00    -0.642 OA 
HETATM   21  C   UNL     1      -9.918  12.117  67.536  1.00  0.00    -0.197 C  
HETATM   22  O   UNL     1      -6.768  10.209  68.215  1.00  0.00    -0.054 OA 
HETATM   23  C   UNL     1     -10.010  10.879  66.685  1.00  0.00    -0.250 C  
HETATM   24  C   UNL     1      -9.575   9.666  67.053  1.00  0.00    -0.221 C  
HETATM   25  C   UNL     1      -5.821   9.541  67.478  1.00  0.00    -0.044 C  
HETATM   26  C   UNL     1      -9.841   8.517  66.251  1.00  0.00    -0.285 C  
HETATM   27  C   UNL     1      -6.322   8.247  66.441  1.00  0.00    -0.050 C  
HETATM   28  C   UNL     1      -9.592   7.257  66.637  1.00  0.00    -0.236 C  
HETATM   29  C   UNL     1      -6.376   6.828  66.217  1.00  0.00    -0.046 C  
HETATM   30  C   UNL     1      -9.925   6.179  65.751  1.00  0.00     0.401 C  
HETATM   31  O   UNL     1      -5.226   4.762  67.362  1.00  0.00    -0.010 OA 
HETATM   32  C   UNL     1      -6.084   5.150  66.559  1.00  0.00    -0.030 C  
HETATM   33  O   UNL     1      -6.863   4.192  65.759  1.00  0.00    -0.054 OA 
HETATM   34  C   UNL     1      -9.777   4.891  66.057  1.00  0.00    -0.200 C  
HETATM   35  C   UNL     1      -6.914   1.475  66.567  1.00  0.00    -0.042 C  
HETATM   36  C   UNL     1      -6.873   2.578  65.449  1.00  0.00    -0.044 C  
HETATM   37  C   UNL     1      -9.802   3.898  65.011  1.00  0.00    -0.192 C  
HETATM   38  C   UNL     1      -8.142   2.215  64.558  1.00  0.00    -0.074 C  
HETATM   39  C   UNL     1      -9.362   2.682  65.327  1.00  0.00    -0.080 C  
ENDROOT
BRANCH  21  40
HETATM   40  O   UNL     1     -10.088  11.863  68.917  1.00  0.00    -0.158 OA 
BRANCH  40  41
HETATM   41  C   UNL     1     -11.337  11.374  69.415  1.00  0.00    -0.297 C  
HETATM   42  C   UNL     1     -11.011   9.958  69.940  1.00  0.00    -0.281 C  
HETATM   43  O   UNL     1     -10.005  10.054  70.960  1.00  0.00    -0.219 OA 
HETATM   44  H   UNL     1      -9.805   9.183  71.282  1.00  0.00     0.000 HD 
HETATM   45  N   UNL     1     -12.024   7.923  70.953  1.00  0.00    -0.431 NA 
HETATM   46  H   UNL     1     -13.821   8.794  72.580  1.00  0.00     0.000 HD 
HETATM   47  O   UNL     1     -13.969   9.667  72.236  1.00  0.00    -0.327 OA 
HETATM   48  C   UNL     1     -12.275   9.318  70.516  1.00  0.00     0.050 C  
HETATM   49  C   UNL     1     -13.385  12.627  72.206  1.00  0.00    -0.527 C  
HETATM   50  C   UNL     1     -12.792  10.229  71.647  1.00  0.00    -0.463 C  
HETATM   51  C   UNL     1     -13.036  11.654  71.085  1.00  0.00    -0.212 C  
HETATM   52  O   UNL     1     -11.890  12.211  70.425  1.00  0.00    -0.311 OA 
HETATM   53  H2  UNL     1     -12.856   7.525  71.387  1.00  0.00     0.000 HD 
HETATM   54  H1  UNL     1     -11.682   7.320  70.205  1.00  0.00     0.000 HD 
ENDBRANCH  40  41
ENDBRANCH  21  40
TORSDOF 2
ENDMDL
MODEL        5
REMARK 921   NORMALIZED FREE ENERGY PREDICTED BY IDOCK:   -7.39 KCAL/MOL
REMARK 922        TOTAL FREE ENERGY PREDICTED BY IDOCK:   -8.82 KCAL/MOL
REMARK 923 INTER-LIGAND FREE ENERGY PREDICTED BY IDOCK:   -8.46 KCAL/MOL
REMARK 924 INTRA-LIGAND FREE ENERGY PREDICTED BY IDOCK:   -0.36 KCAL/MOL
REMARK 927      BINDING AFFINITY PREDICTED BY RF-SCORE:    0.00 PKD
ROOT
HETATM    1  C   UNL     1      -6.127  11.929  70.514  1.00  0.00     0.050 C  
HETATM    2  C   UNL     1      -5.281  10.366  70.472  1.00  0.00    -0.059 C  
HETATM    3  C   UNL     1      -6.078   8.810  70.749  1.00  0.00    -0.037 C  
HETATM    4  O   UNL     1      -5.523   8.342  72.030  1.00  0.00    -0.036 OA 
HETATM    5  C   UNL     1      -6.009   7.315  69.845  1.00  0.00    -0.024 C  
HETATM    6  H   UNL     1      -5.951   7.507  72.180  1.00  0.00     0.000 HD 
HETATM    7  C   UNL     1      -7.244   6.424  69.130  1.00  0.00    -0.090 C  
HETATM    8  O   UNL     1      -6.701   5.701  68.005  1.00  0.00    -0.051 OA 
HETATM    9  C   UNL     1      -7.994   5.192  69.756  1.00  0.00    -0.078 C  
HETATM   10  H   UNL     1      -7.398   5.198  67.601  1.00  0.00     0.000 HD 
HETATM   11  C   UNL     1      -9.008   5.498  70.838  1.00  0.00    -0.139 C  
HETATM   12  O   UNL     1      -9.928   4.398  71.009  1.00  0.00    -0.193 OA 
HETATM   13  C   UNL     1      -9.843   6.752  70.521  1.00  0.00    -0.187 C  
HETATM   14  H   UNL     1     -10.564   4.590  71.688  1.00  0.00     0.000 HD 
HETATM   15  C   UNL     1      -9.014   7.800  69.749  1.00  0.00    -0.146 C  
HETATM   16  C   UNL     1     -10.177   7.306  71.883  1.00  0.00    -0.187 C  
HETATM   17  O   UNL     1      -8.290   7.277  68.673  1.00  0.00    -0.124 OA 
HETATM   18  C   UNL     1      -9.741   9.086  69.349  1.00  0.00    -0.169 C  
HETATM   19  O   UNL     1      -9.330   7.751  72.679  1.00  0.00    -0.155 OA 
HETATM   20  O   UNL     1     -11.461   7.364  72.155  1.00  0.00    -0.263 OA 
HETATM   21  C   UNL     1      -8.770  10.209  68.875  1.00  0.00    -0.149 C  
HETATM   22  O   UNL     1      -5.935  12.616  69.315  1.00  0.00    -0.079 OA 
HETATM   23  C   UNL     1      -9.395  11.577  68.817  1.00  0.00    -0.088 C  
HETATM   24  C   UNL     1      -8.830  12.651  68.248  1.00  0.00    -0.172 C  
HETATM   25  C   UNL     1      -5.691  13.757  70.040  1.00  0.00    -0.125 C  
HETATM   26  C   UNL     1      -9.556  13.869  68.100  1.00  0.00    -0.218 C  
HETATM   27  C   UNL     1      -6.749  15.115  69.849  1.00  0.00    -0.165 C  
HETATM   28  C   UNL     1      -9.122  14.921  67.390  1.00  0.00    -0.196 C  
HETATM   29  C   UNL     1      -6.940  16.432  69.303  1.00  0.00    -0.223 C  
HETATM   30  C   UNL     1      -9.953  16.087  67.294  1.00  0.00    -0.242 C  
HETATM   31  O   UNL     1      -5.331  18.202  68.217  1.00  0.00    -0.161 OA 
HETATM   32  C   UNL     1      -6.503  17.882  68.452  1.00  0.00    -0.198 C  
HETATM   33  O   UNL     1      -7.618  18.775  68.100  1.00  0.00    -0.257 OA 
HETATM   34  C   UNL     1      -9.647  17.161  66.567  1.00  0.00    -0.294 C  
HETATM   35  C   UNL     1      -7.146  20.872  66.252  1.00  0.00    -0.085 C  
HETATM   36  C   UNL     1      -7.833  20.307  67.547  1.00  0.00    -0.305 C  
HETATM   37  C   UNL     1     -10.346  18.402  66.795  1.00  0.00    -0.420 C  
HETATM   38  C   UNL     1      -9.379  20.557  67.257  1.00  0.00    -0.526 C  
HETATM   39  C   UNL     1      -9.811  19.499  66.262  1.00  0.00    -0.513 C  
ENDROOT
BRANCH  21  40
HETATM   40  O   UNL     1      -8.008   9.891  67.726  1.00  0.00    -0.104 OA 
BRANCH  40  41
HETATM   41  C   UNL     1      -8.658   9.515  66.508  1.00  0.00    -0.134 C  
HETATM   42  C   UNL     1      -8.601  10.790  65.637  1.00  0.00    -0.180 C  
HETATM   43  O   UNL     1      -7.230  11.167  65.442  1.00  0.00    -0.348 OA 
HETATM   44  H   UNL     1      -7.196  11.951  64.907  1.00  0.00     0.000 HD 
HETATM   45  N   UNL     1      -9.306  11.745  63.449  1.00  0.00    -0.560 NA 
HETATM   46  H   UNL     1      -9.064   9.819  61.756  1.00  0.00     0.000 HD 
HETATM   47  O   UNL     1      -9.079   9.066  62.335  1.00  0.00    -0.186 OA 
HETATM   48  C   UNL     1      -9.263  10.519  64.284  1.00  0.00    -0.245 C  
HETATM   49  C   UNL     1      -7.659   7.000  64.013  1.00  0.00    -0.105 C  
HETATM   50  C   UNL     1      -8.511   9.351  63.616  1.00  0.00    -0.200 C  
HETATM   51  C   UNL     1      -8.535   8.121  64.561  1.00  0.00     0.005 C  
HETATM   52  O   UNL     1      -8.037   8.401  65.876  1.00  0.00    -0.100 OA 
HETATM   53  H2  UNL     1      -9.696  11.541  62.530  1.00  0.00     0.000 HD 
HETATM   54  H1  UNL     1      -9.803  12.518  63.891  1.00  0.00     0.000 HD 
ENDBRANCH  40  41
ENDBRANCH  21  40
TORSDOF 2
ENDMDL
MODEL        6
REMARK 921   NORMALIZED FREE ENERGY PREDICTED BY IDOCK:   -7.33 KCAL/MOL
REMARK 922        TOTAL FREE ENERGY PREDICTED BY IDOCK:   -8.76 KCAL/MOL
REMARK 923 INTER-LIGAND FREE ENERGY PREDICTED BY IDOCK:   -8.98 KCAL/MOL
REMARK 924 INTRA-LIGAND FREE ENERGY PREDICTED BY IDOCK:    0.23 KCAL/MOL
REMARK 927      BINDING AFFINITY PREDICTED BY RF-SCORE:    0.00 PKD
ROOT
HETATM    1  C   UNL     1      -6.468  10.770  68.643  1.00  0.00    -0.055 C  
HETATM    2  C   UNL     1      -6.129   9.087  68.180  1.00  0.00    -0.050 C  
HETATM    3  C   UNL     1      -6.920   7.686  68.917  1.00  0.00    -0.070 C  
HETATM    4  O   UNL     1      -5.845   7.015  69.666  1.00  0.00    -0.022 OA 
HETATM    5  C   UNL     1      -7.677   6.288  68.189  1.00  0.00    -0.104 C  
HETATM    6  H   UNL     1      -6.270   6.263  70.062  1.00  0.00     0.000 HD 
HETATM    7  C   UNL     1      -9.249   5.705  68.341  1.00  0.00    -0.118 C  
HETATM    8  O   UNL     1      -9.597   4.995  67.134  1.00  0.00    -0.134 OA 
HETATM    9  C   UNL     1      -9.740   4.582  69.326  1.00  0.00    -0.260 C  
HETATM   10  H   UNL     1     -10.484   4.666  67.219  1.00  0.00     0.000 HD 
HETATM   11  C   UNL     1      -9.876   4.975  70.782  1.00  0.00    -0.208 C  
HETATM   12  O   UNL     1     -10.735   4.052  71.487  1.00  0.00     0.256 OA 
HETATM   13  C   UNL     1     -10.471   6.384  70.956  1.00  0.00    -0.268 C  
HETATM   14  H   UNL     1     -10.820   4.299  72.400  1.00  0.00     0.000 HD 
HETATM   15  C   UNL     1     -10.036   7.325  69.813  1.00  0.00    -0.183 C  
HETATM   16  C   UNL     1      -9.855   6.869  72.244  1.00  0.00    -0.150 C  
HETATM   17  O   UNL     1     -10.172   6.773  68.535  1.00  0.00    -0.159 OA 
HETATM   18  C   UNL     1     -10.586   8.752  69.856  1.00  0.00    -0.230 C  
HETATM   19  O   UNL     1      -8.639   7.080  72.396  1.00  0.00    -0.120 OA 
HETATM   20  O   UNL     1     -10.716   7.139  73.200  1.00  0.00    -0.286 OA 
HETATM   21  C   UNL     1      -9.853   9.714  68.873  1.00  0.00    -0.174 C  
HETATM   22  O   UNL     1      -6.855  11.510  67.528  1.00  0.00    -0.083 OA 
HETATM   23  C   UNL     1     -10.111  11.173  69.136  1.00  0.00    -0.134 C  
HETATM   24  C   UNL     1      -9.767  12.170  68.308  1.00  0.00    -0.216 C  
HETATM   25  C   UNL     1      -6.022  12.520  67.942  1.00  0.00    -0.101 C  
HETATM   26  C   UNL     1     -10.188  13.510  68.560  1.00  0.00    -0.229 C  
HETATM   27  C   UNL     1      -6.703  14.061  68.343  1.00  0.00    -0.099 C  
HETATM   28  C   UNL     1     -10.032  14.521  67.693  1.00  0.00    -0.224 C  
HETATM   29  C   UNL     1      -6.901  15.433  67.960  1.00  0.00    -0.152 C  
HETATM   30  C   UNL     1     -10.516  15.823  68.049  1.00  0.00    -0.270 C  
HETATM   31  O   UNL     1      -5.875  16.964  66.087  1.00  0.00    -0.251 OA 
HETATM   32  C   UNL     1      -6.743  16.846  66.961  1.00  0.00    -0.207 C  
HETATM   33  O   UNL     1      -7.655  17.956  67.280  1.00  0.00    -0.197 OA 
HETATM   34  C   UNL     1     -10.468  16.882  67.241  1.00  0.00    -0.301 C  
HETATM   35  C   UNL     1      -7.904  20.083  65.422  1.00  0.00     0.164 C  
HETATM   36  C   UNL     1      -7.832  19.544  66.897  1.00  0.00    -0.266 C  
HETATM   37  C   UNL     1     -10.649  18.206  67.784  1.00  0.00    -0.407 C  
HETATM   38  C   UNL     1      -9.183  20.098  67.534  1.00  0.00    -0.487 C  
HETATM   39  C   UNL     1     -10.304  19.228  67.003  1.00  0.00    -0.526 C  
ENDROOT
BRANCH  21  40
HETATM   40  O   UNL     1      -9.959   9.362  67.507  1.00  0.00    -0.176 OA 
BRANCH  40  41
HETATM   41  C   UNL     1      -9.571  10.288  66.488  1.00  0.00    -0.181 C  
HETATM   42  C   UNL     1      -8.577   9.495  65.611  1.00  0.00    -0.138 C  
HETATM   43  O   UNL     1      -9.235   8.334  65.085  1.00  0.00    -0.397 OA 
HETATM   44  H   UNL     1      -8.623   7.846  64.546  1.00  0.00     0.000 HD 
HETATM   45  N   UNL     1      -7.061   9.681  63.646  1.00  0.00    -0.105 NA 
HETATM   46  H   UNL     1      -8.298  11.197  61.971  1.00  0.00     0.000 HD 
HETATM   47  O   UNL     1      -8.910  11.642  62.547  1.00  0.00    -0.285 OA 
HETATM   48  C   UNL     1      -8.084  10.378  64.463  1.00  0.00    -0.114 C  
HETATM   49  C   UNL     1     -11.617  11.858  63.861  1.00  0.00    -0.515 C  
HETATM   50  C   UNL     1      -9.315  10.824  63.649  1.00  0.00    -0.273 C  
HETATM   51  C   UNL     1     -10.313  11.551  64.589  1.00  0.00    -0.297 C  
HETATM   52  O   UNL     1     -10.679  10.778  65.740  1.00  0.00    -0.179 OA 
HETATM   53  H2  UNL     1      -6.781  10.255  62.851  1.00  0.00     0.000 HD 
HETATM   54  H1  UNL     1      -6.246   9.386  64.184  1.00  0.00     0.000 HD 
ENDBRANCH  40  41
ENDBRANCH  21  40
TORSDOF 2
ENDMDL
MODEL        7
REMARK 921   NORMALIZED FREE ENERGY PREDICTED BY IDOCK:   -7.03 KCAL/MOL
REMARK 922        TOTAL FREE ENERGY PREDICTED BY IDOCK:   -8.43 KCAL/MOL
REMARK 923 INTER-LIGAND FREE ENERGY PREDICTED BY IDOCK:   -8.51 KCAL/MOL
REMARK 924 INTRA-LIGAND FREE ENERGY PREDICTED BY IDOCK:    0.08 KCAL/MOL
REMARK 927      BINDING AFFINITY PREDICTED BY RF-SCORE:    0.00 PKD
ROOT
HETATM    1  C   UNL     1     -11.292  11.547  70.186  1.00  0.00    -0.057 C  
HETATM    2  C   UNL     1     -12.341  12.379  69.016  1.00  0.00     0.164 C  
HETATM    3  C   UNL     1     -11.926  13.918  68.246  1.00  0.00    -0.357 C  
HETATM    4  O   UNL     1     -12.888  14.877  68.811  1.00  0.00    -0.159 OA 
HETATM    5  C   UNL     1     -11.987  14.406  66.567  1.00  0.00    -0.406 C  
HETATM    6  H   UNL     1     -12.666  15.703  68.398  1.00  0.00     0.000 HD 
HETATM    7  C   UNL     1     -10.767  14.987  65.563  1.00  0.00    -0.359 C  
HETATM    8  O   UNL     1     -11.085  14.637  64.200  1.00  0.00    -0.579 OA 
HETATM    9  C   UNL     1     -10.441  16.495  65.262  1.00  0.00    -0.236 C  
HETATM   10  H   UNL     1     -10.397  14.964  63.633  1.00  0.00     0.000 HD 
HETATM   11  C   UNL     1      -9.736  17.265  66.359  1.00  0.00    -0.290 C  
HETATM   12  O   UNL     1      -9.098  18.448  65.830  1.00  0.00    -0.488 OA 
HETATM   13  C   UNL     1      -8.648  16.428  67.057  1.00  0.00    -0.223 C  
HETATM   14  H   UNL     1      -8.656  18.931  66.519  1.00  0.00     0.000 HD 
HETATM   15  C   UNL     1      -9.039  14.936  67.120  1.00  0.00    -0.222 C  
HETATM   16  C   UNL     1      -8.623  16.982  68.458  1.00  0.00    -0.257 C  
HETATM   17  O   UNL     1      -9.508  14.416  65.909  1.00  0.00    -0.256 OA 
HETATM   18  C   UNL     1      -8.025  13.991  67.767  1.00  0.00    -0.175 C  
HETATM   19  O   UNL     1      -9.572  16.894  69.258  1.00  0.00    -0.200 OA 
HETATM   20  O   UNL     1      -7.476  17.511  68.822  1.00  0.00    -0.252 OA 
HETATM   21  C   UNL     1      -8.621  12.587  68.085  1.00  0.00    -0.189 C  
HETATM   22  O   UNL     1     -11.022  10.248  69.755  1.00  0.00    -0.249 OA 
HETATM   23  C   UNL     1      -7.786  11.764  69.028  1.00  0.00     0.027 C  
HETATM   24  C   UNL     1      -7.980  10.462  69.282  1.00  0.00    -0.157 C  
HETATM   25  C   UNL     1     -11.265   9.803  71.031  1.00  0.00    -0.381 C  
HETATM   26  C   UNL     1      -7.048   9.722  70.068  1.00  0.00    -0.118 C  
HETATM   27  C   UNL     1      -9.984   9.039  71.913  1.00  0.00    -0.304 C  
HETATM   28  C   UNL     1      -7.083   8.390  70.218  1.00  0.00    -0.040 C  
HETATM   29  C   UNL     1      -9.430   7.815  72.423  1.00  0.00    -0.234 C  
HETATM   30  C   UNL     1      -6.076   7.752  71.016  1.00  0.00    -0.034 C  
HETATM   31  O   UNL     1     -10.350   5.365  72.668  1.00  0.00    -0.188 OA 
HETATM   32  C   UNL     1      -9.362   6.107  72.738  1.00  0.00    -0.148 C  
HETATM   33  O   UNL     1      -8.060   5.595  73.193  1.00  0.00    -0.116 OA 
HETATM   34  C   UNL     1      -5.982   6.433  71.181  1.00  0.00    -0.028 C  
HETATM   35  C   UNL     1      -7.636   2.792  73.214  1.00  0.00    -0.047 C  
HETATM   36  C   UNL     1      -7.445   4.218  73.846  1.00  0.00    -0.076 C  
HETATM   37  C   UNL     1      -5.177   5.902  72.255  1.00  0.00    -0.022 C  
HETATM   38  C   UNL     1      -5.861   4.340  73.953  1.00  0.00    -0.012 C  
HETATM   39  C   UNL     1      -5.350   4.616  72.553  1.00  0.00    -0.004 C  
ENDROOT
BRANCH  21  40
HETATM   40  O   UNL     1      -9.071  11.863  66.956  1.00  0.00    -0.179 OA 
BRANCH  40  41
HETATM   41  C   UNL     1      -8.480  10.604  66.620  1.00  0.00    -0.137 C  
HETATM   42  C   UNL     1      -9.665   9.613  66.626  1.00  0.00    -0.209 C  
HETATM   43  O   UNL     1     -10.643  10.041  65.667  1.00  0.00    -0.081 OA 
HETATM   44  H   UNL     1     -11.371   9.431  65.671  1.00  0.00     0.000 HD 
HETATM   45  N   UNL     1     -10.259   7.212  66.348  1.00  0.00    -0.470 NA 
HETATM   46  H   UNL     1      -8.729   6.344  64.467  1.00  0.00     0.000 HD 
HETATM   47  O   UNL     1      -8.035   6.993  64.484  1.00  0.00    -0.122 OA 
HETATM   48  C   UNL     1      -9.166   8.211  66.269  1.00  0.00    -0.191 C  
HETATM   49  C   UNL     1      -6.807   9.570  63.508  1.00  0.00    -0.103 C  
HETATM   50  C   UNL     1      -8.506   8.286  64.878  1.00  0.00    -0.096 C  
HETATM   51  C   UNL     1      -7.372   9.344  64.906  1.00  0.00    -0.106 C  
HETATM   52  O   UNL     1      -7.805  10.632  65.366  1.00  0.00    -0.143 OA 
HETATM   53  H2  UNL     1      -9.931   6.293  66.054  1.00  0.00     0.000 HD 
HETATM   54  H1  UNL     1     -10.696   7.163  67.268  1.00  0.00     0.000 HD 
ENDBRANCH  40  41
ENDBRANCH  21  40
TORSDOF 2
ENDMDL
MODEL        8
REMARK 921   NORMALIZED FREE ENERGY PREDICTED BY IDOCK:   -6.04 KCAL/MOL
REMARK 922        TOTAL FREE ENERGY PREDICTED BY IDOCK:   -7.32 KCAL/MOL
REMARK 923 INTER-LIGAND FREE ENERGY PREDICTED BY IDOCK:   -8.53 KCAL/MOL
REMARK 924 INTRA-LIGAND FREE ENERGY PREDICTED BY IDOCK:    1.21 KCAL/MOL
REMARK 927      BINDING AFFINITY PREDICTED BY RF-SCORE:    0.00 PKD
ROOT
HETATM    1  C   UNL     1     -10.410   9.529  66.781  1.00  0.00    -0.228 C  
HETATM    2  C   UNL     1     -11.281   8.099  67.380  1.00  0.00     0.628 C  
HETATM    3  C   UNL     1     -10.506   6.541  67.704  1.00  0.00    -0.230 C  
HETATM    4  O   UNL     1     -11.052   5.642  66.675  1.00  0.00    -0.558 OA 
HETATM    5  C   UNL     1     -10.608   5.483  69.093  1.00  0.00    -0.300 C  
HETATM    6  H   UNL     1     -10.636   4.806  66.849  1.00  0.00     0.000 HD 
HETATM    7  C   UNL     1      -9.395   4.903  70.104  1.00  0.00    -0.154 C  
HETATM    8  O   UNL     1      -9.962   4.648  71.407  1.00  0.00    -0.184 OA 
HETATM    9  C   UNL     1      -8.658   3.519  69.985  1.00  0.00    -0.107 C  
HETATM   10  H   UNL     1      -9.278   4.321  71.978  1.00  0.00     0.000 HD 
HETATM   11  C   UNL     1      -7.627   3.397  68.883  1.00  0.00    -0.052 C  
HETATM   12  O   UNL     1      -6.722   2.302  69.142  1.00  0.00    -0.033 OA 
HETATM   13  C   UNL     1      -6.776   4.671  68.732  1.00  0.00    -0.050 C  
HETATM   14  H   UNL     1      -6.075   2.225  68.450  1.00  0.00     0.000 HD 
HETATM   15  C   UNL     1      -7.597   5.938  69.052  1.00  0.00    -0.090 C  
HETATM   16  C   UNL     1      -6.418   4.684  67.267  1.00  0.00    -0.045 C  
HETATM   17  O   UNL     1      -8.341   5.854  70.233  1.00  0.00    -0.118 OA 
HETATM   18  C   UNL     1      -6.855   7.273  68.966  1.00  0.00    -0.064 C  
HETATM   19  O   UNL     1      -7.248   4.815  66.350  1.00  0.00    -0.074 OA 
HETATM   20  O   UNL     1      -5.130   4.624  67.014  1.00  0.00    -0.007 OA 
HETATM   21  C   UNL     1      -7.814   8.502  68.979  1.00  0.00    -0.104 C  
HETATM   22  O   UNL     1     -10.605  10.609  67.642  1.00  0.00    -0.210 OA 
HETATM   23  C   UNL     1      -7.168   9.789  68.542  1.00  0.00    -0.070 C  
HETATM   24  C   UNL     1      -7.722  11.003  68.669  1.00  0.00    -0.132 C  
HETATM   25  C   UNL     1     -10.823  11.408  66.546  1.00  0.00    -0.283 C  
HETATM   26  C   UNL     1      -6.979  12.183  68.372  1.00  0.00    -0.078 C  
HETATM   27  C   UNL     1      -9.746  12.731  66.243  1.00  0.00    -0.262 C  
HETATM   28  C   UNL     1      -7.404  13.427  68.640  1.00  0.00    -0.106 C  
HETATM   29  C   UNL     1      -9.540  14.153  66.271  1.00  0.00    -0.295 C  
HETATM   30  C   UNL     1      -6.557  14.537  68.316  1.00  0.00    -0.119 C  
HETATM   31  O   UNL     1     -11.134  16.215  66.607  1.00  0.00    -0.136 OA 
HETATM   32  C   UNL     1      -9.965  15.819  66.525  1.00  0.00    -0.269 C  
HETATM   33  O   UNL     1      -8.840  16.767  66.543  1.00  0.00    -0.235 OA 
HETATM   34  C   UNL     1      -6.854  15.807  68.593  1.00  0.00    -0.122 C  
HETATM   35  C   UNL     1      -9.300  19.400  67.486  1.00  0.00    -0.386 C  
HETATM   36  C   UNL     1      -8.607  18.393  66.499  1.00  0.00    -0.273 C  
HETATM   37  C   UNL     1      -6.133  16.870  67.938  1.00  0.00    -0.146 C  
HETATM   38  C   UNL     1      -7.061  18.716  66.703  1.00  0.00    -0.235 C  
HETATM   39  C   UNL     1      -6.657  18.092  68.024  1.00  0.00    -0.196 C  
ENDROOT
BRANCH  21  40
HETATM   40  O   UNL     1      -8.593   8.635  70.152  1.00  0.00    -0.126 OA 
BRANCH  40  41
HETATM   41  C   UNL     1     -10.008   8.828  70.063  1.00  0.00    -0.187 C  
HETATM   42  C   UNL     1     -10.579   8.002  71.237  1.00  0.00    -0.209 C  
HETATM   43  O   UNL     1     -10.028   8.489  72.469  1.00  0.00    -0.293 OA 
HETATM   44  H   UNL     1     -10.379   7.981  73.191  1.00  0.00     0.000 HD 
HETATM   45  N   UNL     1     -12.699   7.282  72.325  1.00  0.00    -0.512 NA 
HETATM   46  H   UNL     1     -14.270   9.318  72.170  1.00  0.00     0.000 HD 
HETATM   47  O   UNL     1     -13.867   9.804  71.459  1.00  0.00    -0.236 OA 
HETATM   48  C   UNL     1     -12.104   8.131  71.264  1.00  0.00    -0.288 C  
HETATM   49  C   UNL     1     -11.967  11.920  70.454  1.00  0.00    -0.400 C  
HETATM   50  C   UNL     1     -12.448   9.626  71.411  1.00  0.00    -0.373 C  
HETATM   51  C   UNL     1     -11.792  10.419  70.251  1.00  0.00    -0.312 C  
HETATM   52  O   UNL     1     -10.379  10.201  70.137  1.00  0.00    -0.270 OA 
HETATM   53  H2  UNL     1     -13.708   7.418  72.372  1.00  0.00     0.000 HD 
HETATM   54  H1  UNL     1     -12.471   6.293  72.227  1.00  0.00     0.000 HD 
ENDBRANCH  40  41
ENDBRANCH  21  40
TORSDOF 2
ENDMDL
MODEL        9
REMARK 921   NORMALIZED FREE ENERGY PREDICTED BY IDOCK:   -6.01 KCAL/MOL
REMARK 922        TOTAL FREE ENERGY PREDICTED BY IDOCK:   -7.29 KCAL/MOL
REMARK 923 INTER-LIGAND FREE ENERGY PREDICTED BY IDOCK:   -6.96 KCAL/MOL
REMARK 924 INTRA-LIGAND FREE ENERGY PREDICTED BY IDOCK:   -0.33 KCAL/MOL
REMARK 927      BINDING AFFINITY PREDICTED BY RF-SCORE:    0.00 PKD
ROOT
HETATM    1  C   UNL     1     -10.399   9.084  66.600  1.00  0.00    -0.219 C  
HETATM    2  C   UNL     1     -11.028   7.525  67.178  1.00  0.00    -0.164 C  
HETATM    3  C   UNL     1     -10.154   5.994  67.021  1.00  0.00    -0.179 C  
HETATM    4  O   UNL     1     -10.949   5.221  66.053  1.00  0.00    -0.713 OA 
HETATM    5  C   UNL     1      -9.832   4.738  68.195  1.00  0.00    -0.182 C  
HETATM    6  H   UNL     1     -10.480   4.399  65.968  1.00  0.00     0.000 HD 
HETATM    7  C   UNL     1      -8.368   4.101  68.725  1.00  0.00    -0.082 C  
HETATM    8  O   UNL     1      -8.536   3.619  70.075  1.00  0.00    -0.058 OA 
HETATM    9  C   UNL     1      -7.661   2.804  68.186  1.00  0.00    -0.056 C  
HETATM   10  H   UNL     1      -7.709   3.259  70.374  1.00  0.00     0.000 HD 
HETATM   11  C   UNL     1      -6.982   2.917  66.836  1.00  0.00    -0.049 C  
HETATM   12  O   UNL     1      -6.015   1.860  66.656  1.00  0.00    -0.018 OA 
HETATM   13  C   UNL     1      -6.242   4.255  66.663  1.00  0.00    -0.032 C  
HETATM   14  H   UNL     1      -5.589   1.931  65.810  1.00  0.00     0.000 HD 
HETATM   15  C   UNL     1      -6.969   5.401  67.397  1.00  0.00    -0.065 C  
HETATM   16  C   UNL     1      -6.314   4.508  65.179  1.00  0.00    -0.035 C  
HETATM   17  O   UNL     1      -7.345   5.093  68.708  1.00  0.00    -0.061 OA 
HETATM   18  C   UNL     1      -6.315   6.783  67.325  1.00  0.00    -0.047 C  
HETATM   19  O   UNL     1      -7.374   4.714  64.560  1.00  0.00    -0.067 OA 
HETATM   20  O   UNL     1      -5.150   4.575  64.573  1.00  0.00    -0.008 OA 
HETATM   21  C   UNL     1      -7.261   7.927  67.800  1.00  0.00    -0.091 C  
HETATM   22  O   UNL     1     -10.369  10.010  67.643  1.00  0.00    -0.193 OA 
HETATM   23  C   UNL     1      -6.798   9.306  67.413  1.00  0.00    -0.077 C  
HETATM   24  C   UNL     1      -7.323  10.447  67.882  1.00  0.00    -0.086 C  
HETATM   25  C   UNL     1     -10.908  10.944  66.793  1.00  0.00    -0.224 C  
HETATM   26  C   UNL     1      -6.724  11.706  67.585  1.00  0.00    -0.087 C  
HETATM   27  C   UNL     1      -9.995  12.368  66.421  1.00  0.00    -0.254 C  
HETATM   28  C   UNL     1      -7.087  12.864  68.156  1.00  0.00    -0.108 C  
HETATM   29  C   UNL     1      -9.825  13.782  66.619  1.00  0.00    -0.286 C  
HETATM   30  C   UNL     1      -6.394  14.066  67.793  1.00  0.00    -0.170 C  
HETATM   31  O   UNL     1     -11.309  15.657  67.709  1.00  0.00    -0.326 OA 
HETATM   32  C   UNL     1     -10.201  15.359  67.244  1.00  0.00    -0.254 C  
HETATM   33  O   UNL     1      -9.141  16.369  67.102  1.00  0.00    -0.200 OA 
HETATM   34  C   UNL     1      -6.632  15.257  68.342  1.00  0.00    -0.110 C  
HETATM   35  C   UNL     1      -9.380  18.797  68.547  1.00  0.00    -0.390 C  
HETATM   36  C   UNL     1      -8.971  17.997  67.258  1.00  0.00    -0.251 C  
HETATM   37  C   UNL     1      -6.153  16.453  67.693  1.00  0.00    -0.166 C  
HETATM   38  C   UNL     1      -7.439  18.392  67.076  1.00  0.00    -0.227 C  
HETATM   39  C   UNL     1      -6.661  17.609  68.115  1.00  0.00    -0.205 C  
ENDROOT
BRANCH  21  40
HETATM   40  O   UNL     1      -7.678   7.832  69.148  1.00  0.00    -0.097 OA 
BRANCH  40  41
HETATM   41  C   UNL     1      -6.723   7.593  70.186  1.00  0.00    -0.049 C  
HETATM   42  C   UNL     1      -6.573   8.961  70.888  1.00  0.00    -0.061 C  
HETATM   43  O   UNL     1      -7.851   9.375  71.393  1.00  0.00    -0.325 OA 
HETATM   44  H   UNL     1      -7.758  10.217  71.824  1.00  0.00     0.000 HD 
HETATM   45  N   UNL     1      -5.335  10.156  72.686  1.00  0.00    -0.307 NA 
HETATM   46  H   UNL     1      -5.085   8.444  74.595  1.00  0.00     0.000 HD 
HETATM   47  O   UNL     1      -5.209   7.628  74.124  1.00  0.00    -0.049 OA 
HETATM   48  C   UNL     1      -5.573   8.842  72.040  1.00  0.00    -0.061 C  
HETATM   49  C   UNL     1      -6.981   5.398  73.130  1.00  0.00    -0.080 C  
HETATM   50  C   UNL     1      -6.100   7.769  73.013  1.00  0.00    -0.061 C  
HETATM   51  C   UNL     1      -6.302   6.437  72.244  1.00  0.00    -0.054 C  
HETATM   52  O   UNL     1      -7.134   6.568  71.084  1.00  0.00    -0.073 OA 
HETATM   53  H2  UNL     1      -4.713  10.056  73.488  1.00  0.00     0.000 HD 
HETATM   54  H1  UNL     1      -4.987  10.866  72.043  1.00  0.00     0.000 HD 
ENDBRANCH  40  41
ENDBRANCH  21  40
TORSDOF 2
ENDMDL
MODEL       10
REMARK 921   NORMALIZED FREE ENERGY PREDICTED BY IDOCK:   -5.90 KCAL/MOL
REMARK 922        TOTAL FREE ENERGY PREDICTED BY IDOCK:   -7.16 KCAL/MOL
REMARK 923 INTER-LIGAND FREE ENERGY PREDICTED BY IDOCK:   -8.72 KCAL/MOL
REMARK 924 INTRA-LIGAND FREE ENERGY PREDICTED BY IDOCK:    1.56 KCAL/MOL
REMARK 927      BINDING AFFINITY PREDICTED BY RF-SCORE:    0.00 PKD
ROOT
HETATM    1  C   UNL     1      -6.873  10.686  68.620  1.00  0.00    -0.059 C  
HETATM    2  C   UNL     1      -7.011  12.458  68.666  1.00  0.00    -0.091 C  
HETATM    3  C   UNL     1      -8.007  13.396  67.544  1.00  0.00    -0.183 C  
HETATM    4  O   UNL     1      -7.034  14.140  66.729  1.00  0.00    -0.172 OA 
HETATM    5  C   UNL     1      -9.167  14.671  67.841  1.00  0.00    -0.197 C  
HETATM    6  H   UNL     1      -7.569  14.643  66.127  1.00  0.00     0.000 HD 
HETATM    7  C   UNL     1     -10.797  14.768  67.435  1.00  0.00    -0.300 C  
HETATM    8  O   UNL     1     -11.463  15.615  68.395  1.00  0.00    -0.351 OA 
HETATM    9  C   UNL     1     -11.406  15.469  66.166  1.00  0.00    -0.010 C  
HETATM   10  H   UNL     1     -12.383  15.670  68.167  1.00  0.00     0.000 HD 
HETATM   11  C   UNL     1     -11.248  14.736  64.850  1.00  0.00    -0.406 C  
HETATM   12  O   UNL     1     -12.201  15.215  63.876  1.00  0.00    -0.947 OA 
HETATM   13  C   UNL     1     -11.461  13.218  64.995  1.00  0.00    -0.329 C  
HETATM   14  H   UNL     1     -12.102  14.755  63.050  1.00  0.00     0.000 HD 
HETATM   15  C   UNL     1     -10.971  12.709  66.367  1.00  0.00    -0.272 C  
HETATM   16  C   UNL     1     -10.581  12.635  63.919  1.00  0.00    -0.428 C  
HETATM   17  O   UNL     1     -11.404  13.479  67.451  1.00  0.00    -0.287 OA 
HETATM   18  C   UNL     1     -11.153  11.216  66.647  1.00  0.00    -0.255 C  
HETATM   19  O   UNL     1      -9.340  12.724  63.912  1.00  0.00     0.258 OA 
HETATM   20  O   UNL     1     -11.217  11.939  63.003  1.00  0.00    -0.203 OA 
HETATM   21  C   UNL     1     -10.350  10.729  67.890  1.00  0.00    -0.185 C  
HETATM   22  O   UNL     1      -7.218  10.141  69.856  1.00  0.00    -0.121 OA 
HETATM   23  C   UNL     1     -10.215   9.233  67.987  1.00  0.00    -0.255 C  
HETATM   24  C   UNL     1      -9.756   8.576  69.062  1.00  0.00    -0.170 C  
HETATM   25  C   UNL     1      -6.119   9.321  69.770  1.00  0.00    -0.039 C  
HETATM   26  C   UNL     1      -9.807   7.153  69.127  1.00  0.00    -0.160 C  
HETATM   27  C   UNL     1      -6.353   7.605  69.724  1.00  0.00    -0.031 C  
HETATM   28  C   UNL     1      -9.531   6.441  70.230  1.00  0.00    -0.171 C  
HETATM   29  C   UNL     1      -6.267   6.353  70.426  1.00  0.00    -0.035 C  
HETATM   30  C   UNL     1      -9.639   5.012  70.180  1.00  0.00    -0.257 C  
HETATM   31  O   UNL     1      -5.165   5.611  72.693  1.00  0.00    -0.017 OA 
HETATM   32  C   UNL     1      -5.911   5.295  71.758  1.00  0.00    -0.024 C  
HETATM   33  O   UNL     1      -6.480   3.942  71.665  1.00  0.00    -0.014 OA 
HETATM   34  C   UNL     1      -9.448   4.214  71.231  1.00  0.00    -0.230 C  
HETATM   35  C   UNL     1      -6.460   2.301  73.977  1.00  0.00    -0.020 C  
HETATM   36  C   UNL     1      -6.323   2.492  72.423  1.00  0.00    -0.014 C  
HETATM   37  C   UNL     1      -9.233   2.802  71.028  1.00  0.00    -0.200 C  
HETATM   38  C   UNL     1      -7.404   1.472  71.852  1.00  0.00    -0.035 C  
HETATM   39  C   UNL     1      -8.762   2.112  72.065  1.00  0.00    -0.095 C  
ENDROOT
BRANCH  21  40
HETATM   40  O   UNL     1     -10.719  11.340  69.112  1.00  0.00    -0.215 OA 
BRANCH  40  41
HETATM   41  C   UNL     1     -11.918  10.946  69.785  1.00  0.00    -0.351 C  
HETATM   42  C   UNL     1     -11.527   9.653  70.535  1.00  0.00    -0.285 C  
HETATM   43  O   UNL     1     -10.451   9.939  71.439  1.00  0.00    -0.167 OA 
HETATM   44  H   UNL     1     -10.210   9.143  71.900  1.00  0.00     0.000 HD 
HETATM   45  N   UNL     1     -12.424   7.835  71.979  1.00  0.00    -0.381 NA 
HETATM   46  H   UNL     1     -14.110   8.983  73.552  1.00  0.00     0.000 HD 
HETATM   47  O   UNL     1     -14.300   9.777  73.065  1.00  0.00     0.094 OA 
HETATM   48  C   UNL     1     -12.733   9.124  71.314  1.00  0.00    -0.278 C  
HETATM   49  C   UNL     1     -13.775  12.682  72.448  1.00  0.00    -0.377 C  
HETATM   50  C   UNL     1     -13.181  10.226  72.295  1.00  0.00    -0.224 C  
HETATM   51  C   UNL     1     -13.492  11.522  71.501  1.00  0.00     0.128 C  
HETATM   52  O   UNL     1     -12.409  11.952  70.664  1.00  0.00    -0.356 OA 
HETATM   53  H2  UNL     1     -13.214   7.520  72.541  1.00  0.00     0.000 HD 
HETATM   54  H1  UNL     1     -12.128   7.106  71.331  1.00  0.00     0.000 HD 
ENDBRANCH  40  41
ENDBRANCH  21  40
TORSDOF 2
ENDMDL
MODEL       11
REMARK 921   NORMALIZED FREE ENERGY PREDICTED BY IDOCK:   -5.44 KCAL/MOL
REMARK 922        TOTAL FREE ENERGY PREDICTED BY IDOCK:   -6.65 KCAL/MOL
REMARK 923 INTER-LIGAND FREE ENERGY PREDICTED BY IDOCK:   -6.05 KCAL/MOL
REMARK 924 INTRA-LIGAND FREE ENERGY PREDICTED BY IDOCK:   -0.61 KCAL/MOL
REMARK 927      BINDING AFFINITY PREDICTED BY RF-SCORE:    0.00 PKD
ROOT
HETATM    1  C   UNL     1      -6.090  10.121  70.773  1.00  0.00    -0.084 C  
HETATM    2  C   UNL     1      -5.219   8.576  70.904  1.00  0.00    -0.028 C  
HETATM    3  C   UNL     1      -6.005   7.032  71.262  1.00  0.00    -0.036 C  
HETATM    4  O   UNL     1      -5.519   6.679  72.605  1.00  0.00    -0.036 OA 
HETATM    5  C   UNL     1      -5.861   5.471  70.485  1.00  0.00    -0.021 C  
HETATM    6  H   UNL     1      -5.941   5.850  72.797  1.00  0.00     0.000 HD 
HETATM    7  C   UNL     1      -7.040   4.501  69.776  1.00  0.00    -0.050 C  
HETATM    8  O   UNL     1      -6.421   3.702  68.746  1.00  0.00    -0.035 OA 
HETATM    9  C   UNL     1      -7.805   3.309  70.457  1.00  0.00    -0.044 C  
HETATM   10  H   UNL     1      -7.086   3.155  68.345  1.00  0.00     0.000 HD 
HETATM   11  C   UNL     1      -8.884   3.679  71.452  1.00  0.00    -0.096 C  
HETATM   12  O   UNL     1      -9.795   2.578  71.659  1.00  0.00    -0.155 OA 
HETATM   13  C   UNL     1      -9.718   4.887  70.989  1.00  0.00    -0.252 C  
HETATM   14  H   UNL     1     -10.472   2.811  72.283  1.00  0.00     0.000 HD 
HETATM   15  C   UNL     1      -8.863   5.887  70.183  1.00  0.00    -0.142 C  
HETATM   16  C   UNL     1     -10.139   5.541  72.281  1.00  0.00    -0.183 C  
HETATM   17  O   UNL     1      -8.070   5.295  69.195  1.00  0.00    -0.088 OA 
HETATM   18  C   UNL     1      -9.585   7.122  69.640  1.00  0.00    -0.154 C  
HETATM   19  O   UNL     1      -9.347   6.064  73.085  1.00  0.00    -0.140 OA 
HETATM   20  O   UNL     1     -11.438   5.594  72.475  1.00  0.00    -0.294 OA 
HETATM   21  C   UNL     1      -8.607   8.224  69.133  1.00  0.00    -0.138 C  
HETATM   22  O   UNL     1      -5.839  10.714  69.536  1.00  0.00    -0.038 OA 
HETATM   23  C   UNL     1      -9.249   9.569  68.930  1.00  0.00    -0.145 C  
HETATM   24  C   UNL     1      -8.669  10.606  68.308  1.00  0.00    -0.135 C  
HETATM   25  C   UNL     1      -5.656  11.913  70.178  1.00  0.00    -0.133 C  
HETATM   26  C   UNL     1      -9.404  11.794  68.022  1.00  0.00    -0.184 C  
HETATM   27  C   UNL     1      -6.722  13.231  69.820  1.00  0.00     0.131 C  
HETATM   28  C   UNL     1      -8.946  12.794  67.256  1.00  0.00    -0.199 C  
HETATM   29  C   UNL     1      -6.902  14.496  69.160  1.00  0.00    -0.123 C  
HETATM   30  C   UNL     1      -9.788  13.931  67.020  1.00  0.00    -0.257 C  
HETATM   31  O   UNL     1      -5.260  16.206  68.027  1.00  0.00    -0.101 OA 
HETATM   32  C   UNL     1      -6.439  15.883  68.221  1.00  0.00    -0.120 C  
HETATM   33  O   UNL     1      -7.546  16.722  67.737  1.00  0.00    -0.161 OA 
HETATM   34  C   UNL     1      -9.457  14.951  66.227  1.00  0.00    -0.339 C  
HETATM   35  C   UNL     1      -7.000  18.674  65.755  1.00  0.00    -0.290 C  
HETATM   36  C   UNL     1      -7.752  18.201  67.051  1.00  0.00    -0.220 C  
HETATM   37  C   UNL     1     -10.188  16.192  66.314  1.00  0.00    -0.333 C  
HETATM   38  C   UNL     1      -9.282  18.396  66.654  1.00  0.00    -0.305 C  
HETATM   39  C   UNL     1      -9.640  17.253  65.725  1.00  0.00     0.035 C  
ENDROOT
BRANCH  21  40
HETATM   40  O   UNL     1      -7.776   7.830  68.058  1.00  0.00    -0.119 OA 
BRANCH  40  41
HETATM   41  C   UNL     1      -8.343   7.507  66.784  1.00  0.00    -0.126 C  
HETATM   42  C   UNL     1      -7.641   8.469  65.800  1.00  0.00    -0.085 C  
HETATM   43  O   UNL     1      -6.224   8.245  65.850  1.00  0.00    -0.047 OA 
HETATM   44  H   UNL     1      -5.793   8.837  65.245  1.00  0.00     0.000 HD 
HETATM   45  N   UNL     1      -7.570   9.183  63.417  1.00  0.00    -0.105 NA 
HETATM   46  H   UNL     1      -7.908   7.026  62.049  1.00  0.00     0.000 HD 
HETATM   47  O   UNL     1      -8.315   6.463  62.697  1.00  0.00    -0.080 OA 
HETATM   48  C   UNL     1      -8.156   8.220  64.381  1.00  0.00    -0.145 C  
HETATM   49  C   UNL     1      -8.131   4.373  64.865  1.00  0.00    -0.099 C  
HETATM   50  C   UNL     1      -7.868   6.748  64.026  1.00  0.00    -0.106 C  
HETATM   51  C   UNL     1      -8.533   5.828  65.083  1.00  0.00    -0.138 C  
HETATM   52  O   UNL     1      -8.155   6.141  66.431  1.00  0.00    -0.107 OA 
HETATM   53  H2  UNL     1      -7.875   8.973  62.466  1.00  0.00     0.000 HD 
HETATM   54  H1  UNL     1      -7.760  10.157  63.651  1.00  0.00     0.000 HD 
ENDBRANCH  40  41
ENDBRANCH  21  40
TORSDOF 2
ENDMDL
MODEL       12
REMARK 921   NORMALIZED FREE ENERGY PREDICTED BY IDOCK:   -5.41 KCAL/MOL
REMARK 922        TOTAL FREE ENERGY PREDICTED BY IDOCK:   -6.62 KCAL/MOL
REMARK 923 INTER-LIGAND FREE ENERGY PREDICTED BY IDOCK:   -6.75 KCAL/MOL
REMARK 924 INTRA-LIGAND FREE ENERGY PREDICTED BY IDOCK:    0.13 KCAL/MOL
REMARK 927      BINDING AFFINITY PREDICTED BY RF-SCORE:    0.00 PKD
ROOT
HETATM    1  C   UNL     1     -10.555   8.800  69.476  1.00  0.00    -0.219 C  
HETATM    2  C   UNL     1      -9.963   7.305  70.237  1.00  0.00    -0.188 C  
HETATM    3  C   UNL     1      -9.612   5.820  69.342  1.00  0.00    -0.140 C  
HETATM    4  O   UNL     1     -10.645   4.873  69.792  1.00  0.00    -0.152 OA 
HETATM    5  C   UNL     1      -8.218   4.764  69.385  1.00  0.00    -0.076 C  
HETATM    6  H   UNL     1     -10.456   4.075  69.312  1.00  0.00     0.000 HD 
HETATM    7  C   UNL     1      -7.178   4.293  68.148  1.00  0.00    -0.060 C  
HETATM    8  O   UNL     1      -5.885   4.000  68.719  1.00  0.00    -0.021 OA 
HETATM    9  C   UNL     1      -7.272   2.975  67.297  1.00  0.00    -0.058 C  
HETATM   10  H   UNL     1      -5.298   3.734  68.021  1.00  0.00     0.000 HD 
HETATM   11  C   UNL     1      -8.353   2.931  66.237  1.00  0.00    -0.092 C  
HETATM   12  O   UNL     1      -8.068   1.917  65.251  1.00  0.00    -0.076 OA 
HETATM   13  C   UNL     1      -8.497   4.271  65.492  1.00  0.00    -0.114 C  
HETATM   14  H   UNL     1      -8.746   1.889  64.586  1.00  0.00     0.000 HD 
HETATM   15  C   UNL     1      -8.202   5.467  66.422  1.00  0.00    -0.106 C  
HETATM   16  C   UNL     1      -9.954   4.305  65.107  1.00  0.00    -0.204 C  
HETATM   17  O   UNL     1      -7.036   5.329  67.180  1.00  0.00    -0.062 OA 
HETATM   18  C   UNL     1      -8.284   6.859  65.791  1.00  0.00    -0.132 C  
HETATM   19  O   UNL     1     -10.888   4.361  65.927  1.00  0.00    -0.107 OA 
HETATM   20  O   UNL     1     -10.182   4.351  63.813  1.00  0.00    -0.011 OA 
HETATM   21  C   UNL     1      -8.299   8.004  66.848  1.00  0.00    -0.116 C  
HETATM   22  O   UNL     1      -9.707   9.865  69.777  1.00  0.00    -0.214 OA 
HETATM   23  C   UNL     1      -8.733   9.338  66.302  1.00  0.00    -0.160 C  
HETATM   24  C   UNL     1      -8.626  10.502  66.957  1.00  0.00    -0.127 C  
HETATM   25  C   UNL     1     -10.813  10.636  70.037  1.00  0.00    -0.217 C  
HETATM   26  C   UNL     1      -8.917  11.738  66.308  1.00  0.00    -0.176 C  
HETATM   27  C   UNL     1     -11.104  12.042  69.068  1.00  0.00    -0.291 C  
HETATM   28  C   UNL     1      -8.667  12.944  66.841  1.00  0.00    -0.164 C  
HETATM   29  C   UNL     1     -11.083  13.477  68.981  1.00  0.00    -0.293 C  
HETATM   30  C   UNL     1      -8.983  14.119  66.081  1.00  0.00     0.147 C  
HETATM   31  O   UNL     1     -10.794  15.402  70.747  1.00  0.00    -0.323 OA 
HETATM   32  C   UNL     1     -10.850  15.104  69.547  1.00  0.00    -0.263 C  
HETATM   33  O   UNL     1     -10.817  16.141  68.505  1.00  0.00    -0.279 OA 
HETATM   34  C   UNL     1      -8.721  15.361  66.488  1.00  0.00    -0.335 C  
HETATM   35  C   UNL     1      -9.903  18.733  69.200  1.00  0.00    -0.262 C  
HETATM   36  C   UNL     1     -10.869  17.781  68.407  1.00  0.00    -0.078 C  
HETATM   37  C   UNL     1      -9.370  16.477  65.844  1.00  0.00    -0.226 C  
HETATM   38  C   UNL     1     -10.636  18.232  66.897  1.00  0.00    -0.356 C  
HETATM   39  C   UNL     1      -9.303  17.651  66.469  1.00  0.00    -0.286 C  
ENDROOT
BRANCH  21  40
HETATM   40  O   UNL     1      -7.143   8.079  67.659  1.00  0.00    -0.079 OA 
BRANCH  40  41
HETATM   41  C   UNL     1      -7.169   8.804  68.892  1.00  0.00    -0.074 C  
HETATM   42  C   UNL     1      -6.595   7.812  69.929  1.00  0.00    -0.037 C  
HETATM   43  O   UNL     1      -5.268   7.433  69.535  1.00  0.00    -0.015 OA 
HETATM   44  H   UNL     1      -4.916   6.823  70.173  1.00  0.00     0.000 HD 
HETATM   45  N   UNL     1      -6.095   7.523  72.350  1.00  0.00    -0.040 NA 
HETATM   46  H   UNL     1      -5.249   9.821  73.150  1.00  0.00     0.000 HD 
HETATM   47  O   UNL     1      -5.602  10.389  72.474  1.00  0.00    -0.272 OA 
HETATM   48  C   UNL     1      -6.559   8.472  71.309  1.00  0.00    -0.062 C  
HETATM   49  C   UNL     1      -5.333  11.848  69.848  1.00  0.00    -0.087 C  
HETATM   50  C   UNL     1      -5.686   9.738  71.203  1.00  0.00    -0.077 C  
HETATM   51  C   UNL     1      -6.262  10.666  70.101  1.00  0.00    -0.125 C  
HETATM   52  O   UNL     1      -6.423  10.015  68.833  1.00  0.00    -0.048 OA 
HETATM   53  H2  UNL     1      -6.019   7.988  73.254  1.00  0.00     0.000 HD 
HETATM   54  H1  UNL     1      -6.672   6.686  72.420  1.00  0.00     0.000 HD 
ENDBRANCH  40  41
ENDBRANCH  21  40
TORSDOF 2
ENDMDL
MODEL       13
REMARK 921   NORMALIZED FREE ENERGY PREDICTED BY IDOCK:   -5.21 KCAL/MOL
REMARK 922        TOTAL FREE ENERGY PREDICTED BY IDOCK:   -6.39 KCAL/MOL
REMARK 923 INTER-LIGAND FREE ENERGY PREDICTED BY IDOCK:   -7.58 KCAL/MOL
REMARK 924 INTRA-LIGAND FREE ENERGY PREDICTED BY IDOCK:    1.20 KCAL/MOL
REMARK 927      BINDING AFFINITY PREDICTED BY RF-SCORE:    0.00 PKD
ROOT
HETATM    1  C   UNL     1     -10.516   8.578  66.522  1.00  0.00    -0.034 C  
HETATM    2  C   UNL     1     -11.088   6.992  67.090  1.00  0.00    -0.298 C  
HETATM    3  C   UNL     1     -10.167   5.493  66.906  1.00  0.00    -0.233 C  
HETATM    4  O   UNL     1     -10.947   4.704  65.938  1.00  0.00    -0.639 OA 
HETATM    5  C   UNL     1      -9.791   4.235  68.062  1.00  0.00    -0.111 C  
HETATM    6  H   UNL     1     -10.453   3.899  65.839  1.00  0.00     0.000 HD 
HETATM    7  C   UNL     1      -8.300   3.640  68.569  1.00  0.00    -0.078 C  
HETATM    8  O   UNL     1      -8.437   3.139  69.915  1.00  0.00    -0.050 OA 
HETATM    9  C   UNL     1      -7.558   2.373  68.007  1.00  0.00    -0.055 C  
HETATM   10  H   UNL     1      -7.596   2.803  70.201  1.00  0.00     0.000 HD 
HETATM   11  C   UNL     1      -6.900   2.522  66.652  1.00  0.00    -0.044 C  
HETATM   12  O   UNL     1      -5.901   1.499  66.449  1.00  0.00    -0.017 OA 
HETATM   13  C   UNL     1      -6.205   3.886  66.485  1.00  0.00    -0.032 C  
HETATM   14  H   UNL     1      -5.488   1.593  65.598  1.00  0.00     0.000 HD 
HETATM   15  C   UNL     1      -6.960   4.999  67.240  1.00  0.00    -0.065 C  
HETATM   16  C   UNL     1      -6.303   4.151  65.004  1.00  0.00    -0.034 C  
HETATM   17  O   UNL     1      -7.310   4.665  68.551  1.00  0.00    -0.063 OA 
HETATM   18  C   UNL     1      -6.352   6.402  67.175  1.00  0.00    -0.037 C  
HETATM   19  O   UNL     1      -7.376   4.330  64.400  1.00  0.00    -0.067 OA 
HETATM   20  O   UNL     1      -5.149   4.263  64.386  1.00  0.00    -0.008 OA 
HETATM   21  C   UNL     1      -7.328   7.510  67.673  1.00  0.00    -0.103 C  
HETATM   22  O   UNL     1     -10.503   9.493  67.574  1.00  0.00    -0.241 OA 
HETATM   23  C   UNL     1      -6.915   8.907  67.297  1.00  0.00    -0.078 C  
HETATM   24  C   UNL     1      -7.471  10.025  67.784  1.00  0.00    -0.089 C  
HETATM   25  C   UNL     1     -11.082  10.418  66.741  1.00  0.00     0.048 C  
HETATM   26  C   UNL     1      -6.916  11.307  67.494  1.00  0.00    -0.091 C  
HETATM   27  C   UNL     1     -10.220  11.875  66.374  1.00  0.00    -0.240 C  
HETATM   28  C   UNL     1      -7.310  12.446  68.082  1.00  0.00    -0.111 C  
HETATM   29  C   UNL     1     -10.093  13.291  66.586  1.00  0.00    -0.266 C  
HETATM   30  C   UNL     1      -6.660  13.674  67.725  1.00  0.00    -0.178 C  
HETATM   31  O   UNL     1     -11.624  15.106  67.714  1.00  0.00    -0.332 OA 
HETATM   32  C   UNL     1     -10.513  14.849  67.233  1.00  0.00    -0.263 C  
HETATM   33  O   UNL     1      -9.488  15.894  67.090  1.00  0.00    -0.209 OA 
HETATM   34  C   UNL     1      -6.930  14.851  68.289  1.00  0.00    -0.118 C  
HETATM   35  C   UNL     1      -9.788  18.297  68.564  1.00  0.00    -0.400 C  
HETATM   36  C   UNL     1      -9.369  17.524  67.262  1.00  0.00    -0.244 C  
HETATM   37  C   UNL     1      -6.497  16.068  67.648  1.00  0.00    -0.189 C  
HETATM   38  C   UNL     1      -7.852  17.971  67.067  1.00  0.00    -0.236 C  
HETATM   39  C   UNL     1      -7.037  17.203  68.089  1.00  0.00    -0.180 C  
ENDROOT
BRANCH  21  40
HETATM   40  O   UNL     1      -7.726   7.387  69.025  1.00  0.00    -0.112 OA 
BRANCH  40  41
HETATM   41  C   UNL     1      -9.112   7.424  69.378  1.00  0.00    -0.139 C  
HETATM   42  C   UNL     1      -9.257   6.336  70.466  1.00  0.00    -0.158 C  
HETATM   43  O   UNL     1      -8.395   6.654  71.568  1.00  0.00    -0.119 OA 
HETATM   44  H   UNL     1      -8.484   5.985  72.236  1.00  0.00     0.000 HD 
HETATM   45  N   UNL     1     -10.909   5.184  71.928  1.00  0.00    -0.155 NA 
HETATM   46  H   UNL     1     -12.575   7.013  72.646  1.00  0.00     0.000 HD 
HETATM   47  O   UNL     1     -12.433   7.664  71.969  1.00  0.00    -0.302 OA 
HETATM   48  C   UNL     1     -10.710   6.276  70.944  1.00  0.00    -0.259 C  
HETATM   49  C   UNL     1     -11.051  10.138  70.935  1.00  0.00    -0.326 C  
HETATM   50  C   UNL     1     -11.085   7.668  71.490  1.00  0.00    -0.236 C  
HETATM   51  C   UNL     1     -10.853   8.730  70.384  1.00  0.00    -0.228 C  
HETATM   52  O   UNL     1      -9.528   8.706  69.837  1.00  0.00    -0.163 OA 
HETATM   53  H2  UNL     1     -11.865   5.189  72.282  1.00  0.00     0.000 HD 
HETATM   54  H1  UNL     1     -10.661   4.264  71.567  1.00  0.00     0.000 HD 
ENDBRANCH  40  41
ENDBRANCH  21  40
TORSDOF 2
ENDMDL
MODEL       14
REMARK 921   NORMALIZED FREE ENERGY PREDICTED BY IDOCK:   -4.36 KCAL/MOL
REMARK 922        TOTAL FREE ENERGY PREDICTED BY IDOCK:   -5.44 KCAL/MOL
REMARK 923 INTER-LIGAND FREE ENERGY PREDICTED BY IDOCK:   -5.68 KCAL/MOL
REMARK 924 INTRA-LIGAND FREE ENERGY PREDICTED BY IDOCK:    0.24 KCAL/MOL
REMARK 927      BINDING AFFINITY PREDICTED BY RF-SCORE:    0.00 PKD
ROOT
HETATM    1  C   UNL     1     -10.992   6.145  69.259  1.00  0.00    -0.381 C  
HETATM    2  C   UNL     1      -9.987   4.685  69.400  1.00  0.00    -0.249 C  
HETATM    3  C   UNL     1      -9.250   3.862  68.018  1.00  0.00    -0.163 C  
HETATM    4  O   UNL     1      -9.964   2.577  67.938  1.00  0.00    -0.139 OA 
HETATM    5  C   UNL     1      -7.614   3.296  67.766  1.00  0.00    -0.064 C  
HETATM    6  H   UNL     1      -9.569   2.135  67.195  1.00  0.00     0.000 HD 
HETATM    7  C   UNL     1      -6.510   3.680  66.555  1.00  0.00    -0.037 C  
HETATM    8  O   UNL     1      -5.175   3.528  67.083  1.00  0.00    -0.010 OA 
HETATM    9  C   UNL     1      -6.247   2.866  65.236  1.00  0.00    -0.023 C  
HETATM   10  H   UNL     1      -4.552   3.745  66.400  1.00  0.00     0.000 HD 
HETATM   11  C   UNL     1      -7.294   2.986  64.149  1.00  0.00    -0.066 C  
HETATM   12  O   UNL     1      -6.755   2.593  62.868  1.00  0.00    -0.025 OA 
HETATM   13  C   UNL     1      -7.826   4.424  64.004  1.00  0.00    -0.085 C  
HETATM   14  H   UNL     1      -7.412   2.668  62.186  1.00  0.00     0.000 HD 
HETATM   15  C   UNL     1      -7.860   5.152  65.364  1.00  0.00    -0.089 C  
HETATM   16  C   UNL     1      -9.241   4.229  63.522  1.00  0.00    -0.138 C  
HETATM   17  O   UNL     1      -6.686   5.023  66.112  1.00  0.00    -0.051 OA 
HETATM   18  C   UNL     1      -8.345   6.603  65.350  1.00  0.00    -0.130 C  
HETATM   19  O   UNL     1     -10.135   3.687  64.196  1.00  0.00    -0.181 OA 
HETATM   20  O   UNL     1      -9.499   4.750  62.344  1.00  0.00    -0.114 OA 
HETATM   21  C   UNL     1      -8.660   7.152  66.774  1.00  0.00    -0.124 C  
HETATM   22  O   UNL     1     -10.473   7.168  70.050  1.00  0.00    -0.210 OA 
HETATM   23  C   UNL     1      -9.464   8.424  66.778  1.00  0.00    -0.255 C  
HETATM   24  C   UNL     1      -9.676   9.189  67.858  1.00  0.00    -0.182 C  
HETATM   25  C   UNL     1     -11.746   7.437  70.491  1.00  0.00    -0.191 C  
HETATM   26  C   UNL     1     -10.317  10.457  67.743  1.00  0.00    -0.245 C  
HETATM   27  C   UNL     1     -12.442   8.987  70.154  1.00  0.00     0.746 C  
HETATM   28  C   UNL     1     -10.406  11.348  68.742  1.00  0.00    -0.222 C  
HETATM   29  C   UNL     1     -12.829  10.275  70.662  1.00  0.00    -0.362 C  
HETATM   30  C   UNL     1     -11.057  12.603  68.500  1.00  0.00    -0.300 C  
HETATM   31  O   UNL     1     -13.057  11.284  73.077  1.00  0.00     1.456 OA 
HETATM   32  C   UNL     1     -13.052  11.513  71.861  1.00  0.00    -0.387 C  
HETATM   33  O   UNL     1     -13.335  12.859  71.341  1.00  0.00    -0.246 OA 
HETATM   34  C   UNL     1     -11.147  13.581  69.401  1.00  0.00    -0.173 C  
HETATM   35  C   UNL     1     -13.175  15.061  73.119  1.00  0.00    -0.587 C  
HETATM   36  C   UNL     1     -13.849  14.311  71.914  1.00  0.00    -0.457 C  
HETATM   37  C   UNL     1     -12.098  14.648  69.207  1.00  0.00    -0.307 C  
HETATM   38  C   UNL     1     -13.786  15.397  70.751  1.00  0.00    -0.186 C  
HETATM   39  C   UNL     1     -12.352  15.424  70.258  1.00  0.00    -0.425 C  
ENDROOT
BRANCH  21  40
HETATM   40  O   UNL     1      -7.555   7.183  67.656  1.00  0.00    -0.105 OA 
BRANCH  40  41
HETATM   41  C   UNL     1      -7.665   7.820  68.933  1.00  0.00    -0.113 C  
HETATM   42  C   UNL     1      -7.097   6.782  69.926  1.00  0.00    -0.071 C  
HETATM   43  O   UNL     1      -5.739   6.482  69.570  1.00  0.00    -0.013 OA 
HETATM   44  H   UNL     1      -5.391   5.844  70.182  1.00  0.00     0.000 HD 
HETATM   45  N   UNL     1      -6.691   6.348  72.343  1.00  0.00    -0.067 NA 
HETATM   46  H   UNL     1      -5.977   8.617  73.333  1.00  0.00     0.000 HD 
HETATM   47  O   UNL     1      -6.323   9.216  72.681  1.00  0.00    -0.298 OA 
HETATM   48  C   UNL     1      -7.148   7.348  71.347  1.00  0.00    -0.063 C  
HETATM   49  C   UNL     1      -5.999  10.860  70.173  1.00  0.00    -0.120 C  
HETATM   50  C   UNL     1      -6.324   8.651  71.367  1.00  0.00    -0.060 C  
HETATM   51  C   UNL     1      -6.889   9.629  70.303  1.00  0.00    -0.107 C  
HETATM   52  O   UNL     1      -6.967   9.060  68.989  1.00  0.00    -0.061 OA 
HETATM   53  H2  UNL     1      -6.675   6.753  73.279  1.00  0.00     0.000 HD 
HETATM   54  H1  UNL     1      -7.236   5.487  72.331  1.00  0.00     0.000 HD 
ENDBRANCH  40  41
ENDBRANCH  21  40
TORSDOF 2
ENDMDL
MODEL       15
REMARK 921   NORMALIZED FREE ENERGY PREDICTED BY IDOCK:   -4.35 KCAL/MOL
REMARK 922        TOTAL FREE ENERGY PREDICTED BY IDOCK:   -5.43 KCAL/MOL
REMARK 923 INTER-LIGAND FREE ENERGY PREDICTED BY IDOCK:   -5.66 KCAL/MOL
REMARK 924 INTRA-LIGAND FREE ENERGY PREDICTED BY IDOCK:    0.23 KCAL/MOL
REMARK 927      BINDING AFFINITY PREDICTED BY RF-SCORE:    0.00 PKD
ROOT
HETATM    1  C   UNL     1     -10.776   6.502  69.150  1.00  0.00    -0.275 C  
HETATM    2  C   UNL     1     -10.085   4.932  69.619  1.00  0.00    -0.300 C  
HETATM    3  C   UNL     1      -9.231   3.861  68.499  1.00  0.00    -0.155 C  
HETATM    4  O   UNL     1     -10.122   2.697  68.359  1.00  0.00     0.252 OA 
HETATM    5  C   UNL     1      -7.700   3.031  68.657  1.00  0.00    -0.051 C  
HETATM    6  H   UNL     1      -9.664   2.122  67.758  1.00  0.00     0.000 HD 
HETATM    7  C   UNL     1      -6.321   3.109  67.694  1.00  0.00    -0.036 C  
HETATM    8  O   UNL     1      -5.169   2.817  68.513  1.00  0.00    -0.011 OA 
HETATM    9  C   UNL     1      -5.935   2.125  66.530  1.00  0.00    -0.023 C  
HETATM   10  H   UNL     1      -4.391   2.861  67.970  1.00  0.00     0.000 HD 
HETATM   11  C   UNL     1      -6.701   2.281  65.233  1.00  0.00    -0.035 C  
HETATM   12  O   UNL     1      -5.985   1.674  64.136  1.00  0.00    -0.012 OA 
HETATM   13  C   UNL     1      -6.938   3.758  64.867  1.00  0.00    -0.053 C  
HETATM   14  H   UNL     1      -6.465   1.772  63.322  1.00  0.00     0.000 HD 
HETATM   15  C   UNL     1      -7.127   4.628  66.128  1.00  0.00    -0.075 C  
HETATM   16  C   UNL     1      -8.236   3.727  64.101  1.00  0.00    -0.090 C  
HETATM   17  O   UNL     1      -6.171   4.406  67.124  1.00  0.00    -0.033 OA 
HETATM   18  C   UNL     1      -7.343   6.125  65.899  1.00  0.00    -0.080 C  
HETATM   19  O   UNL     1      -9.329   3.403  64.600  1.00  0.00    -0.133 OA 
HETATM   20  O   UNL     1      -8.154   4.148  62.859  1.00  0.00    -0.076 OA 
HETATM   21  C   UNL     1      -7.846   6.868  67.173  1.00  0.00    -0.109 C  
HETATM   22  O   UNL     1     -10.263   7.516  69.958  1.00  0.00    -0.206 OA 
HETATM   23  C   UNL     1      -8.404   8.239  66.905  1.00  0.00    -0.114 C  
HETATM   24  C   UNL     1      -8.700   9.141  67.851  1.00  0.00    -0.128 C  
HETATM   25  C   UNL     1     -11.534   8.020  70.086  1.00  0.00    -0.003 C  
HETATM   26  C   UNL     1      -9.078  10.472  67.503  1.00  0.00    -0.144 C  
HETATM   27  C   UNL     1     -11.872   9.611  69.489  1.00  0.00     0.297 C  
HETATM   28  C   UNL     1      -9.217  11.469  68.389  1.00  0.00    -0.190 C  
HETATM   29  C   UNL     1     -12.129  10.991  69.801  1.00  0.00    -0.424 C  
HETATM   30  C   UNL     1      -9.580  12.774  67.916  1.00  0.00    -0.211 C  
HETATM   31  O   UNL     1     -12.673  12.282  72.024  1.00  0.00    -0.177 OA 
HETATM   32  C   UNL     1     -12.380  12.372  70.826  1.00  0.00    -0.286 C  
HETATM   33  O   UNL     1     -12.316  13.680  70.156  1.00  0.00    -0.331 OA 
HETATM   34  C   UNL     1      -9.685  13.847  68.699  1.00  0.00    -0.160 C  
HETATM   35  C   UNL     1     -12.150  16.015  71.757  1.00  0.00    -0.570 C  
HETATM   36  C   UNL     1     -12.681  15.247  70.492  1.00  0.00    -0.390 C  
HETATM   37  C   UNL     1     -10.379  15.017  68.220  1.00  0.00    -0.236 C  
HETATM   38  C   UNL     1     -12.195  16.176  69.294  1.00  0.00     0.191 C  
HETATM   39  C   UNL     1     -10.708  15.933  69.129  1.00  0.00    -0.259 C  
ENDROOT
BRANCH  21  40
HETATM   40  O   UNL     1      -6.957   6.829  68.273  1.00  0.00    -0.074 OA 
BRANCH  40  41
HETATM   41  C   UNL     1      -7.250   7.560  69.467  1.00  0.00    -0.082 C  
HETATM   42  C   UNL     1      -7.048   6.531  70.602  1.00  0.00    -0.069 C  
HETATM   43  O   UNL     1      -5.699   6.045  70.565  1.00  0.00    -0.013 OA 
HETATM   44  H   UNL     1      -5.575   5.412  71.263  1.00  0.00     0.000 HD 
HETATM   45  N   UNL     1      -7.227   6.216  73.065  1.00  0.00    -0.084 NA 
HETATM   46  H   UNL     1      -6.444   8.444  74.095  1.00  0.00     0.000 HD 
HETATM   47  O   UNL     1      -6.561   9.034  73.360  1.00  0.00    -0.327 OA 
HETATM   48  C   UNL     1      -7.325   7.194  71.953  1.00  0.00    -0.081 C  
HETATM   49  C   UNL     1      -5.497  10.453  70.920  1.00  0.00    -0.088 C  
HETATM   50  C   UNL     1      -6.358   8.386  72.101  1.00  0.00    -0.068 C  
HETATM   51  C   UNL     1      -6.550   9.350  70.901  1.00  0.00    -0.098 C  
HETATM   52  O   UNL     1      -6.422   8.707  69.625  1.00  0.00    -0.038 OA 
HETATM   53  H2  UNL     1      -7.356   6.678  73.964  1.00  0.00     0.000 HD 
HETATM   54  H1  UNL     1      -7.866   5.428  72.967  1.00  0.00     0.000 HD 
ENDBRANCH  40  41
ENDBRANCH  21  40
TORSDOF 2
ENDMDL
MODEL       16
REMARK 921   NORMALIZED FREE ENERGY PREDICTED BY IDOCK:   -3.96 KCAL/MOL
REMARK 922        TOTAL FREE ENERGY PREDICTED BY IDOCK:   -5.00 KCAL/MOL
REMARK 923 INTER-LIGAND FREE ENERGY PREDICTED BY IDOCK:   -4.93 KCAL/MOL
REMARK 924 INTRA-LIGAND FREE ENERGY PREDICTED BY IDOCK:   -0.07 KCAL/MOL
REMARK 927      BINDING AFFINITY PREDICTED BY RF-SCORE:    0.00 PKD
ROOT
HETATM    1  C   UNL     1      -6.946  13.103  67.930  1.00  0.00    -0.132 C  
HETATM    2  C   UNL     1      -6.388  14.788  68.025  1.00  0.00    -0.164 C  
HETATM    3  C   UNL     1      -7.260  16.154  67.314  1.00  0.00    -0.197 C  
HETATM    4  O   UNL     1      -6.391  16.608  66.216  1.00  0.00    -0.182 OA 
HETATM    5  C   UNL     1      -7.699  17.705  67.992  1.00  0.00    -0.232 C  
HETATM    6  H   UNL     1      -6.859  17.341  65.834  1.00  0.00     0.000 HD 
HETATM    7  C   UNL     1      -9.212  18.421  68.168  1.00  0.00    -0.312 C  
HETATM    8  O   UNL     1      -9.170  19.315  69.301  1.00  0.00    -0.231 OA 
HETATM    9  C   UNL     1      -9.882  19.449  67.186  1.00  0.00    -0.438 C  
HETATM   10  H   UNL     1     -10.024  19.719  69.401  1.00  0.00     0.000 HD 
HETATM   11  C   UNL     1     -10.435  18.886  65.894  1.00  0.00    -0.391 C  
HETATM   12  O   UNL     1     -11.394  19.791  65.306  1.00  0.00    -0.198 OA 
HETATM   13  C   UNL     1     -11.144  17.534  66.100  1.00  0.00     0.492 C  
HETATM   14  H   UNL     1     -11.742  19.438  64.495  1.00  0.00     0.000 HD 
HETATM   15  C   UNL     1     -10.472  16.712  67.220  1.00  0.00    -0.313 C  
HETATM   16  C   UNL     1     -10.936  16.824  64.786  1.00  0.00    -0.025 C  
HETATM   17  O   UNL     1     -10.219  17.437  68.388  1.00  0.00    -0.317 OA 
HETATM   18  C   UNL     1     -11.102  15.355  67.542  1.00  0.00    -0.315 C  
HETATM   19  O   UNL     1      -9.823  16.473  64.355  1.00  0.00     1.474 OA 
HETATM   20  O   UNL     1     -12.040  16.522  64.142  1.00  0.00    -0.774 OA 
HETATM   21  C   UNL     1     -10.191  14.459  68.435  1.00  0.00    -0.243 C  
HETATM   22  O   UNL     1      -7.059  12.558  69.208  1.00  0.00    -0.034 OA 
HETATM   23  C   UNL     1     -10.603  13.013  68.476  1.00  0.00    -0.274 C  
HETATM   24  C   UNL     1     -10.109  12.103  69.327  1.00  0.00     0.365 C  
HETATM   25  C   UNL     1      -6.436  11.423  68.750  1.00  0.00    -0.056 C  
HETATM   26  C   UNL     1     -10.666  10.792  69.403  1.00  0.00    -0.272 C  
HETATM   27  C   UNL     1      -7.298   9.920  68.782  1.00  0.00    -0.078 C  
HETATM   28  C   UNL     1     -10.343   9.892  70.343  1.00  0.00    -0.322 C  
HETATM   29  C   UNL     1      -7.470   8.638  69.410  1.00  0.00    -0.080 C  
HETATM   30  C   UNL     1     -10.988   8.611  70.330  1.00  0.00    -0.256 C  
HETATM   31  O   UNL     1      -6.069   7.268  71.161  1.00  0.00    -0.036 OA 
HETATM   32  C   UNL     1      -7.134   7.358  70.537  1.00  0.00    -0.057 C  
HETATM   33  O   UNL     1      -8.166   6.316  70.642  1.00  0.00    -0.121 OA 
HETATM   34  C   UNL     1     -10.788   7.667  71.250  1.00  0.00    -0.252 C  
HETATM   35  C   UNL     1      -8.032   4.487  72.804  1.00  0.00    -0.092 C  
HETATM   36  C   UNL     1      -8.332   4.818  71.297  1.00  0.00    -0.106 C  
HETATM   37  C   UNL     1     -11.194   6.309  70.983  1.00  0.00    -0.372 C  
HETATM   38  C   UNL     1      -9.838   4.326  71.128  1.00  0.00    -0.250 C  
HETATM   39  C   UNL     1     -10.714   5.369  71.794  1.00  0.00    -0.271 C  
ENDROOT
BRANCH  21  40
HETATM   40  O   UNL     1      -9.897  14.996  69.710  1.00  0.00    -0.149 OA 
BRANCH  40  41
HETATM   41  C   UNL     1     -10.765  14.744  70.819  1.00  0.00     0.251 C  
HETATM   42  C   UNL     1     -10.802  16.084  71.587  1.00  0.00     0.614 C  
HETATM   43  O   UNL     1     -11.297  17.112  70.717  1.00  0.00    -0.141 OA 
HETATM   44  H   UNL     1     -11.319  17.937  71.189  1.00  0.00     0.000 HD 
HETATM   45  N   UNL     1     -11.709  17.194  73.621  1.00  0.00     0.109 NA 
HETATM   46  H   UNL     1     -14.082  16.239  73.918  1.00  0.00     0.000 HD 
HETATM   47  O   UNL     1     -14.019  15.436  73.413  1.00  0.00    -0.143 OA 
HETATM   48  C   UNL     1     -11.714  15.954  72.808  1.00  0.00    -0.392 C  
HETATM   49  C   UNL     1     -14.350  13.909  70.833  1.00  0.00     1.048 C  
HETATM   50  C   UNL     1     -13.117  15.556  72.309  1.00  0.00    -0.430 C  
HETATM   51  C   UNL     1     -13.014  14.245  71.485  1.00  0.00    -0.340 C  
HETATM   52  O   UNL     1     -12.061  14.317  70.415  1.00  0.00    -0.296 OA 
HETATM   53  H2  UNL     1     -12.362  17.118  74.400  1.00  0.00     0.000 HD 
HETATM   54  H1  UNL     1     -10.781  17.458  73.951  1.00  0.00     0.000 HD 
ENDBRANCH  40  41
ENDBRANCH  21  40
TORSDOF 2
ENDMDL
MODEL       17
REMARK 921   NORMALIZED FREE ENERGY PREDICTED BY IDOCK:   -3.54 KCAL/MOL
REMARK 922        TOTAL FREE ENERGY PREDICTED BY IDOCK:   -4.52 KCAL/MOL
REMARK 923 INTER-LIGAND FREE ENERGY PREDICTED BY IDOCK:   -5.81 KCAL/MOL
REMARK 924 INTRA-LIGAND FREE ENERGY PREDICTED BY IDOCK:    1.29 KCAL/MOL
REMARK 927      BINDING AFFINITY PREDICTED BY RF-SCORE:    0.00 PKD
ROOT
HETATM    1  C   UNL     1      -6.541  14.012  69.449  1.00  0.00    -0.118 C  
HETATM    2  C   UNL     1      -6.670  15.612  70.214  1.00  0.00     0.186 C  
HETATM    3  C   UNL     1      -6.636  17.136  69.316  1.00  0.00    -0.234 C  
HETATM    4  O   UNL     1      -5.366  17.764  69.715  1.00  0.00    -0.187 OA 
HETATM    5  C   UNL     1      -7.685  18.534  69.400  1.00  0.00     0.172 C  
HETATM    6  H   UNL     1      -5.348  18.583  69.232  1.00  0.00     0.000 HD 
HETATM    7  C   UNL     1      -8.605  19.271  68.199  1.00  0.00    -0.327 C  
HETATM    8  O   UNL     1      -9.744  19.908  68.815  1.00  0.00    -0.338 OA 
HETATM    9  C   UNL     1      -8.187  20.512  67.329  1.00  0.00    -0.360 C  
HETATM   10  H   UNL     1     -10.263  20.324  68.137  1.00  0.00     0.000 HD 
HETATM   11  C   UNL     1      -7.179  20.256  66.228  1.00  0.00    -0.265 C  
HETATM   12  O   UNL     1      -7.215  21.310  65.241  1.00  0.00    -0.118 OA 
HETATM   13  C   UNL     1      -7.438  18.928  65.494  1.00  0.00     0.098 C  
HETATM   14  H   UNL     1      -6.582  21.149  64.550  1.00  0.00     0.000 HD 
HETATM   15  C   UNL     1      -8.011  17.859  66.448  1.00  0.00    -0.267 C  
HETATM   16  C   UNL     1      -6.062  18.495  65.053  1.00  0.00    -0.183 C  
HETATM   17  O   UNL     1      -9.064  18.313  67.249  1.00  0.00    -0.252 OA 
HETATM   18  C   UNL     1      -8.340  16.498  65.831  1.00  0.00     0.054 C  
HETATM   19  O   UNL     1      -5.147  18.186  65.837  1.00  0.00    -0.149 OA 
HETATM   20  O   UNL     1      -5.908  18.388  63.753  1.00  0.00     0.097 OA 
HETATM   21  C   UNL     1      -8.597  15.393  66.900  1.00  0.00    -0.259 C  
HETATM   22  O   UNL     1      -7.636  13.221  69.795  1.00  0.00     0.640 OA 
HETATM   23  C   UNL     1      -8.567  13.991  66.354  1.00  0.00     0.309 C  
HETATM   24  C   UNL     1      -8.963  12.902  67.027  1.00  0.00    -0.225 C  
HETATM   25  C   UNL     1      -6.774  12.176  70.022  1.00  0.00     0.309 C  
HETATM   26  C   UNL     1      -9.048  11.633  66.382  1.00  0.00    -0.209 C  
HETATM   27  C   UNL     1      -6.918  10.743  69.059  1.00  0.00    -0.085 C  
HETATM   28  C   UNL     1      -9.597  10.543  66.938  1.00  0.00    -0.206 C  
HETATM   29  C   UNL     1      -7.336   9.369  68.990  1.00  0.00    -0.072 C  
HETATM   30  C   UNL     1      -9.646   9.325  66.181  1.00  0.00    -0.327 C  
HETATM   31  O   UNL     1      -8.070   7.599  70.788  1.00  0.00    -0.101 OA 
HETATM   32  C   UNL     1      -7.982   7.869  69.584  1.00  0.00    -0.118 C  
HETATM   33  O   UNL     1      -8.340   6.880  68.556  1.00  0.00    -0.120 OA 
HETATM   34  C   UNL     1     -10.222   8.203  66.612  1.00  0.00    -0.329 C  
HETATM   35  C   UNL     1      -9.901   4.639  69.317  1.00  0.00    -0.260 C  
HETATM   36  C   UNL     1      -8.744   5.289  68.476  1.00  0.00    -0.097 C  
HETATM   37  C   UNL     1      -9.930   6.951  65.957  1.00  0.00     0.334 C  
HETATM   38  C   UNL     1      -9.152   4.917  66.981  1.00  0.00    -0.120 C  
HETATM   39  C   UNL     1     -10.291   5.841  66.598  1.00  0.00    -0.300 C  
ENDROOT
BRANCH  21  40
HETATM   40  O   UNL     1      -9.696  15.639  67.756  1.00  0.00    -0.217 OA 
BRANCH  40  41
HETATM   41  C   UNL     1     -10.005  14.731  68.817  1.00  0.00    -0.234 C  
HETATM   42  C   UNL     1     -10.714  15.606  69.874  1.00  0.00    -0.322 C  
HETATM   43  O   UNL     1     -11.883  16.198  69.290  1.00  0.00    -0.298 OA 
HETATM   44  H   UNL     1     -12.319  16.736  69.940  1.00  0.00     0.000 HD 
HETATM   45  N   UNL     1     -11.718  15.565  72.151  1.00  0.00    -0.439 NA 
HETATM   46  H   UNL     1     -12.905  13.286  72.331  1.00  0.00     0.000 HD 
HETATM   47  O   UNL     1     -12.457  12.794  71.652  1.00  0.00    -0.143 OA 
HETATM   48  C   UNL     1     -11.111  14.745  71.074  1.00  0.00     0.021 C  
HETATM   49  C   UNL     1     -12.249  11.813  68.807  1.00  0.00    -0.024 C  
HETATM   50  C   UNL     1     -12.038  13.624  70.564  1.00  0.00    -0.339 C  
HETATM   51  C   UNL     1     -11.307  12.821  69.456  1.00  0.00    -0.154 C  
HETATM   52  O   UNL     1     -10.815  13.641  68.388  1.00  0.00    -0.241 OA 
HETATM   53  H2  UNL     1     -12.031  14.975  72.921  1.00  0.00     0.000 HD 
HETATM   54  H1  UNL     1     -11.105  16.307  72.489  1.00  0.00     0.000 HD 
ENDBRANCH  40  41
ENDBRANCH  21  40
TORSDOF 2
ENDMDL
MODEL       18
REMARK 921   NORMALIZED FREE ENERGY PREDICTED BY IDOCK:   -3.48 KCAL/MOL
REMARK 922        TOTAL FREE ENERGY PREDICTED BY IDOCK:   -4.46 KCAL/MOL
REMARK 923 INTER-LIGAND FREE ENERGY PREDICTED BY IDOCK:   -6.64 KCAL/MOL
REMARK 924 INTRA-LIGAND FREE ENERGY PREDICTED BY IDOCK:    2.18 KCAL/MOL
REMARK 927      BINDING AFFINITY PREDICTED BY RF-SCORE:    0.00 PKD
ROOT
HETATM    1  C   UNL     1      -7.950   7.155  66.805  1.00  0.00    -0.108 C  
HETATM    2  C   UNL     1      -8.102   5.384  66.864  1.00  0.00    -0.105 C  
HETATM    3  C   UNL     1      -7.648   4.406  68.267  1.00  0.00    -0.068 C  
HETATM    4  O   UNL     1      -6.474   3.642  67.813  1.00  0.00    -0.036 OA 
HETATM    5  C   UNL     1      -8.512   3.133  69.099  1.00  0.00    -0.097 C  
HETATM    6  H   UNL     1      -6.230   3.117  68.566  1.00  0.00     0.000 HD 
HETATM    7  C   UNL     1      -8.974   3.013  70.713  1.00  0.00    -0.098 C  
HETATM    8  O   UNL     1     -10.159   2.193  70.795  1.00  0.00     0.101 OA 
HETATM    9  C   UNL     1      -8.194   2.270  71.858  1.00  0.00    -0.054 C  
HETATM   10  H   UNL     1     -10.420   2.125  71.706  1.00  0.00     0.000 HD 
HETATM   11  C   UNL     1      -6.957   2.962  72.391  1.00  0.00    -0.031 C  
HETATM   12  O   UNL     1      -6.598   2.448  73.691  1.00  0.00    -0.020 OA 
HETATM   13  C   UNL     1      -7.153   4.483  72.535  1.00  0.00    -0.074 C  
HETATM   14  H   UNL     1      -5.822   2.882  74.026  1.00  0.00     0.000 HD 
HETATM   15  C   UNL     1      -8.085   5.037  71.437  1.00  0.00    -0.112 C  
HETATM   16  C   UNL     1      -5.768   5.038  72.319  1.00  0.00    -0.020 C  
HETATM   17  O   UNL     1      -9.259   4.299  71.258  1.00  0.00    -0.121 OA 
HETATM   18  C   UNL     1      -8.383   6.537  71.488  1.00  0.00    -0.121 C  
HETATM   19  O   UNL     1      -5.146   4.955  71.244  1.00  0.00    -0.004 OA 
HETATM   20  O   UNL     1      -5.273   5.701  73.340  1.00  0.00    -0.021 OA 
HETATM   21  C   UNL     1      -9.050   7.067  70.182  1.00  0.00    -0.149 C  
HETATM   22  O   UNL     1      -9.180   7.736  66.500  1.00  0.00    -0.166 OA 
HETATM   23  C   UNL     1      -9.031   8.566  70.048  1.00  0.00    -0.142 C  
HETATM   24  C   UNL     1      -9.718   9.259  69.130  1.00  0.00    -0.164 C  
HETATM   25  C   UNL     1      -8.540   8.559  65.607  1.00  0.00    -0.177 C  
HETATM   26  C   UNL     1      -9.766  10.684  69.171  1.00  0.00    -0.205 C  
HETATM   27  C   UNL     1      -8.575  10.271  65.869  1.00  0.00    -0.160 C  
HETATM   28  C   UNL     1     -10.568  11.431  68.398  1.00  0.00    -0.230 C  
HETATM   29  C   UNL     1      -9.111  11.545  65.471  1.00  0.00    -0.101 C  
HETATM   30  C   UNL     1     -10.545  12.858  68.546  1.00  0.00    -0.270 C  
HETATM   31  O   UNL     1     -10.510  12.364  63.403  1.00  0.00    -0.426 OA 
HETATM   32  C   UNL     1     -10.063  12.646  64.522  1.00  0.00    -0.246 C  
HETATM   33  O   UNL     1     -10.233  13.992  65.090  1.00  0.00    -0.367 OA 
HETATM   34  C   UNL     1     -11.341  13.689  67.874  1.00  0.00    -0.325 C  
HETATM   35  C   UNL     1     -12.188  15.704  63.956  1.00  0.00     0.158 C  
HETATM   36  C   UNL     1     -10.778  15.466  64.606  1.00  0.00    -0.187 C  
HETATM   37  C   UNL     1     -11.024  15.095  67.818  1.00  0.00    -0.306 C  
HETATM   38  C   UNL     1     -10.796  16.461  65.849  1.00  0.00    -0.116 C  
HETATM   39  C   UNL     1     -11.672  15.820  66.908  1.00  0.00     0.437 C  
ENDROOT
BRANCH  21  40
HETATM   40  O   UNL     1     -10.307   6.493  69.882  1.00  0.00    -0.178 OA 
BRANCH  40  41
HETATM   41  C   UNL     1     -11.516   7.185  70.208  1.00  0.00    -0.247 C  
HETATM   42  C   UNL     1     -12.205   6.279  71.252  1.00  0.00     0.053 C  
HETATM   43  O   UNL     1     -11.336   6.116  72.382  1.00  0.00    -0.269 OA 
HETATM   44  H   UNL     1     -11.760   5.558  73.024  1.00  0.00     0.000 HD 
HETATM   45  N   UNL     1     -14.259   6.033  72.636  1.00  0.00    -0.329 NA 
HETATM   46  H   UNL     1     -14.863   8.422  73.388  1.00  0.00     0.000 HD 
HETATM   47  O   UNL     1     -14.401   8.939  72.737  1.00  0.00    -0.600 OA 
HETATM   48  C   UNL     1     -13.523   6.915  71.697  1.00  0.00    -0.196 C  
HETATM   49  C   UNL     1     -11.963  10.462  71.824  1.00  0.00     0.026 C  
HETATM   50  C   UNL     1     -13.201   8.303  72.287  1.00  0.00    -0.219 C  
HETATM   51  C   UNL     1     -12.448   9.147  71.225  1.00  0.00    -0.300 C  
HETATM   52  O   UNL     1     -11.279   8.498  70.705  1.00  0.00    -0.251 OA 
HETATM   53  H2  UNL     1     -15.106   6.490  72.971  1.00  0.00     0.000 HD 
HETATM   54  H1  UNL     1     -14.471   5.116  72.247  1.00  0.00     0.000 HD 
ENDBRANCH  40  41
ENDBRANCH  21  40
TORSDOF 2
ENDMDL
MODEL       19
REMARK 921   NORMALIZED FREE ENERGY PREDICTED BY IDOCK:   -2.79 KCAL/MOL
REMARK 922        TOTAL FREE ENERGY PREDICTED BY IDOCK:   -3.69 KCAL/MOL
REMARK 923 INTER-LIGAND FREE ENERGY PREDICTED BY IDOCK:   -4.42 KCAL/MOL
REMARK 924 INTRA-LIGAND FREE ENERGY PREDICTED BY IDOCK:    0.73 KCAL/MOL
REMARK 927      BINDING AFFINITY PREDICTED BY RF-SCORE:    0.00 PKD
ROOT
HETATM    1  C   UNL     1     -11.550  11.684  68.948  1.00  0.00    -0.314 C  
HETATM    2  C   UNL     1     -12.517  12.819  67.979  1.00  0.00     0.601 C  
HETATM    3  C   UNL     1     -12.046  14.497  67.671  1.00  0.00    -0.231 C  
HETATM    4  O   UNL     1     -13.039  15.293  68.411  1.00  0.00     0.930 OA 
HETATM    5  C   UNL     1     -11.996  15.413  66.182  1.00  0.00     0.473 C  
HETATM    6  H   UNL     1     -12.786  16.194  68.246  1.00  0.00     0.000 HD 
HETATM    7  C   UNL     1     -10.712  16.212  65.445  1.00  0.00    -0.358 C  
HETATM    8  O   UNL     1     -10.943  16.241  64.021  1.00  0.00    -1.106 OA 
HETATM    9  C   UNL     1     -10.360  17.739  65.575  1.00  0.00     0.041 C  
HETATM   10  H   UNL     1     -10.218  16.692  63.604  1.00  0.00     0.000 HD 
HETATM   11  C   UNL     1      -9.724  18.176  66.878  1.00  0.00    -0.318 C  
HETATM   12  O   UNL     1      -9.048  19.443  66.721  1.00  0.00    -0.304 OA 
HETATM   13  C   UNL     1      -8.687  17.161  67.394  1.00  0.00    -0.211 C  
HETATM   14  H   UNL     1      -8.649  19.717  67.539  1.00  0.00     0.000 HD 
HETATM   15  C   UNL     1      -9.089  15.715  67.035  1.00  0.00    -0.219 C  
HETATM   16  C   UNL     1      -8.750  17.324  68.891  1.00  0.00    -0.172 C  
HETATM   17  O   UNL     1      -9.480  15.543  65.703  1.00  0.00    -0.320 OA 
HETATM   18  C   UNL     1      -8.122  14.610  67.469  1.00  0.00    -0.200 C  
HETATM   19  O   UNL     1      -9.750  17.048  69.578  1.00  0.00    -0.050 OA 
HETATM   20  O   UNL     1      -7.627  17.714  69.451  1.00  0.00    -0.031 OA 
HETATM   21  C   UNL     1      -8.744  13.185  67.366  1.00  0.00    -0.206 C  
HETATM   22  O   UNL     1     -11.258  10.540  68.206  1.00  0.00    -0.278 OA 
HETATM   23  C   UNL     1      -7.975  12.125  68.106  1.00  0.00    -0.151 C  
HETATM   24  C   UNL     1      -8.191  10.807  67.994  1.00  0.00    -0.115 C  
HETATM   25  C   UNL     1     -11.585   9.779  69.302  1.00  0.00     0.167 C  
HETATM   26  C   UNL     1      -7.315   9.865  68.611  1.00  0.00    -0.074 C  
HETATM   27  C   UNL     1     -10.368   8.782  70.026  1.00  0.00    -0.213 C  
HETATM   28  C   UNL     1      -7.366   8.542  68.400  1.00  0.00    -0.094 C  
HETATM   29  C   UNL     1      -9.853   7.455  70.226  1.00  0.00    -0.187 C  
HETATM   30  C   UNL     1      -6.415   7.695  69.061  1.00  0.00    -0.040 C  
HETATM   31  O   UNL     1     -10.798   5.048  69.756  1.00  0.00    -0.018 OA 
HETATM   32  C   UNL     1      -9.813   5.723  70.081  1.00  0.00    -0.184 C  
HETATM   33  O   UNL     1      -8.545   5.082  70.463  1.00  0.00    -0.105 OA 
HETATM   34  C   UNL     1      -6.338   6.377  68.876  1.00  0.00    -0.038 C  
HETATM   35  C   UNL     1      -8.136   2.365  69.765  1.00  0.00    -0.057 C  
HETATM   36  C   UNL     1      -7.980   3.568  70.763  1.00  0.00    -0.053 C  
HETATM   37  C   UNL     1      -5.607   5.564  69.817  1.00  0.00    -0.008 C  
HETATM   38  C   UNL     1      -6.406   3.624  70.996  1.00  0.00    -0.019 C  
HETATM   39  C   UNL     1      -5.804   4.249  69.753  1.00  0.00    -0.018 C  
ENDROOT
BRANCH  21  40
HETATM   40  O   UNL     1      -9.123  12.795  66.060  1.00  0.00    -0.041 OA 
BRANCH  40  41
HETATM   41  C   UNL     1      -8.767  11.504  65.558  1.00  0.00     0.105 C  
HETATM   42  C   UNL     1      -9.615  11.346  64.276  1.00  0.00    -0.188 C  
HETATM   43  O   UNL     1      -9.293  12.406  63.364  1.00  0.00    -0.602 OA 
HETATM   44  H   UNL     1      -9.815  12.309  62.576  1.00  0.00     0.000 HD 
HETATM   45  N   UNL     1     -10.178   9.765  62.438  1.00  0.00    -0.008 NA 
HETATM   46  H   UNL     1      -7.974   8.555  61.881  1.00  0.00     0.000 HD 
HETATM   47  O   UNL     1      -7.481   8.699  62.681  1.00  0.00    -0.101 OA 
HETATM   48  C   UNL     1      -9.319   9.993  63.626  1.00  0.00    -0.253 C  
HETATM   49  C   UNL     1      -5.517  10.302  64.316  1.00  0.00    -0.131 C  
HETATM   50  C   UNL     1      -7.811   9.941  63.309  1.00  0.00    -0.146 C  
HETATM   51  C   UNL     1      -7.006  10.177  64.614  1.00  0.00    -0.121 C  
HETATM   52  O   UNL     1      -7.372  11.382  65.300  1.00  0.00     0.550 OA 
HETATM   53  H2  UNL     1      -9.934   8.888  61.979  1.00  0.00     0.000 HD 
HETATM   54  H1  UNL     1     -11.175   9.799  62.648  1.00  0.00     0.000 HD 
ENDBRANCH  40  41
ENDBRANCH  21  40
TORSDOF 2
ENDMDL
MODEL       20
REMARK 921   NORMALIZED FREE ENERGY PREDICTED BY IDOCK:   -2.47 KCAL/MOL
REMARK 922        TOTAL FREE ENERGY PREDICTED BY IDOCK:   -3.33 KCAL/MOL
REMARK 923 INTER-LIGAND FREE ENERGY PREDICTED BY IDOCK:   -3.34 KCAL/MOL
REMARK 924 INTRA-LIGAND FREE ENERGY PREDICTED BY IDOCK:    0.01 KCAL/MOL
REMARK 927      BINDING AFFINITY PREDICTED BY RF-SCORE:    0.00 PKD
ROOT
HETATM    1  C   UNL     1      -6.634  13.229  68.524  1.00  0.00    -0.089 C  
HETATM    2  C   UNL     1      -6.377  14.940  68.937  1.00  0.00    -0.087 C  
HETATM    3  C   UNL     1      -7.293  16.272  68.218  1.00  0.00    -0.145 C  
HETATM    4  O   UNL     1      -6.306  16.991  67.398  1.00  0.00    -0.129 OA 
HETATM    5  C   UNL     1      -8.096  17.637  68.962  1.00  0.00    -0.066 C  
HETATM    6  H   UNL     1      -6.797  17.707  67.012  1.00  0.00     0.000 HD 
HETATM    7  C   UNL     1      -9.706  18.119  68.888  1.00  0.00    -0.271 C  
HETATM    8  O   UNL     1     -10.031  18.833  70.099  1.00  0.00     0.414 OA 
HETATM    9  C   UNL     1     -10.320  19.187  67.911  1.00  0.00    -0.505 C  
HETATM   10  H   UNL     1     -10.940  19.105  70.057  1.00  0.00     0.000 HD 
HETATM   11  C   UNL     1     -10.511  18.755  66.472  1.00  0.00    -0.427 C  
HETATM   12  O   UNL     1     -11.464  19.606  65.800  1.00  0.00     0.188 OA 
HETATM   13  C   UNL     1     -11.025  17.308  66.358  1.00  0.00     0.222 C  
HETATM   14  H   UNL     1     -11.583  19.335  64.897  1.00  0.00     0.000 HD 
HETATM   15  C   UNL     1     -10.470  16.421  67.493  1.00  0.00    -0.304 C  
HETATM   16  C   UNL     1     -10.452  16.833  65.047  1.00  0.00     0.077 C  
HETATM   17  O   UNL     1     -10.570  16.992  68.765  1.00  0.00    -0.330 OA 
HETATM   18  C   UNL     1     -10.931  14.962  67.508  1.00  0.00    -0.302 C  
HETATM   19  O   UNL     1      -9.235  16.694  64.831  1.00  0.00     1.086 OA 
HETATM   20  O   UNL     1     -11.346  16.490  64.146  1.00  0.00    -1.060 OA 
HETATM   21  C   UNL     1     -10.087  14.069  68.466  1.00  0.00    -0.236 C  
HETATM   22  O   UNL     1      -6.913  12.491  69.674  1.00  0.00     0.072 OA 
HETATM   23  C   UNL     1     -10.267  12.591  68.245  1.00  0.00    -0.235 C  
HETATM   24  C   UNL     1      -9.816  11.636  69.071  1.00  0.00     0.032 C  
HETATM   25  C   UNL     1      -6.042  11.526  69.232  1.00  0.00    -0.068 C  
HETATM   26  C   UNL     1     -10.165  10.268  68.868  1.00  0.00    -0.220 C  
HETATM   27  C   UNL     1      -6.646   9.937  68.899  1.00  0.00    -0.045 C  
HETATM   28  C   UNL     1      -9.899   9.287  69.744  1.00  0.00    -0.202 C  
HETATM   29  C   UNL     1      -6.737   8.564  69.318  1.00  0.00    -0.050 C  
HETATM   30  C   UNL     1     -10.320   7.950  69.440  1.00  0.00    -0.220 C  
HETATM   31  O   UNL     1      -5.516   7.141  71.159  1.00  0.00    -0.027 OA 
HETATM   32  C   UNL     1      -6.436   7.186  70.333  1.00  0.00    -0.046 C  
HETATM   33  O   UNL     1      -7.292   6.016  70.086  1.00  0.00    -0.073 OA 
HETATM   34  C   UNL     1     -10.161   6.915  70.264  1.00  0.00    -0.196 C  
HETATM   35  C   UNL     1      -7.305   3.919  71.995  1.00  0.00    -0.059 C  
HETATM   36  C   UNL     1      -7.349   4.429  70.509  1.00  0.00    -0.049 C  
HETATM   37  C   UNL     1     -10.289   5.570  69.756  1.00  0.00    -0.366 C  
HETATM   38  C   UNL     1      -8.695   3.778  69.959  1.00  0.00    -0.119 C  
HETATM   39  C   UNL     1      -9.838   4.590  70.536  1.00  0.00    -0.297 C  
ENDROOT
BRANCH  21  40
HETATM   40  O   UNL     1     -10.140  14.444  69.828  1.00  0.00     0.143 OA 
BRANCH  40  41
HETATM   41  C   UNL     1     -11.303  15.087  70.358  1.00  0.00    -0.270 C  
HETATM   42  C   UNL     1     -12.165  13.926  70.902  1.00  0.00    -0.361 C  
HETATM   43  O   UNL     1     -11.421  13.213  71.900  1.00  0.00     1.672 OA 
HETATM   44  H   UNL     1     -11.952  12.499  72.234  1.00  0.00     0.000 HD 
HETATM   45  N   UNL     1     -14.350  13.392  71.969  1.00  0.00    -0.141 NA 
HETATM   46  H   UNL     1     -14.794  15.324  73.614  1.00  0.00     0.000 HD 
HETATM   47  O   UNL     1     -14.229  16.000  73.257  1.00  0.00    -0.220 OA 
HETATM   48  C   UNL     1     -13.453  14.482  71.513  1.00  0.00    -0.374 C  
HETATM   49  C   UNL     1     -11.586  17.452  73.165  1.00  0.00     0.992 C  
HETATM   50  C   UNL     1     -13.058  15.460  72.637  1.00  0.00    -0.442 C  
HETATM   51  C   UNL     1     -12.136  16.563  72.054  1.00  0.00    -0.111 C  
HETATM   52  O   UNL     1     -10.991  16.044  71.364  1.00  0.00    -0.099 OA 
HETATM   53  H2  UNL     1     -15.178  13.774  72.425  1.00  0.00     0.000 HD 
HETATM   54  H1  UNL     1     -14.611  12.746  71.226  1.00  0.00     0.000 HD 
ENDBRANCH  40  41
ENDBRANCH  21  40
TORSDOF 2
ENDMDL
MODEL       21
REMARK 921   NORMALIZED FREE ENERGY PREDICTED BY IDOCK:   -2.09 KCAL/MOL
REMARK 922        TOTAL FREE ENERGY PREDICTED BY IDOCK:   -2.91 KCAL/MOL
REMARK 923 INTER-LIGAND FREE ENERGY PREDICTED BY IDOCK:   -4.09 KCAL/MOL
REMARK 924 INTRA-LIGAND FREE ENERGY PREDICTED BY IDOCK:    1.18 KCAL/MOL
REMARK 927      BINDING AFFINITY PREDICTED BY RF-SCORE:    0.00 PKD
ROOT
HETATM    1  C   UNL     1      -6.541  11.330  68.612  1.00  0.00    -0.064 C  
HETATM    2  C   UNL     1      -7.161  12.325  69.949  1.00  0.00     0.656 C  
HETATM    3  C   UNL     1      -7.761  13.978  69.748  1.00  0.00     0.612 C  
HETATM    4  O   UNL     1      -6.769  14.812  70.445  1.00  0.00    -0.235 OA 
HETATM    5  C   UNL     1      -9.228  14.737  70.324  1.00  0.00     1.006 C  
HETATM    6  H   UNL     1      -7.091  15.699  70.337  1.00  0.00     0.000 HD 
HETATM    7  C   UNL     1     -10.461  15.499  69.468  1.00  0.00    -0.263 C  
HETATM    8  O   UNL     1     -11.688  15.374  70.217  1.00  0.00    -0.274 OA 
HETATM    9  C   UNL     1     -10.600  17.042  69.202  1.00  0.00    -0.303 C  
HETATM   10  H   UNL     1     -12.384  15.804  69.734  1.00  0.00     0.000 HD 
HETATM   11  C   UNL     1      -9.677  17.633  68.157  1.00  0.00    -0.310 C  
HETATM   12  O   UNL     1     -10.182  18.899  67.681  1.00  0.00    -0.350 OA 
HETATM   13  C   UNL     1      -9.511  16.713  66.934  1.00  0.00    -0.248 C  
HETATM   14  H   UNL     1      -9.602  19.270  67.025  1.00  0.00     0.000 HD 
HETATM   15  C   UNL     1      -9.570  15.224  67.337  1.00  0.00    -0.207 C  
HETATM   16  C   UNL     1      -8.121  17.027  66.443  1.00  0.00    -0.300 C  
HETATM   17  O   UNL     1     -10.635  14.903  68.186  1.00  0.00    -0.238 OA 
HETATM   18  C   UNL     1      -9.446  14.204  66.203  1.00  0.00    -0.229 C  
HETATM   19  O   UNL     1      -7.086  16.789  67.091  1.00  0.00    -0.151 OA 
HETATM   20  O   UNL     1      -8.063  17.510  65.223  1.00  0.00     0.402 OA 
HETATM   21  C   UNL     1      -9.187  12.755  66.716  1.00  0.00    -0.225 C  
HETATM   22  O   UNL     1      -7.241  10.127  68.540  1.00  0.00    -0.077 OA 
HETATM   23  C   UNL     1      -8.709  11.804  65.653  1.00  0.00     0.202 C  
HETATM   24  C   UNL     1      -8.622  10.474  65.802  1.00  0.00    -0.180 C  
HETATM   25  C   UNL     1      -6.045   9.472  68.378  1.00  0.00    -0.044 C  
HETATM   26  C   UNL     1      -8.308   9.632  64.695  1.00  0.00    -0.162 C  
HETATM   27  C   UNL     1      -5.757   8.597  66.911  1.00  0.00    -0.041 C  
HETATM   28  C   UNL     1      -8.374   8.293  64.727  1.00  0.00    -0.129 C  
HETATM   29  C   UNL     1      -5.658   7.315  66.267  1.00  0.00    -0.027 C  
HETATM   30  C   UNL     1      -8.056   7.552  63.541  1.00  0.00    -0.023 C  
HETATM   31  O   UNL     1      -5.535   4.842  67.146  1.00  0.00    -0.012 OA 
HETATM   32  C   UNL     1      -5.665   5.581  66.162  1.00  0.00    -0.017 C  
HETATM   33  O   UNL     1      -5.741   5.026  64.802  1.00  0.00    -0.016 OA 
HETATM   34  C   UNL     1      -8.147   6.225  63.446  1.00  0.00    -0.048 C  
HETATM   35  C   UNL     1      -6.315   2.267  64.493  1.00  0.00    -0.019 C  
HETATM   36  C   UNL     1      -5.553   3.571  64.060  1.00  0.00    -0.010 C  
HETATM   37  C   UNL     1      -7.490   5.539  62.360  1.00  0.00    -0.052 C  
HETATM   38  C   UNL     1      -5.941   3.704  62.521  1.00  0.00    -0.013 C  
HETATM   39  C   UNL     1      -7.366   4.218  62.473  1.00  0.00    -0.044 C  
ENDROOT
BRANCH  21  40
HETATM   40  O   UNL     1     -10.215  12.220  67.528  1.00  0.00    -0.201 OA 
BRANCH  40  41
HETATM   41  C   UNL     1      -9.993  11.025  68.283  1.00  0.00    -0.179 C  
HETATM   42  C   UNL     1     -10.964  11.144  69.479  1.00  0.00    -0.220 C  
HETATM   43  O   UNL     1     -12.308  11.249  68.986  1.00  0.00    -0.446 OA 
HETATM   44  H   UNL     1     -12.905  11.323  69.722  1.00  0.00     0.000 HD 
HETATM   45  N   UNL     1     -11.688  10.025  71.580  1.00  0.00    -0.287 NA 
HETATM   46  H   UNL     1     -11.646   7.503  71.059  1.00  0.00     0.000 HD 
HETATM   47  O   UNL     1     -11.062   7.483  70.309  1.00  0.00    -0.257 OA 
HETATM   48  C   UNL     1     -10.834   9.910  70.373  1.00  0.00    -0.319 C  
HETATM   49  C   UNL     1     -10.592   7.521  67.329  1.00  0.00    -0.394 C  
HETATM   50  C   UNL     1     -11.152   8.670  69.515  1.00  0.00     0.033 C  
HETATM   51  C   UNL     1     -10.199   8.636  68.292  1.00  0.00    -0.198 C  
HETATM   52  O   UNL     1     -10.218   9.845  67.520  1.00  0.00    -0.188 OA 
HETATM   53  H2  UNL     1     -11.638   9.174  72.140  1.00  0.00     0.000 HD 
HETATM   54  H1  UNL     1     -11.478  10.845  72.148  1.00  0.00     0.000 HD 
ENDBRANCH  40  41
ENDBRANCH  21  40
TORSDOF 2
ENDMDL
MODEL       22
REMARK 921   NORMALIZED FREE ENERGY PREDICTED BY IDOCK:   -2.07 KCAL/MOL
REMARK 922        TOTAL FREE ENERGY PREDICTED BY IDOCK:   -2.89 KCAL/MOL
REMARK 923 INTER-LIGAND FREE ENERGY PREDICTED BY IDOCK:   -3.95 KCAL/MOL
REMARK 924 INTRA-LIGAND FREE ENERGY PREDICTED BY IDOCK:    1.06 KCAL/MOL
REMARK 927      BINDING AFFINITY PREDICTED BY RF-SCORE:    0.00 PKD
ROOT
HETATM    1  C   UNL     1     -11.090  10.367  66.795  1.00  0.00     0.048 C  
HETATM    2  C   UNL     1     -10.910  11.639  65.566  1.00  0.00    -0.334 C  
HETATM    3  C   UNL     1     -10.935  13.370  65.931  1.00  0.00    -0.274 C  
HETATM    4  O   UNL     1     -12.182  13.852  65.315  1.00  0.00    -0.386 OA 
HETATM    5  C   UNL     1      -9.857  14.656  65.440  1.00  0.00    -0.280 C  
HETATM    6  H   UNL     1     -12.196  14.782  65.512  1.00  0.00     0.000 HD 
HETATM    7  C   UNL     1      -8.954  15.728  66.372  1.00  0.00    -0.331 C  
HETATM    8  O   UNL     1      -7.787  16.123  65.620  1.00  0.00     0.509 OA 
HETATM    9  C   UNL     1      -9.368  17.186  66.789  1.00  0.00    -0.268 C  
HETATM   10  H   UNL     1      -7.276  16.727  66.146  1.00  0.00     0.000 HD 
HETATM   11  C   UNL     1     -10.409  17.304  67.883  1.00  0.00    -0.360 C  
HETATM   12  O   UNL     1     -10.377  18.617  68.484  1.00  0.00    -0.360 OA 
HETATM   13  C   UNL     1     -10.195  16.276  69.009  1.00  0.00    -0.261 C  
HETATM   14  H   UNL     1     -11.030  18.691  69.171  1.00  0.00     0.000 HD 
HETATM   15  C   UNL     1      -9.619  14.953  68.461  1.00  0.00    -0.215 C  
HETATM   16  C   UNL     1     -11.590  16.021  69.522  1.00  0.00    -0.304 C  
HETATM   17  O   UNL     1      -8.538  15.117  67.590  1.00  0.00    -0.160 OA 
HETATM   18  C   UNL     1      -9.334  13.855  69.489  1.00  0.00     0.844 C  
HETATM   19  O   UNL     1     -12.491  15.489  68.849  1.00  0.00    -0.042 OA 
HETATM   20  O   UNL     1     -11.779  16.335  70.784  1.00  0.00    -0.351 OA 
HETATM   21  C   UNL     1      -9.072  12.465  68.834  1.00  0.00     0.301 C  
HETATM   22  O   UNL     1     -10.003   9.495  66.752  1.00  0.00    -0.201 OA 
HETATM   23  C   UNL     1      -9.144  11.310  69.797  1.00  0.00     1.119 C  
HETATM   24  C   UNL     1      -8.753  10.059  69.517  1.00  0.00    -0.205 C  
HETATM   25  C   UNL     1     -10.879   8.442  66.843  1.00  0.00     0.089 C  
HETATM   26  C   UNL     1      -8.710   9.060  70.535  1.00  0.00    -0.238 C  
HETATM   27  C   UNL     1     -10.788   7.388  68.215  1.00  0.00    -0.081 C  
HETATM   28  C   UNL     1      -8.169   7.844  70.371  1.00  0.00    -0.119 C  
HETATM   29  C   UNL     1     -10.401   6.103  68.730  1.00  0.00    -0.256 C  
HETATM   30  C   UNL     1      -8.164   6.930  71.476  1.00  0.00    -0.110 C  
HETATM   31  O   UNL     1      -9.657   3.845  67.611  1.00  0.00    -0.186 OA 
HETATM   32  C   UNL     1      -9.769   4.485  68.664  1.00  0.00    -0.134 C  
HETATM   33  O   UNL     1      -9.458   3.870  69.963  1.00  0.00    -0.160 OA 
HETATM   34  C   UNL     1      -7.600   5.723  71.441  1.00  0.00    -0.105 C  
HETATM   35  C   UNL     1      -7.923   1.487  70.001  1.00  0.00    -0.051 C  
HETATM   36  C   UNL     1      -9.088   2.383  70.557  1.00  0.00    -0.109 C  
HETATM   37  C   UNL     1      -7.933   4.748  72.451  1.00  0.00    -0.099 C  
HETATM   38  C   UNL     1      -8.726   2.502  72.104  1.00  0.00    -0.096 C  
HETATM   39  C   UNL     1      -7.579   3.488  72.208  1.00  0.00    -0.058 C  
ENDROOT
BRANCH  21  40
HETATM   40  O   UNL     1      -7.947  12.414  67.979  1.00  0.00    -0.134 OA 
BRANCH  40  41
HETATM   41  C   UNL     1      -7.623  11.208  67.279  1.00  0.00    -0.126 C  
HETATM   42  C   UNL     1      -6.929  11.692  65.987  1.00  0.00     0.534 C  
HETATM   43  O   UNL     1      -5.769  12.462  66.335  1.00  0.00    -0.374 OA 
HETATM   44  H   UNL     1      -5.342  12.760  65.540  1.00  0.00     0.000 HD 
HETATM   45  N   UNL     1      -5.924  10.910  63.849  1.00  0.00    -0.336 NA 
HETATM   46  H   UNL     1      -4.701   8.719  64.432  1.00  0.00     0.000 HD 
HETATM   47  O   UNL     1      -5.141   8.475  65.238  1.00  0.00    -0.034 OA 
HETATM   48  C   UNL     1      -6.517  10.486  65.141  1.00  0.00    -0.052 C  
HETATM   49  C   UNL     1      -5.333   8.494  68.249  1.00  0.00    -0.034 C  
HETATM   50  C   UNL     1      -5.573   9.613  65.990  1.00  0.00    -0.048 C  
HETATM   51  C   UNL     1      -6.291   9.215  67.306  1.00  0.00    -0.059 C  
HETATM   52  O   UNL     1      -6.796  10.337  68.043  1.00  0.00    -0.069 OA 
HETATM   53  H2  UNL     1      -5.601  10.102  63.317  1.00  0.00     0.000 HD 
HETATM   54  H1  UNL     1      -6.548  11.487  63.287  1.00  0.00     0.000 HD 
ENDBRANCH  40  41
ENDBRANCH  21  40
TORSDOF 2
ENDMDL
MODEL       23
REMARK 921   NORMALIZED FREE ENERGY PREDICTED BY IDOCK:    1.32 KCAL/MOL
REMARK 922        TOTAL FREE ENERGY PREDICTED BY IDOCK:    0.90 KCAL/MOL
REMARK 923 INTER-LIGAND FREE ENERGY PREDICTED BY IDOCK:    0.22 KCAL/MOL
REMARK 924 INTRA-LIGAND FREE ENERGY PREDICTED BY IDOCK:    0.68 KCAL/MOL
REMARK 927      BINDING AFFINITY PREDICTED BY RF-SCORE:    0.00 PKD
ROOT
HETATM    1  C   UNL     1     -11.167  14.417  69.757  1.00  0.00    -0.205 C  
HETATM    2  C   UNL     1     -11.632  15.786  68.722  1.00  0.00    -0.401 C  
HETATM    3  C   UNL     1     -10.606  17.200  68.444  1.00  0.00    -0.371 C  
HETATM    4  O   UNL     1     -11.317  18.301  69.112  1.00  0.00     1.027 OA 
HETATM    5  C   UNL     1     -10.156  18.009  66.960  1.00  0.00    -0.348 C  
HETATM    6  H   UNL     1     -10.767  19.061  68.964  1.00  0.00     0.000 HD 
HETATM    7  C   UNL     1      -8.633  18.312  66.311  1.00  0.00    -0.184 C  
HETATM    8  O   UNL     1      -8.749  18.382  64.874  1.00  0.00     2.137 OA 
HETATM    9  C   UNL     1      -7.797  19.635  66.462  1.00  0.00    -0.311 C  
HETATM   10  H   UNL     1      -7.890  18.553  64.507  1.00  0.00     0.000 HD 
HETATM   11  C   UNL     1      -7.135  19.866  67.804  1.00  0.00    -0.274 C  
HETATM   12  O   UNL     1      -6.064  20.828  67.692  1.00  0.00    -0.230 OA 
HETATM   13  C   UNL     1      -6.536  18.575  68.392  1.00  0.00    -0.226 C  
HETATM   14  H   UNL     1      -5.649  20.973  68.535  1.00  0.00     0.000 HD 
HETATM   15  C   UNL     1      -7.376  17.339  68.009  1.00  0.00    -0.192 C  
HETATM   16  C   UNL     1      -6.636  18.787  69.881  1.00  0.00     0.016 C  
HETATM   17  O   UNL     1      -7.717  17.276  66.654  1.00  0.00    -0.212 OA 
HETATM   18  C   UNL     1      -6.868  15.985  68.510  1.00  0.00    -0.129 C  
HETATM   19  O   UNL     1      -7.711  18.879  70.499  1.00  0.00     1.621 OA 
HETATM   20  O   UNL     1      -5.485  18.790  70.516  1.00  0.00    -0.219 OA 
HETATM   21  C   UNL     1      -7.925  14.849  68.368  1.00  0.00    -0.134 C  
HETATM   22  O   UNL     1     -11.231  13.223  69.039  1.00  0.00    -0.256 OA 
HETATM   23  C   UNL     1      -7.607  13.611  69.161  1.00  0.00     0.140 C  
HETATM   24  C   UNL     1      -8.246  12.439  69.036  1.00  0.00     0.346 C  
HETATM   25  C   UNL     1     -11.864  12.644  70.111  1.00  0.00    -0.249 C  
HETATM   26  C   UNL     1      -7.779  11.274  69.714  1.00  0.00     0.510 C  
HETATM   27  C   UNL     1     -11.102  11.314  70.918  1.00  0.00     1.262 C  
HETATM   28  C   UNL     1      -8.259  10.040  69.502  1.00  0.00    -0.173 C  
HETATM   29  C   UNL     1     -11.078   9.896  71.156  1.00  0.00    -0.359 C  
HETATM   30  C   UNL     1      -7.693   8.940  70.228  1.00  0.00    -0.090 C  
HETATM   31  O   UNL     1     -12.746   7.935  70.626  1.00  0.00     0.098 OA 
HETATM   32  C   UNL     1     -11.614   8.248  71.016  1.00  0.00    -0.275 C  
HETATM   33  O   UNL     1     -10.663   7.229  71.486  1.00  0.00    -0.219 OA 
HETATM   34  C   UNL     1      -8.052   7.668  70.051  1.00  0.00    -0.120 C  
HETATM   35  C   UNL     1     -11.149   4.515  70.822  1.00  0.00     1.548 C  
HETATM   36  C   UNL     1     -10.661   5.621  71.827  1.00  0.00    -0.238 C  
HETATM   37  C   UNL     1      -7.699   6.680  71.042  1.00  0.00    -0.097 C  
HETATM   38  C   UNL     1      -9.178   5.150  72.166  1.00  0.00    -0.154 C  
HETATM   39  C   UNL     1      -8.322   5.506  70.967  1.00  0.00    -0.121 C  
ENDROOT
BRANCH  21  40
HETATM   40  O   UNL     1      -8.329  14.577  67.040  1.00  0.00    -0.206 OA 
BRANCH  40  41
HETATM   41  C   UNL     1      -9.332  13.592  66.776  1.00  0.00    -0.257 C  
HETATM   42  C   UNL     1     -10.533  14.404  66.242  1.00  0.00    -0.290 C  
HETATM   43  O   UNL     1     -10.133  15.119  65.064  1.00  0.00    -0.334 OA 
HETATM   44  H   UNL     1     -10.872  15.618  64.736  1.00  0.00     0.000 HD 
HETATM   45  N   UNL     1     -12.892  14.206  65.472  1.00  0.00    -0.631 NA 
HETATM   46  H   UNL     1     -12.995  11.997  64.151  1.00  0.00     0.000 HD 
HETATM   47  O   UNL     1     -12.231  11.547  64.492  1.00  0.00     0.033 OA 
HETATM   48  C   UNL     1     -11.688  13.457  65.907  1.00  0.00    -0.356 C  
HETATM   49  C   UNL     1      -9.304  10.831  64.340  1.00  0.00    -0.279 C  
HETATM   50  C   UNL     1     -11.182  12.449  64.856  1.00  0.00    -0.311 C  
HETATM   51  C   UNL     1      -9.935  11.713  65.412  1.00  0.00    -0.250 C  
HETATM   52  O   UNL     1      -8.897  12.600  65.851  1.00  0.00     0.183 OA 
HETATM   53  H2  UNL     1     -13.636  13.565  65.197  1.00  0.00     0.000 HD 
HETATM   54  H1  UNL     1     -13.226  14.873  66.167  1.00  0.00     0.000 HD 
ENDBRANCH  40  41
ENDBRANCH  21  40
TORSDOF 2
ENDMDL
MODEL       24
REMARK 921   NORMALIZED FREE ENERGY PREDICTED BY IDOCK:    3.10 KCAL/MOL
REMARK 922        TOTAL FREE ENERGY PREDICTED BY IDOCK:    2.89 KCAL/MOL
REMARK 923 INTER-LIGAND FREE ENERGY PREDICTED BY IDOCK:    2.68 KCAL/MOL
REMARK 924 INTRA-LIGAND FREE ENERGY PREDICTED BY IDOCK:    0.22 KCAL/MOL
REMARK 927      BINDING AFFINITY PREDICTED BY RF-SCORE:    0.00 PKD
ROOT
HETATM    1  C   UNL     1      -6.681  10.722  66.861  1.00  0.00    -0.099 C  
HETATM    2  C   UNL     1      -7.327   9.241  66.119  1.00  0.00    -0.095 C  
HETATM    3  C   UNL     1      -8.075   7.927  67.039  1.00  0.00    -0.116 C  
HETATM    4  O   UNL     1      -7.129   6.807  66.906  1.00  0.00    -0.071 OA 
HETATM    5  C   UNL     1      -9.576   7.066  66.784  1.00  0.00    -0.221 C  
HETATM    6  H   UNL     1      -7.531   6.101  67.400  1.00  0.00     0.000 HD 
HETATM    7  C   UNL     1     -10.905   6.880  67.800  1.00  0.00    -0.241 C  
HETATM    8  O   UNL     1     -12.084   6.696  66.989  1.00  0.00     0.324 OA 
HETATM    9  C   UNL     1     -11.187   5.668  68.760  1.00  0.00     0.281 C  
HETATM   10  H   UNL     1     -12.834   6.591  67.563  1.00  0.00     0.000 HD 
HETATM   11  C   UNL     1     -10.363   5.606  70.029  1.00  0.00    -0.275 C  
HETATM   12  O   UNL     1     -10.994   4.757  71.013  1.00  0.00     0.189 OA 
HETATM   13  C   UNL     1     -10.170   6.992  70.672  1.00  0.00    -0.205 C  
HETATM   14  H   UNL     1     -10.477   4.718  71.809  1.00  0.00     0.000 HD 
HETATM   15  C   UNL     1     -10.085   8.101  69.602  1.00  0.00    -0.199 C  
HETATM   16  C   UNL     1      -8.834   6.878  71.360  1.00  0.00    -0.133 C  
HETATM   17  O   UNL     1     -11.081   8.030  68.623  1.00  0.00     0.119 OA 
HETATM   18  C   UNL     1      -9.921   9.534  70.116  1.00  0.00    -0.285 C  
HETATM   19  O   UNL     1      -7.756   6.716  70.761  1.00  0.00    -0.094 OA 
HETATM   20  O   UNL     1      -8.869   7.042  72.664  1.00  0.00    -0.123 OA 
HETATM   21  C   UNL     1      -9.518  10.538  68.994  1.00  0.00    -0.201 C  
HETATM   22  O   UNL     1      -7.278  11.847  66.294  1.00  0.00     0.190 OA 
HETATM   23  C   UNL     1      -9.005  11.857  69.506  1.00  0.00     1.244 C  
HETATM   24  C   UNL     1      -8.798  12.942  68.747  1.00  0.00     0.180 C  
HETATM   25  C   UNL     1      -6.038  12.432  66.215  1.00  0.00     1.672 C  
HETATM   26  C   UNL     1      -8.460  14.195  69.336  1.00  0.00     0.449 C  
HETATM   27  C   UNL     1      -5.738  13.890  67.102  1.00  0.00     0.819 C  
HETATM   28  C   UNL     1      -8.410  15.354  68.662  1.00  0.00    -0.168 C  
HETATM   29  C   UNL     1      -5.557  15.315  67.061  1.00  0.00     0.827 C  
HETATM   30  C   UNL     1      -8.079  16.557  69.369  1.00  0.00     0.048 C  
HETATM   31  O   UNL     1      -5.185  17.045  65.117  1.00  0.00     0.645 OA 
HETATM   32  C   UNL     1      -5.420  16.882  66.322  1.00  0.00     0.263 C  
HETATM   33  O   UNL     1      -5.505  18.028  67.240  1.00  0.00    -0.125 OA 
HETATM   34  C   UNL     1      -8.061  17.767  68.811  1.00  0.00    -0.228 C  
HETATM   35  C   UNL     1      -5.853  20.620  66.145  1.00  0.00    -0.240 C  
HETATM   36  C   UNL     1      -5.225  19.647  67.207  1.00  0.00    -0.161 C  
HETATM   37  C   UNL     1      -7.393  18.855  69.484  1.00  0.00     0.026 C  
HETATM   38  C   UNL     1      -5.687  20.296  68.587  1.00  0.00    -0.303 C  
HETATM   39  C   UNL     1      -7.152  19.948  68.762  1.00  0.00    -0.332 C  
ENDROOT
BRANCH  21  40
HETATM   40  O   UNL     1     -10.460  10.669  67.948  1.00  0.00    -0.184 OA 
BRANCH  40  41
HETATM   41  C   UNL     1     -10.422  11.804  67.077  1.00  0.00    -0.220 C  
HETATM   42  C   UNL     1     -10.466  11.197  65.657  1.00  0.00    -0.248 C  
HETATM   43  O   UNL     1     -11.666  10.425  65.511  1.00  0.00     1.325 OA 
HETATM   44  H   UNL     1     -11.693  10.051  64.638  1.00  0.00     0.000 HD 
HETATM   45  N   UNL     1     -10.392  11.773  63.237  1.00  0.00    -0.587 NA 
HETATM   46  H   UNL     1     -11.723  13.968  63.019  1.00  0.00     0.000 HD 
HETATM   47  O   UNL     1     -11.691  14.289  63.912  1.00  0.00    -0.229 OA 
HETATM   48  C   UNL     1     -10.439  12.318  64.616  1.00  0.00    -0.303 C  
HETATM   49  C   UNL     1     -12.874  14.520  66.677  1.00  0.00     0.747 C  
HETATM   50  C   UNL     1     -11.656  13.229  64.873  1.00  0.00    -0.325 C  
HETATM   51  C   UNL     1     -11.603  13.754  66.331  1.00  0.00    -0.360 C  
HETATM   52  O   UNL     1     -11.495  12.711  67.310  1.00  0.00    -0.301 OA 
HETATM   53  H2  UNL     1     -10.433  12.525  62.550  1.00  0.00     0.000 HD 
HETATM   54  H1  UNL     1      -9.588  11.170  63.067  1.00  0.00     0.000 HD 
ENDBRANCH  40  41
ENDBRANCH  21  40
TORSDOF 2
ENDMDL
MODEL       25
REMARK 921   NORMALIZED FREE ENERGY PREDICTED BY IDOCK:    4.72 KCAL/MOL
REMARK 922        TOTAL FREE ENERGY PREDICTED BY IDOCK:    4.69 KCAL/MOL
REMARK 923 INTER-LIGAND FREE ENERGY PREDICTED BY IDOCK:    1.88 KCAL/MOL
REMARK 924 INTRA-LIGAND FREE ENERGY PREDICTED BY IDOCK:    2.81 KCAL/MOL
REMARK 927      BINDING AFFINITY PREDICTED BY RF-SCORE:    0.00 PKD
ROOT
HETATM    1  C   UNL     1      -9.655  11.214  64.822  1.00  0.00    -0.240 C  
HETATM    2  C   UNL     1      -9.163  12.863  64.374  1.00  0.00     1.214 C  
HETATM    3  C   UNL     1      -9.612  14.306  65.294  1.00  0.00     0.140 C  
HETATM    4  O   UNL     1     -10.530  15.034  64.403  1.00  0.00    -0.474 OA 
HETATM    5  C   UNL     1      -8.641  15.646  65.861  1.00  0.00     0.261 C  
HETATM    6  H   UNL     1     -10.771  15.809  64.897  1.00  0.00     0.000 HD 
HETATM    7  C   UNL     1      -8.405  16.230  67.421  1.00  0.00    -0.169 C  
HETATM    8  O   UNL     1      -7.105  16.853  67.490  1.00  0.00    -0.136 OA 
HETATM    9  C   UNL     1      -9.180  17.414  68.105  1.00  0.00    -0.270 C  
HETATM   10  H   UNL     1      -6.972  17.182  68.371  1.00  0.00     0.000 HD 
HETATM   11  C   UNL     1     -10.594  17.123  68.560  1.00  0.00    -0.361 C  
HETATM   12  O   UNL     1     -11.028  18.086  69.544  1.00  0.00     0.135 OA 
HETATM   13  C   UNL     1     -10.730  15.725  69.193  1.00  0.00    -0.246 C  
HETATM   14  H   UNL     1     -11.916  17.903  69.830  1.00  0.00     0.000 HD 
HETATM   15  C   UNL     1      -9.776  14.711  68.527  1.00  0.00    -0.225 C  
HETATM   16  C   UNL     1     -12.151  15.333  68.878  1.00  0.00    -0.192 C  
HETATM   17  O   UNL     1      -8.465  15.172  68.375  1.00  0.00    -0.146 OA 
HETATM   18  C   UNL     1      -9.795  13.286  69.087  1.00  0.00     0.387 C  
HETATM   19  O   UNL     1     -12.580  15.141  67.727  1.00  0.00     0.522 OA 
HETATM   20  O   UNL     1     -12.911  15.125  69.930  1.00  0.00    -0.085 OA 
HETATM   21  C   UNL     1      -9.065  12.263  68.166  1.00  0.00    -0.196 C  
HETATM   22  O   UNL     1      -8.535  10.396  64.963  1.00  0.00    -0.169 OA 
HETATM   23  C   UNL     1      -9.364  10.824  68.489  1.00  0.00    -0.174 C  
HETATM   24  C   UNL     1      -8.702   9.775  67.981  1.00  0.00    -0.118 C  
HETATM   25  C   UNL     1      -9.189   9.422  64.250  1.00  0.00    -0.012 C  
HETATM   26  C   UNL     1      -8.946   8.453  68.459  1.00  0.00    -0.136 C  
HETATM   27  C   UNL     1      -9.536   7.908  65.017  1.00  0.00     1.409 C  
HETATM   28  C   UNL     1      -8.206   7.385  68.127  1.00  0.00    -0.124 C  
HETATM   29  C   UNL     1      -9.214   6.512  65.140  1.00  0.00     0.545 C  
HETATM   30  C   UNL     1      -8.536   6.108  68.690  1.00  0.00    -0.114 C  
HETATM   31  O   UNL     1      -7.720   4.862  63.743  1.00  0.00    -0.069 OA 
HETATM   32  C   UNL     1      -8.373   5.034  64.780  1.00  0.00    -0.140 C  
HETATM   33  O   UNL     1      -8.560   3.944  65.750  1.00  0.00    -0.109 OA 
HETATM   34  C   UNL     1      -7.832   4.996  68.476  1.00  0.00    -0.082 C  
HETATM   35  C   UNL     1      -6.842   1.693  65.607  1.00  0.00    -0.034 C  
HETATM   36  C   UNL     1      -8.256   2.333  65.854  1.00  0.00    -0.089 C  
HETATM   37  C   UNL     1      -8.412   3.712  68.785  1.00  0.00    -0.102 C  
HETATM   38  C   UNL     1      -8.619   1.816  67.317  1.00  0.00    -0.110 C  
HETATM   39  C   UNL     1      -7.797   2.641  68.287  1.00  0.00    -0.056 C  
ENDROOT
BRANCH  21  40
HETATM   40  O   UNL     1      -7.688  12.520  67.967  1.00  0.00    -0.117 OA 
BRANCH  40  41
HETATM   41  C   UNL     1      -6.721  12.051  68.911  1.00  0.00    -0.093 C  
HETATM   42  C   UNL     1      -6.512  13.246  69.868  1.00  0.00     0.016 C  
HETATM   43  O   UNL     1      -7.765  13.585  70.479  1.00  0.00     1.436 OA 
HETATM   44  H   UNL     1      -7.636  14.320  71.067  1.00  0.00     0.000 HD 
HETATM   45  N   UNL     1      -5.199  14.021  71.835  1.00  0.00    -0.177 NA 
HETATM   46  H   UNL     1      -4.966  11.955  73.356  1.00  0.00     0.000 HD 
HETATM   47  O   UNL     1      -5.126  11.253  72.735  1.00  0.00    -0.329 OA 
HETATM   48  C   UNL     1      -5.493  12.870  70.946  1.00  0.00    -0.185 C  
HETATM   49  C   UNL     1      -6.989   9.318  71.363  1.00  0.00     0.022 C  
HETATM   50  C   UNL     1      -6.034  11.639  71.699  1.00  0.00     1.252 C  
HETATM   51  C   UNL     1      -6.295  10.494  70.685  1.00  0.00    -0.037 C  
HETATM   52  O   UNL     1      -7.147  10.878  69.597  1.00  0.00    -0.134 OA 
HETATM   53  H2  UNL     1      -4.564  13.745  72.584  1.00  0.00     0.000 HD 
HETATM   54  H1  UNL     1      -4.841  14.835  71.338  1.00  0.00     0.000 HD 
ENDBRANCH  40  41
ENDBRANCH  21  40
TORSDOF 2
ENDMDL
MODEL       26
REMARK 921   NORMALIZED FREE ENERGY PREDICTED BY IDOCK:    4.97 KCAL/MOL
REMARK 922        TOTAL FREE ENERGY PREDICTED BY IDOCK:    4.98 KCAL/MOL
REMARK 923 INTER-LIGAND FREE ENERGY PREDICTED BY IDOCK:    0.97 KCAL/MOL
REMARK 924 INTRA-LIGAND FREE ENERGY PREDICTED BY IDOCK:    4.00 KCAL/MOL
REMARK 927      BINDING AFFINITY PREDICTED BY RF-SCORE:    0.00 PKD
ROOT
HETATM    1  C   UNL     1     -10.378  10.865  65.348  1.00  0.00    -0.261 C  
HETATM    2  C   UNL     1      -9.951  12.362  64.488  1.00  0.00    -0.202 C  
HETATM    3  C   UNL     1     -10.292  13.983  65.109  1.00  0.00    -0.400 C  
HETATM    4  O   UNL     1     -11.314  14.515  64.194  1.00  0.00    -0.614 OA 
HETATM    5  C   UNL     1      -9.265  15.393  65.241  1.00  0.00     0.637 C  
HETATM    6  H   UNL     1     -11.498  15.386  64.527  1.00  0.00     0.000 HD 
HETATM    7  C   UNL     1      -8.844  16.304  66.592  1.00  0.00    -0.254 C  
HETATM    8  O   UNL     1      -7.548  16.897  66.364  1.00  0.00    -0.262 OA 
HETATM    9  C   UNL     1      -9.535  17.628  67.082  1.00  0.00    -0.267 C  
HETATM   10  H   UNL     1      -7.310  17.411  67.126  1.00  0.00     0.000 HD 
HETATM   11  C   UNL     1     -10.883  17.477  67.756  1.00  0.00    -0.249 C  
HETATM   12  O   UNL     1     -11.198  18.645  68.544  1.00  0.00     0.151 OA 
HETATM   13  C   UNL     1     -10.934  16.259  68.696  1.00  0.00    -0.340 C  
HETATM   14  H   UNL     1     -12.044  18.550  68.967  1.00  0.00     0.000 HD 
HETATM   15  C   UNL     1     -10.064  15.100  68.165  1.00  0.00    -0.222 C  
HETATM   16  C   UNL     1     -12.381  15.839  68.650  1.00  0.00     0.391 C  
HETATM   17  O   UNL     1      -8.783  15.487  67.758  1.00  0.00    -0.164 OA 
HETATM   18  C   UNL     1     -10.008  13.837  69.027  1.00  0.00     0.052 C  
HETATM   19  O   UNL     1     -12.946  15.405  67.630  1.00  0.00     1.781 OA 
HETATM   20  O   UNL     1     -13.007  15.888  69.804  1.00  0.00     0.007 OA 
HETATM   21  C   UNL     1      -9.391  12.618  68.277  1.00  0.00    -0.195 C  
HETATM   22  O   UNL     1      -9.245  10.074  65.534  1.00  0.00    -0.170 OA 
HETATM   23  C   UNL     1      -9.641  11.294  68.947  1.00  0.00    -0.119 C  
HETATM   24  C   UNL     1      -9.041  10.143  68.612  1.00  0.00    -0.143 C  
HETATM   25  C   UNL     1      -9.977   8.981  65.140  1.00  0.00     0.775 C  
HETATM   26  C   UNL     1      -9.220   8.967  69.399  1.00  0.00    -0.150 C  
HETATM   27  C   UNL     1     -10.221   7.684  66.262  1.00  0.00     0.155 C  
HETATM   28  C   UNL     1      -8.521   7.836  69.228  1.00  0.00    -0.138 C  
HETATM   29  C   UNL     1      -9.880   6.343  66.654  1.00  0.00    -0.203 C  
HETATM   30  C   UNL     1      -8.773   6.723  70.098  1.00  0.00    -0.141 C  
HETATM   31  O   UNL     1      -8.559   4.390  65.493  1.00  0.00    -0.117 OA 
HETATM   32  C   UNL     1      -9.082   4.804  66.536  1.00  0.00    -0.121 C  
HETATM   33  O   UNL     1      -9.145   3.961  67.740  1.00  0.00    -0.126 OA 
HETATM   34  C   UNL     1      -8.096   5.576  70.055  1.00  0.00    -0.090 C  
HETATM   35  C   UNL     1      -7.447   1.696  67.899  1.00  0.00    -0.053 C  
HETATM   36  C   UNL     1      -8.823   2.407  68.165  1.00  0.00    -0.122 C  
HETATM   37  C   UNL     1      -8.628   4.406  70.710  1.00  0.00    -0.117 C  
HETATM   38  C   UNL     1      -9.003   2.236  69.738  1.00  0.00    -0.154 C  
HETATM   39  C   UNL     1      -8.073   3.238  70.394  1.00  0.00    -0.058 C  
ENDROOT
BRANCH  21  40
HETATM   40  O   UNL     1      -8.049  12.793  67.864  1.00  0.00    -0.134 OA 
BRANCH  40  41
HETATM   41  C   UNL     1      -6.976  12.615  68.792  1.00  0.00    -0.096 C  
HETATM   42  C   UNL     1      -6.991  13.903  69.644  1.00  0.00     0.075 C  
HETATM   43  O   UNL     1      -8.268  14.028  70.288  1.00  0.00     0.889 OA 
HETATM   44  H   UNL     1      -8.277  14.821  70.812  1.00  0.00     0.000 HD 
HETATM   45  N   UNL     1      -5.809  15.095  71.481  1.00  0.00     0.260 NA 
HETATM   46  H   UNL     1      -5.100  13.258  73.142  1.00  0.00     0.000 HD 
HETATM   47  O   UNL     1      -5.130  12.489  72.584  1.00  0.00    -0.365 OA 
HETATM   48  C   UNL     1      -5.883  13.838  70.698  1.00  0.00    -0.187 C  
HETATM   49  C   UNL     1      -6.589  10.102  71.455  1.00  0.00     0.563 C  
HETATM   50  C   UNL     1      -6.131  12.590  71.567  1.00  0.00     1.433 C  
HETATM   51  C   UNL     1      -6.178  11.334  70.657  1.00  0.00     0.120 C  
HETATM   52  O   UNL     1      -7.125  11.442  69.585  1.00  0.00    -0.080 OA 
HETATM   53  H2  UNL     1      -5.106  15.021  72.217  1.00  0.00     0.000 HD 
HETATM   54  H1  UNL     1      -5.645  15.921  70.907  1.00  0.00     0.000 HD 
ENDBRANCH  40  41
ENDBRANCH  21  40
TORSDOF 2
ENDMDL
MODEL       27
REMARK 921   NORMALIZED FREE ENERGY PREDICTED BY IDOCK:    6.28 KCAL/MOL
REMARK 922        TOTAL FREE ENERGY PREDICTED BY IDOCK:    6.44 KCAL/MOL
REMARK 923 INTER-LIGAND FREE ENERGY PREDICTED BY IDOCK:    3.77 KCAL/MOL
REMARK 924 INTRA-LIGAND FREE ENERGY PREDICTED BY IDOCK:    2.67 KCAL/MOL
REMARK 927      BINDING AFFINITY PREDICTED BY RF-SCORE:    0.00 PKD
ROOT
HETATM    1  C   UNL     1     -10.968  13.967  70.491  1.00  0.00     0.796 C  
HETATM    2  C   UNL     1     -11.861  15.428  70.011  1.00  0.00    -0.368 C  
HETATM    3  C   UNL     1     -11.092  16.870  69.332  1.00  0.00     0.032 C  
HETATM    4  O   UNL     1     -11.260  17.895  70.375  1.00  0.00     1.071 OA 
HETATM    5  C   UNL     1     -11.499  17.825  67.924  1.00  0.00     0.784 C  
HETATM    6  H   UNL     1     -10.848  18.670  70.011  1.00  0.00     0.000 HD 
HETATM    7  C   UNL     1     -10.577  18.201  66.568  1.00  0.00    -0.272 C  
HETATM    8  O   UNL     1     -11.464  18.411  65.450  1.00  0.00     0.578 OA 
HETATM    9  C   UNL     1      -9.733  19.509  66.342  1.00  0.00    -0.485 C  
HETATM   10  H   UNL     1     -10.944  18.624  64.684  1.00  0.00     0.000 HD 
HETATM   11  C   UNL     1      -8.429  19.611  67.105  1.00  0.00    -0.304 C  
HETATM   12  O   UNL     1      -7.553  20.587  66.501  1.00  0.00    -0.439 OA 
HETATM   13  C   UNL     1      -7.669  18.273  67.148  1.00  0.00    -0.231 C  
HETATM   14  H   UNL     1      -6.735  20.651  66.980  1.00  0.00     0.000 HD 
HETATM   15  C   UNL     1      -8.640  17.074  67.192  1.00  0.00    -0.202 C  
HETATM   16  C   UNL     1      -6.918  18.336  68.453  1.00  0.00    -0.245 C  
HETATM   17  O   UNL     1      -9.675  17.142  66.255  1.00  0.00    -0.276 OA 
HETATM   18  C   UNL     1      -8.006  15.681  67.208  1.00  0.00    -0.227 C  
HETATM   19  O   UNL     1      -7.466  18.359  69.570  1.00  0.00     0.024 OA 
HETATM   20  O   UNL     1      -5.609  18.285  68.340  1.00  0.00    -0.168 OA 
HETATM   21  C   UNL     1      -9.019  14.557  67.579  1.00  0.00    -0.188 C  
HETATM   22  O   UNL     1     -11.477  12.850  69.830  1.00  0.00    -0.228 OA 
HETATM   23  C   UNL     1      -8.376  13.249  67.952  1.00  0.00    -0.163 C  
HETATM   24  C   UNL     1      -9.034  12.091  68.104  1.00  0.00    -0.190 C  
HETATM   25  C   UNL     1     -11.439  12.162  71.018  1.00  0.00     1.586 C  
HETATM   26  C   UNL     1      -8.328  10.868  68.305  1.00  0.00    -0.129 C  
HETATM   27  C   UNL     1     -10.423  10.765  71.150  1.00  0.00     2.280 C  
HETATM   28  C   UNL     1      -8.904   9.657  68.290  1.00  0.00    -0.120 C  
HETATM   29  C   UNL     1     -10.341   9.331  71.210  1.00  0.00    -0.397 C  
HETATM   30  C   UNL     1      -8.086   8.495  68.482  1.00  0.00    -0.122 C  
HETATM   31  O   UNL     1     -12.116   7.420  71.530  1.00  0.00    -0.296 OA 
HETATM   32  C   UNL     1     -10.944   7.701  71.251  1.00  0.00    -0.238 C  
HETATM   33  O   UNL     1      -9.943   6.647  71.024  1.00  0.00    -0.183 OA 
HETATM   34  C   UNL     1      -8.544   7.244  68.425  1.00  0.00    -0.124 C  
HETATM   35  C   UNL     1     -10.846   4.009  70.512  1.00  0.00     1.929 C  
HETATM   36  C   UNL     1      -9.831   5.014  71.167  1.00  0.00    -0.187 C  
HETATM   37  C   UNL     1      -7.750   6.167  68.964  1.00  0.00    -0.096 C  
HETATM   38  C   UNL     1      -8.433   4.523  70.584  1.00  0.00    -0.103 C  
HETATM   39  C   UNL     1      -8.368   5.001  69.147  1.00  0.00    -0.086 C  
ENDROOT
BRANCH  21  40
HETATM   40  O   UNL     1     -10.103  14.414  66.682  1.00  0.00    -0.262 OA 
BRANCH  40  41
HETATM   41  C   UNL     1      -9.971  13.603  65.510  1.00  0.00    -0.224 C  
HETATM   42  C   UNL     1     -10.125  12.157  66.029  1.00  0.00    -0.235 C  
HETATM   43  O   UNL     1     -11.406  12.016  66.661  1.00  0.00    -0.309 OA 
HETATM   44  H   UNL     1     -11.500  11.126  66.980  1.00  0.00     0.000 HD 
HETATM   45  N   UNL     1     -10.068   9.769  65.329  1.00  0.00    -0.341 NA 
HETATM   46  H   UNL     1     -11.162   9.716  62.997  1.00  0.00     0.000 HD 
HETATM   47  O   UNL     1     -11.066  10.624  62.732  1.00  0.00     0.889 OA 
HETATM   48  C   UNL     1     -10.012  11.175  64.861  1.00  0.00    -0.278 C  
HETATM   49  C   UNL     1     -12.129  13.440  62.532  1.00  0.00     2.183 C  
HETATM   50  C   UNL     1     -11.115  11.525  63.842  1.00  0.00    -0.380 C  
HETATM   51  C   UNL     1     -10.959  13.006  63.408  1.00  0.00     0.102 C  
HETATM   52  O   UNL     1     -10.932  13.924  64.510  1.00  0.00    -0.388 OA 
HETATM   53  H2  UNL     1     -10.050   9.124  64.539  1.00  0.00     0.000 HD 
HETATM   54  H1  UNL     1      -9.339   9.537  66.003  1.00  0.00     0.000 HD 
ENDBRANCH  40  41
ENDBRANCH  21  40
TORSDOF 2
ENDMDL
MODEL       28
REMARK 921   NORMALIZED FREE ENERGY PREDICTED BY IDOCK:    6.63 KCAL/MOL
REMARK 922        TOTAL FREE ENERGY PREDICTED BY IDOCK:    6.83 KCAL/MOL
REMARK 923 INTER-LIGAND FREE ENERGY PREDICTED BY IDOCK:    6.35 KCAL/MOL
REMARK 924 INTRA-LIGAND FREE ENERGY PREDICTED BY IDOCK:    0.48 KCAL/MOL
REMARK 927      BINDING AFFINITY PREDICTED BY RF-SCORE:    0.00 PKD
ROOT
HETATM    1  C   UNL     1      -8.804  11.131  64.968  1.00  0.00    -0.013 C  
HETATM    2  C   UNL     1      -8.053  12.666  65.458  1.00  0.00     2.358 C  
HETATM    3  C   UNL     1      -8.790  13.799  66.601  1.00  0.00    -0.067 C  
HETATM    4  O   UNL     1      -9.128  14.973  65.780  1.00  0.00    -0.468 OA 
HETATM    5  C   UNL     1      -8.119  14.609  67.998  1.00  0.00    -0.135 C  
HETATM    6  H   UNL     1      -9.524  15.581  66.393  1.00  0.00     0.000 HD 
HETATM    7  C   UNL     1      -8.613  14.583  69.606  1.00  0.00     0.433 C  
HETATM    8  O   UNL     1      -7.463  14.819  70.446  1.00  0.00    -0.246 OA 
HETATM    9  C   UNL     1      -9.541  15.634  70.318  1.00  0.00     0.426 C  
HETATM   10  H   UNL     1      -7.742  14.804  71.354  1.00  0.00     0.000 HD 
HETATM   11  C   UNL     1     -11.018  15.561  69.991  1.00  0.00    -0.319 C  
HETATM   12  O   UNL     1     -11.803  16.230  71.002  1.00  0.00    -0.568 OA 
HETATM   13  C   UNL     1     -11.526  14.110  69.899  1.00  0.00    -0.288 C  
HETATM   14  H   UNL     1     -12.729  16.184  70.797  1.00  0.00     0.000 HD 
HETATM   15  C   UNL     1     -10.438  13.167  69.343  1.00  0.00     0.356 C  
HETATM   16  C   UNL     1     -12.651  14.195  68.899  1.00  0.00     0.376 C  
HETATM   17  O   UNL     1      -9.185  13.322  69.943  1.00  0.00     1.935 OA 
HETATM   18  C   UNL     1     -10.812  11.687  69.229  1.00  0.00    -0.203 C  
HETATM   19  O   UNL     1     -12.495  14.493  67.702  1.00  0.00    -0.097 OA 
HETATM   20  O   UNL     1     -13.830  13.849  69.365  1.00  0.00     3.039 OA 
HETATM   21  C   UNL     1      -9.800  10.871  68.368  1.00  0.00    -0.177 C  
HETATM   22  O   UNL     1      -7.939  10.066  65.220  1.00  0.00    -0.131 OA 
HETATM   23  C   UNL     1     -10.308   9.521  67.938  1.00  0.00    -0.276 C  
HETATM   24  C   UNL     1      -9.554   8.565  67.379  1.00  0.00    -0.204 C  
HETATM   25  C   UNL     1      -8.239   9.563  63.979  1.00  0.00    -0.160 C  
HETATM   26  C   UNL     1     -10.080   7.260  67.145  1.00  0.00    -0.306 C  
HETATM   27  C   UNL     1      -9.004   8.013  63.863  1.00  0.00     0.929 C  
HETATM   28  C   UNL     1      -9.342   6.211  66.754  1.00  0.00    -0.152 C  
HETATM   29  C   UNL     1      -8.869   6.618  63.542  1.00  0.00     0.858 C  
HETATM   30  C   UNL     1      -9.980   4.939  66.572  1.00  0.00    -0.256 C  
HETATM   31  O   UNL     1      -7.002   5.197  62.358  1.00  0.00    -0.029 OA 
HETATM   32  C   UNL     1      -8.055   5.178  63.007  1.00  0.00    -0.100 C  
HETATM   33  O   UNL     1      -8.749   3.912  63.292  1.00  0.00    -0.095 OA 
HETATM   34  C   UNL     1      -9.332   3.821  66.245  1.00  0.00    -0.190 C  
HETATM   35  C   UNL     1      -7.317   1.484  62.989  1.00  0.00    -0.036 C  
HETATM   36  C   UNL     1      -8.635   2.330  62.863  1.00  0.00    -0.077 C  
HETATM   37  C   UNL     1     -10.070   2.686  65.749  1.00  0.00     0.960 C  
HETATM   38  C   UNL     1      -9.679   1.473  63.707  1.00  0.00    -0.129 C  
HETATM   39  C   UNL     1      -9.363   1.718  65.169  1.00  0.00    -0.025 C  
ENDROOT
BRANCH  21  40
HETATM   40  O   UNL     1      -8.480  10.838  68.876  1.00  0.00    -0.144 OA 
BRANCH  40  41
HETATM   41  C   UNL     1      -8.026   9.719  69.642  1.00  0.00    -0.150 C  
HETATM   42  C   UNL     1      -7.160   8.906  68.654  1.00  0.00    -0.071 C  
HETATM   43  O   UNL     1      -6.083   9.731  68.183  1.00  0.00    -0.050 OA 
HETATM   44  H   UNL     1      -5.551   9.231  67.575  1.00  0.00     0.000 HD 
HETATM   45  N   UNL     1      -5.829   6.816  68.419  1.00  0.00    -0.017 NA 
HETATM   46  H   UNL     1      -4.653   6.499  70.689  1.00  0.00     0.000 HD 
HETATM   47  O   UNL     1      -5.201   7.031  71.253  1.00  0.00    -0.026 OA 
HETATM   48  C   UNL     1      -6.597   7.670  69.358  1.00  0.00    -0.039 C  
HETATM   49  C   UNL     1      -5.839   9.653  72.602  1.00  0.00     0.295 C  
HETATM   50  C   UNL     1      -5.768   8.150  70.565  1.00  0.00    -0.029 C  
HETATM   51  C   UNL     1      -6.663   9.019  71.487  1.00  0.00    -0.052 C  
HETATM   52  O   UNL     1      -7.300  10.107  70.804  1.00  0.00    -0.288 OA 
HETATM   53  H2  UNL     1      -5.411   6.026  68.909  1.00  0.00     0.000 HD 
HETATM   54  H1  UNL     1      -6.377   6.498  67.621  1.00  0.00     0.000 HD 
ENDBRANCH  40  41
ENDBRANCH  21  40
TORSDOF 2
ENDMDL
MODEL       29
REMARK 921   NORMALIZED FREE ENERGY PREDICTED BY IDOCK:    8.03 KCAL/MOL
REMARK 922        TOTAL FREE ENERGY PREDICTED BY IDOCK:    8.40 KCAL/MOL
REMARK 923 INTER-LIGAND FREE ENERGY PREDICTED BY IDOCK:    3.40 KCAL/MOL
REMARK 924 INTRA-LIGAND FREE ENERGY PREDICTED BY IDOCK:    5.00 KCAL/MOL
REMARK 927      BINDING AFFINITY PREDICTED BY RF-SCORE:    0.00 PKD
ROOT
HETATM    1  C   UNL     1      -7.346  10.221  66.727  1.00  0.00    -0.106 C  
HETATM    2  C   UNL     1      -7.654   8.589  66.094  1.00  0.00    -0.089 C  
HETATM    3  C   UNL     1      -7.623   7.127  67.090  1.00  0.00    -0.103 C  
HETATM    4  O   UNL     1      -6.444   6.387  66.612  1.00  0.00    -0.043 OA 
HETATM    5  C   UNL     1      -8.760   5.804  67.212  1.00  0.00    -0.108 C  
HETATM    6  H   UNL     1      -6.426   5.602  67.146  1.00  0.00     0.000 HD 
HETATM    7  C   UNL     1      -9.593   5.211  68.548  1.00  0.00    -0.140 C  
HETATM    8  O   UNL     1     -10.829   4.617  68.097  1.00  0.00     0.523 OA 
HETATM    9  C   UNL     1      -9.166   4.002  69.458  1.00  0.00    -0.220 C  
HETATM   10  H   UNL     1     -11.299   4.282  68.851  1.00  0.00     0.000 HD 
HETATM   11  C   UNL     1      -8.033   4.257  70.431  1.00  0.00    -0.052 C  
HETATM   12  O   UNL     1      -8.032   3.274  71.489  1.00  0.00    -0.055 OA 
HETATM   13  C   UNL     1      -8.129   5.645  71.091  1.00  0.00    -0.116 C  
HETATM   14  H   UNL     1      -7.321   3.434  72.099  1.00  0.00     0.000 HD 
HETATM   15  C   UNL     1      -8.732   6.687  70.126  1.00  0.00    -0.141 C  
HETATM   16  C   UNL     1      -6.691   6.007  71.359  1.00  0.00    -0.055 C  
HETATM   17  O   UNL     1      -9.889   6.257  69.469  1.00  0.00    -0.150 OA 
HETATM   18  C   UNL     1      -8.907   8.105  70.675  1.00  0.00    -0.143 C  
HETATM   19  O   UNL     1      -5.845   6.201  70.468  1.00  0.00    -0.017 OA 
HETATM   20  O   UNL     1      -6.395   6.187  72.627  1.00  0.00    -0.055 OA 
HETATM   21  C   UNL     1      -9.205   9.154  69.561  1.00  0.00    -0.159 C  
HETATM   22  O   UNL     1      -8.418  11.064  66.438  1.00  0.00    -0.154 OA 
HETATM   23  C   UNL     1      -9.030  10.583  70.000  1.00  0.00     0.442 C  
HETATM   24  C   UNL     1      -9.424  11.652  69.295  1.00  0.00     0.417 C  
HETATM   25  C   UNL     1      -7.521  12.029  66.051  1.00  0.00     0.952 C  
HETATM   26  C   UNL     1      -9.361  12.962  69.854  1.00  0.00     2.833 C  
HETATM   27  C   UNL     1      -7.473  13.527  66.920  1.00  0.00     0.499 C  
HETATM   28  C   UNL     1      -9.896  14.050  69.280  1.00  0.00     0.227 C  
HETATM   29  C   UNL     1      -7.793  14.929  66.933  1.00  0.00    -0.005 C  
HETATM   30  C   UNL     1      -9.788  15.314  69.950  1.00  0.00    -0.137 C  
HETATM   31  O   UNL     1      -8.599  16.627  65.096  1.00  0.00     0.892 OA 
HETATM   32  C   UNL     1      -8.403  16.429  66.302  1.00  0.00    -0.327 C  
HETATM   33  O   UNL     1      -8.588  17.505  67.288  1.00  0.00    -0.219 OA 
HETATM   34  C   UNL     1     -10.334  16.444  69.500  1.00  0.00    -0.278 C  
HETATM   35  C   UNL     1     -10.075  19.796  66.530  1.00  0.00    -0.589 C  
HETATM   36  C   UNL     1      -8.880  19.122  67.295  1.00  0.00    -0.289 C  
HETATM   37  C   UNL     1      -9.897  17.712  70.031  1.00  0.00     1.092 C  
HETATM   38  C   UNL     1      -9.104  19.617  68.793  1.00  0.00    -0.322 C  
HETATM   39  C   UNL     1     -10.252  18.801  69.353  1.00  0.00     0.182 C  
ENDROOT
BRANCH  21  40
HETATM   40  O   UNL     1     -10.401   8.931  68.840  1.00  0.00    -0.206 OA 
BRANCH  40  41
HETATM   41  C   UNL     1     -11.668   9.251  69.422  1.00  0.00     0.573 C  
HETATM   42  C   UNL     1     -11.635   8.565  70.806  1.00  0.00    -0.231 C  
HETATM   43  O   UNL     1     -10.530   9.081  71.562  1.00  0.00    -0.287 OA 
HETATM   44  H   UNL     1     -10.510   8.659  72.413  1.00  0.00     0.000 HD 
HETATM   45  N   UNL     1     -12.990   8.126  72.848  1.00  0.00    -0.471 NA 
HETATM   46  H   UNL     1     -14.333  10.286  73.252  1.00  0.00     0.000 HD 
HETATM   47  O   UNL     1     -14.305  10.682  72.389  1.00  0.00     0.588 OA 
HETATM   48  C   UNL     1     -12.945   8.840  71.548  1.00  0.00    -0.319 C  
HETATM   49  C   UNL     1     -13.033  12.534  70.376  1.00  0.00     0.353 C  
HETATM   50  C   UNL     1     -13.100  10.367  71.684  1.00  0.00    -0.448 C  
HETATM   51  C   UNL     1     -13.054  11.013  70.274  1.00  0.00     0.147 C  
HETATM   52  O   UNL     1     -11.888  10.654  69.520  1.00  0.00    -0.286 OA 
HETATM   53  H2  UNL     1     -13.840   8.360  73.359  1.00  0.00     0.000 HD 
HETATM   54  H1  UNL     1     -12.887   7.115  72.758  1.00  0.00     0.000 HD 
ENDBRANCH  40  41
ENDBRANCH  21  40
TORSDOF 2
ENDMDL
MODEL       30
REMARK 921   NORMALIZED FREE ENERGY PREDICTED BY IDOCK:    8.36 KCAL/MOL
REMARK 922        TOTAL FREE ENERGY PREDICTED BY IDOCK:    8.76 KCAL/MOL
REMARK 923 INTER-LIGAND FREE ENERGY PREDICTED BY IDOCK:    9.17 KCAL/MOL
REMARK 924 INTRA-LIGAND FREE ENERGY PREDICTED BY IDOCK:   -0.40 KCAL/MOL
REMARK 927      BINDING AFFINITY PREDICTED BY RF-SCORE:    0.00 PKD
ROOT
HETATM    1  C   UNL     1      -7.438  10.105  66.778  1.00  0.00    -0.104 C  
HETATM    2  C   UNL     1      -8.447   8.709  66.335  1.00  0.00    -0.117 C  
HETATM    3  C   UNL     1      -8.654   7.281  67.359  1.00  0.00    -0.121 C  
HETATM    4  O   UNL     1      -7.976   6.204  66.620  1.00  0.00    -0.103 OA 
HETATM    5  C   UNL     1     -10.100   6.427  67.848  1.00  0.00    -0.170 C  
HETATM    6  H   UNL     1      -8.087   5.437  67.170  1.00  0.00     0.000 HD 
HETATM    7  C   UNL     1     -10.694   6.096  69.387  1.00  0.00    -0.320 C  
HETATM    8  O   UNL     1     -12.131   5.986  69.313  1.00  0.00     0.537 OA 
HETATM    9  C   UNL     1     -10.481   4.773  70.209  1.00  0.00    -0.046 C  
HETATM   10  H   UNL     1     -12.467   5.799  70.182  1.00  0.00     0.000 HD 
HETATM   11  C   UNL     1      -9.113   4.577  70.829  1.00  0.00    -0.127 C  
HETATM   12  O   UNL     1      -9.166   3.606  71.896  1.00  0.00    -0.105 OA 
HETATM   13  C   UNL     1      -8.545   5.881  71.419  1.00  0.00    -0.129 C  
HETATM   14  H   UNL     1      -8.307   3.483  72.285  1.00  0.00     0.000 HD 
HETATM   15  C   UNL     1      -8.988   7.110  70.599  1.00  0.00    -0.154 C  
HETATM   16  C   UNL     1      -7.054   5.713  71.274  1.00  0.00    -0.072 C  
HETATM   17  O   UNL     1     -10.353   7.137  70.299  1.00  0.00    -0.196 OA 
HETATM   18  C   UNL     1      -8.511   8.475  71.102  1.00  0.00    -0.191 C  
HETATM   19  O   UNL     1      -6.466   5.644  70.180  1.00  0.00    -0.032 OA 
HETATM   20  O   UNL     1      -6.385   5.720  72.405  1.00  0.00    -0.049 OA 
HETATM   21  C   UNL     1      -8.717   9.613  70.057  1.00  0.00    -0.231 C  
HETATM   22  O   UNL     1      -8.192  11.277  66.744  1.00  0.00    -0.147 OA 
HETATM   23  C   UNL     1      -7.950  10.871  70.360  1.00  0.00     1.696 C  
HETATM   24  C   UNL     1      -8.127  12.043  69.733  1.00  0.00     1.614 C  
HETATM   25  C   UNL     1      -7.156  11.891  66.083  1.00  0.00     0.695 C  
HETATM   26  C   UNL     1      -7.470  13.224  70.187  1.00  0.00     1.665 C  
HETATM   27  C   UNL     1      -6.365  13.239  66.830  1.00  0.00     1.048 C  
HETATM   28  C   UNL     1      -7.731  14.455  69.723  1.00  0.00     0.312 C  
HETATM   29  C   UNL     1      -6.167  14.663  66.857  1.00  0.00     1.431 C  
HETATM   30  C   UNL     1      -7.020  15.572  70.274  1.00  0.00     0.255 C  
HETATM   31  O   UNL     1      -6.802  16.618  65.220  1.00  0.00     1.693 OA 
HETATM   32  C   UNL     1      -6.369  16.309  66.337  1.00  0.00     0.823 C  
HETATM   33  O   UNL     1      -5.901  17.336  67.280  1.00  0.00    -0.123 OA 
HETATM   34  C   UNL     1      -7.244  16.840  69.930  1.00  0.00     0.621 C  
HETATM   35  C   UNL     1      -6.656  20.032  66.834  1.00  0.00    -0.232 C  
HETATM   36  C   UNL     1      -5.606  18.953  67.284  1.00  0.00    -0.156 C  
HETATM   37  C   UNL     1      -6.272  17.854  70.260  1.00  0.00     0.206 C  
HETATM   38  C   UNL     1      -5.236  19.424  68.759  1.00  0.00    -0.200 C  
HETATM   39  C   UNL     1      -6.399  19.029  69.647  1.00  0.00    -0.280 C  
ENDROOT
BRANCH  21  40
HETATM   40  O   UNL     1     -10.064   9.849  69.695  1.00  0.00    -0.202 OA 
BRANCH  40  41
HETATM   41  C   UNL     1     -10.924  10.600  70.556  1.00  0.00     0.020 C  
HETATM   42  C   UNL     1     -11.248  11.878  69.751  1.00  0.00    -0.057 C  
HETATM   43  O   UNL     1     -11.881  11.511  68.517  1.00  0.00    -0.388 OA 
HETATM   44  H   UNL     1     -12.080  12.297  68.022  1.00  0.00     0.000 HD 
HETATM   45  N   UNL     1     -12.447  14.056  69.862  1.00  0.00    -0.373 NA 
HETATM   46  H   UNL     1     -14.615  13.575  71.169  1.00  0.00     0.000 HD 
HETATM   47  O   UNL     1     -14.378  12.775  71.624  1.00  0.00     0.818 OA 
HETATM   48  C   UNL     1     -12.181  12.778  70.565  1.00  0.00    -0.307 C  
HETATM   49  C   UNL     1     -14.288   9.765  71.796  1.00  0.00     0.316 C  
HETATM   50  C   UNL     1     -13.459  11.973  70.877  1.00  0.00     0.897 C  
HETATM   51  C   UNL     1     -13.073  10.668  71.620  1.00  0.00    -0.450 C  
HETATM   52  O   UNL     1     -12.097   9.881  70.923  1.00  0.00    -0.302 OA 
HETATM   53  H2  UNL     1     -13.114  14.624  70.385  1.00  0.00     0.000 HD 
HETATM   54  H1  UNL     1     -11.603  14.588  69.656  1.00  0.00     0.000 HD 
ENDBRANCH  40  41
ENDBRANCH  21  40
TORSDOF 2
ENDMDL
MODEL       31
REMARK 921   NORMALIZED FREE ENERGY PREDICTED BY IDOCK:    8.84 KCAL/MOL
REMARK 922        TOTAL FREE ENERGY PREDICTED BY IDOCK:    9.30 KCAL/MOL
REMARK 923 INTER-LIGAND FREE ENERGY PREDICTED BY IDOCK:    3.10 KCAL/MOL
REMARK 924 INTRA-LIGAND FREE ENERGY PREDICTED BY IDOCK:    6.20 KCAL/MOL
REMARK 927      BINDING AFFINITY PREDICTED BY RF-SCORE:    0.00 PKD
ROOT
HETATM    1  C   UNL     1      -6.721  13.028  67.867  1.00  0.00    -0.129 C  
HETATM    2  C   UNL     1      -6.593  14.559  68.763  1.00  0.00    -0.088 C  
HETATM    3  C   UNL     1      -7.478  16.028  68.329  1.00  0.00    -0.136 C  
HETATM    4  O   UNL     1      -6.433  16.958  67.871  1.00  0.00    -0.133 OA 
HETATM    5  C   UNL     1      -8.424  17.123  69.311  1.00  0.00     0.149 C  
HETATM    6  H   UNL     1      -6.907  17.748  67.637  1.00  0.00     0.000 HD 
HETATM    7  C   UNL     1     -10.035  17.589  69.168  1.00  0.00    -0.197 C  
HETATM    8  O   UNL     1     -10.534  17.934  70.477  1.00  0.00     0.523 OA 
HETATM    9  C   UNL     1     -10.576  18.881  68.452  1.00  0.00    -0.128 C  
HETATM   10  H   UNL     1     -11.443  18.197  70.397  1.00  0.00     0.000 HD 
HETATM   11  C   UNL     1     -10.574  18.864  66.938  1.00  0.00    -0.421 C  
HETATM   12  O   UNL     1     -11.478  19.859  66.411  1.00  0.00     0.256 OA 
HETATM   13  C   UNL     1     -11.005  17.501  66.366  1.00  0.00     0.253 C  
HETATM   14  H   UNL     1     -11.476  19.849  65.461  1.00  0.00     0.000 HD 
HETATM   15  C   UNL     1     -10.548  16.340  67.274  1.00  0.00    -0.298 C  
HETATM   16  C   UNL     1     -10.258  17.416  65.059  1.00  0.00     0.960 C  
HETATM   17  O   UNL     1     -10.825  16.532  68.631  1.00  0.00    -0.310 OA 
HETATM   18  C   UNL     1     -10.941  14.929  66.829  1.00  0.00    -0.326 C  
HETATM   19  O   UNL     1      -9.019  17.357  64.970  1.00  0.00     1.387 OA 
HETATM   20  O   UNL     1     -11.021  17.328  63.993  1.00  0.00     0.137 OA 
HETATM   21  C   UNL     1     -10.177  13.814  67.603  1.00  0.00    -0.242 C  
HETATM   22  O   UNL     1      -7.101  11.996  68.724  1.00  0.00    -0.101 OA 
HETATM   23  C   UNL     1     -10.262  12.454  66.964  1.00  0.00    -0.232 C  
HETATM   24  C   UNL     1      -9.870  11.312  67.545  1.00  0.00    -0.195 C  
HETATM   25  C   UNL     1      -6.140  11.201  68.149  1.00  0.00    -0.049 C  
HETATM   26  C   UNL     1     -10.129  10.050  66.932  1.00  0.00    -0.287 C  
HETATM   27  C   UNL     1      -6.627   9.762  67.317  1.00  0.00    -0.070 C  
HETATM   28  C   UNL     1      -9.924   8.868  67.530  1.00  0.00    -0.258 C  
HETATM   29  C   UNL     1      -6.704   8.326  67.328  1.00  0.00    -0.063 C  
HETATM   30  C   UNL     1     -10.245   7.664  66.819  1.00  0.00    -0.333 C  
HETATM   31  O   UNL     1      -5.647   6.459  68.846  1.00  0.00    -0.014 OA 
HETATM   32  C   UNL     1      -6.464   6.723  67.954  1.00  0.00    -0.050 C  
HETATM   33  O   UNL     1      -7.230   5.658  67.288  1.00  0.00    -0.073 OA 
HETATM   34  C   UNL     1     -10.138   6.441  67.340  1.00  0.00    -0.198 C  
HETATM   35  C   UNL     1      -7.375   3.113  68.529  1.00  0.00    -0.049 C  
HETATM   36  C   UNL     1      -7.264   4.016  67.248  1.00  0.00    -0.068 C  
HETATM   37  C   UNL     1     -10.142   5.290  66.470  1.00  0.00    -0.260 C  
HETATM   38  C   UNL     1      -8.504   3.530  66.374  1.00  0.00    -0.108 C  
HETATM   39  C   UNL     1      -9.743   4.136  67.001  1.00  0.00    -0.230 C  
ENDROOT
BRANCH  21  40
HETATM   40  O   UNL     1     -10.409  13.794  68.998  1.00  0.00    -0.184 OA 
BRANCH  40  41
HETATM   41  C   UNL     1     -10.852  12.595  69.642  1.00  0.00     0.330 C  
HETATM   42  C   UNL     1     -11.843  13.085  70.721  1.00  0.00     0.150 C  
HETATM   43  O   UNL     1     -12.912  13.803  70.087  1.00  0.00    -0.152 OA 
HETATM   44  H   UNL     1     -13.521  14.105  70.751  1.00  0.00     0.000 HD 
HETATM   45  N   UNL     1     -13.297  12.320  72.590  1.00  0.00    -0.424 NA 
HETATM   46  H   UNL     1     -14.284  10.072  71.810  1.00  0.00     0.000 HD 
HETATM   47  O   UNL     1     -13.661   9.825  71.136  1.00  0.00    -0.294 OA 
HETATM   48  C   UNL     1     -12.405  11.886  71.487  1.00  0.00     0.089 C  
HETATM   49  C   UNL     1     -12.771   9.777  68.254  1.00  0.00     5.321 C  
HETATM   50  C   UNL     1     -13.099  10.959  70.469  1.00  0.00    -0.020 C  
HETATM   51  C   UNL     1     -12.082  10.554  69.370  1.00  0.00    -0.104 C  
HETATM   52  O   UNL     1     -11.451  11.675  68.735  1.00  0.00    -0.232 OA 
HETATM   53  H2  UNL     1     -13.711  11.514  73.058  1.00  0.00     0.000 HD 
HETATM   54  H1  UNL     1     -12.838  12.933  73.263  1.00  0.00     0.000 HD 
ENDBRANCH  40  41
ENDBRANCH  21  40
TORSDOF 2
ENDMDL
MODEL       32
REMARK 921   NORMALIZED FREE ENERGY PREDICTED BY IDOCK:    8.87 KCAL/MOL
REMARK 922        TOTAL FREE ENERGY PREDICTED BY IDOCK:    9.34 KCAL/MOL
REMARK 923 INTER-LIGAND FREE ENERGY PREDICTED BY IDOCK:    9.03 KCAL/MOL
REMARK 924 INTRA-LIGAND FREE ENERGY PREDICTED BY IDOCK:    0.31 KCAL/MOL
REMARK 927      BINDING AFFINITY PREDICTED BY RF-SCORE:    0.00 PKD
ROOT
HETATM    1  C   UNL     1      -9.831   6.616  69.543  1.00  0.00    -0.152 C  
HETATM    2  C   UNL     1      -8.537   5.405  69.393  1.00  0.00    -0.099 C  
HETATM    3  C   UNL     1      -8.311   4.380  67.968  1.00  0.00    -0.094 C  
HETATM    4  O   UNL     1      -8.637   3.025  68.441  1.00  0.00    -0.077 OA 
HETATM    5  C   UNL     1      -6.874   4.020  67.038  1.00  0.00    -0.055 C  
HETATM    6  H   UNL     1      -8.516   2.475  67.676  1.00  0.00     0.000 HD 
HETATM    7  C   UNL     1      -6.559   4.247  65.400  1.00  0.00    -0.044 C  
HETATM    8  O   UNL     1      -5.139   4.435  65.224  1.00  0.00    -0.008 OA 
HETATM    9  C   UNL     1      -6.715   3.176  64.260  1.00  0.00    -0.036 C  
HETATM   10  H   UNL     1      -4.961   4.563  64.300  1.00  0.00     0.000 HD 
HETATM   11  C   UNL     1      -8.129   2.861  63.818  1.00  0.00    -0.082 C  
HETATM   12  O   UNL     1      -8.135   2.243  62.513  1.00  0.00    -0.065 OA 
HETATM   13  C   UNL     1      -9.012   4.119  63.737  1.00  0.00    -0.130 C  
HETATM   14  H   UNL     1      -9.023   2.045  62.236  1.00  0.00     0.000 HD 
HETATM   15  C   UNL     1      -8.620   5.153  64.814  1.00  0.00    -0.148 C  
HETATM   16  C   UNL     1     -10.393   3.600  64.044  1.00  0.00    -0.255 C  
HETATM   17  O   UNL     1      -7.245   5.393  64.903  1.00  0.00    -0.063 OA 
HETATM   18  C   UNL     1      -9.408   6.465  64.821  1.00  0.00     1.073 C  
HETATM   19  O   UNL     1     -10.727   3.118  65.141  1.00  0.00     0.651 OA 
HETATM   20  O   UNL     1     -11.271   3.763  63.079  1.00  0.00    -0.033 OA 
HETATM   21  C   UNL     1      -9.183   7.301  66.117  1.00  0.00    -0.089 C  
HETATM   22  O   UNL     1      -9.290   7.871  69.816  1.00  0.00    -0.153 OA 
HETATM   23  C   UNL     1     -10.193   8.398  66.322  1.00  0.00    -0.017 C  
HETATM   24  C   UNL     1     -10.087   9.370  67.239  1.00  0.00    -0.285 C  
HETATM   25  C   UNL     1     -10.256   8.049  70.776  1.00  0.00    -0.194 C  
HETATM   26  C   UNL     1     -11.008  10.458  67.262  1.00  0.00    -0.306 C  
HETATM   27  C   UNL     1     -11.394   9.342  70.594  1.00  0.00    -0.330 C  
HETATM   28  C   UNL     1     -10.865  11.548  68.031  1.00  0.00    -0.259 C  
HETATM   29  C   UNL     1     -11.825  10.644  71.025  1.00  0.00    -0.396 C  
HETATM   30  C   UNL     1     -11.847  12.590  67.952  1.00  0.00    -0.383 C  
HETATM   31  O   UNL     1     -11.201  12.183  73.062  1.00  0.00     8.615 OA 
HETATM   32  C   UNL     1     -11.795  12.096  71.980  1.00  0.00     2.710 C  
HETATM   33  O   UNL     1     -12.608  13.210  71.468  1.00  0.00    -0.296 OA 
HETATM   34  C   UNL     1     -11.770  13.738  68.624  1.00  0.00    -0.391 C  
HETATM   35  C   UNL     1     -12.233  15.788  72.588  1.00  0.00    -0.573 C  
HETATM   36  C   UNL     1     -13.160  14.666  71.994  1.00  0.00    -0.337 C  
HETATM   37  C   UNL     1     -12.942  14.568  68.761  1.00  0.00     1.433 C  
HETATM   38  C   UNL     1     -13.895  15.421  70.800  1.00  0.00    -0.103 C  
HETATM   39  C   UNL     1     -12.888  15.537  69.673  1.00  0.00     0.237 C  
ENDROOT
BRANCH  21  40
HETATM   40  O   UNL     1      -7.849   7.718  66.330  1.00  0.00    -0.090 OA 
BRANCH  40  41
HETATM   41  C   UNL     1      -7.554   9.092  66.599  1.00  0.00    -0.089 C  
HETATM   42  C   UNL     1      -6.958   9.082  68.024  1.00  0.00    -0.077 C  
HETATM   43  O   UNL     1      -5.789   8.250  68.041  1.00  0.00    -0.040 OA 
HETATM   44  H   UNL     1      -5.423   8.244  68.918  1.00  0.00     0.000 HD 
HETATM   45  N   UNL     1      -6.089  10.554  69.834  1.00  0.00    -0.066 NA 
HETATM   46  H   UNL     1      -4.793  12.425  68.628  1.00  0.00     0.000 HD 
HETATM   47  O   UNL     1      -5.173  12.376  67.757  1.00  0.00    -0.071 OA 
HETATM   48  C   UNL     1      -6.585  10.508  68.437  1.00  0.00    -0.055 C  
HETATM   49  C   UNL     1      -5.158  11.332  64.928  1.00  0.00     0.451 C  
HETATM   50  C   UNL     1      -5.571  11.047  67.409  1.00  0.00    -0.048 C  
HETATM   51  C   UNL     1      -6.190  10.968  65.989  1.00  0.00    -0.075 C  
HETATM   52  O   UNL     1      -6.662   9.658  65.645  1.00  0.00    -0.080 OA 
HETATM   53  H2  UNL     1      -5.790  11.497  70.080  1.00  0.00     0.000 HD 
HETATM   54  H1  UNL     1      -6.760  10.197  70.514  1.00  0.00     0.000 HD 
ENDBRANCH  40  41
ENDBRANCH  21  40
TORSDOF 2
ENDMDL
MODEL       33
REMARK 921   NORMALIZED FREE ENERGY PREDICTED BY IDOCK:    9.16 KCAL/MOL
REMARK 922        TOTAL FREE ENERGY PREDICTED BY IDOCK:    9.66 KCAL/MOL
REMARK 923 INTER-LIGAND FREE ENERGY PREDICTED BY IDOCK:    4.38 KCAL/MOL
REMARK 924 INTRA-LIGAND FREE ENERGY PREDICTED BY IDOCK:    5.28 KCAL/MOL
REMARK 927      BINDING AFFINITY PREDICTED BY RF-SCORE:    0.00 PKD
ROOT
HETATM    1  C   UNL     1     -11.182  11.662  65.820  1.00  0.00    -0.230 C  
HETATM    2  C   UNL     1     -11.535  13.307  65.245  1.00  0.00    -0.319 C  
HETATM    3  C   UNL     1     -11.745  14.699  66.317  1.00  0.00    -0.320 C  
HETATM    4  O   UNL     1     -13.169  15.045  66.188  1.00  0.00     0.514 OA 
HETATM    5  C   UNL     1     -11.053  16.304  66.251  1.00  0.00     0.137 C  
HETATM    6  H   UNL     1     -13.282  15.792  66.764  1.00  0.00     0.000 HD 
HETATM    7  C   UNL     1     -10.124  17.130  67.385  1.00  0.00    -0.301 C  
HETATM    8  O   UNL     1      -9.272  18.066  66.690  1.00  0.00    -0.269 OA 
HETATM    9  C   UNL     1     -10.646  18.161  68.451  1.00  0.00    -0.215 C  
HETATM   10  H   UNL     1      -8.747  18.532  67.330  1.00  0.00     0.000 HD 
HETATM   11  C   UNL     1     -11.372  17.584  69.648  1.00  0.00     1.599 C  
HETATM   12  O   UNL     1     -11.397  18.529  70.740  1.00  0.00     2.697 OA 
HETATM   13  C   UNL     1     -10.710  16.295  70.170  1.00  0.00    -0.246 C  
HETATM   14  H   UNL     1     -11.852  18.167  71.491  1.00  0.00     0.000 HD 
HETATM   15  C   UNL     1     -10.090  15.475  69.018  1.00  0.00    -0.234 C  
HETATM   16  C   UNL     1     -11.863  15.518  70.751  1.00  0.00    -0.367 C  
HETATM   17  O   UNL     1      -9.313  16.229  68.133  1.00  0.00    -0.205 OA 
HETATM   18  C   UNL     1      -9.375  14.180  69.410  1.00  0.00     0.453 C  
HETATM   19  O   UNL     1     -12.810  15.072  70.078  1.00  0.00    -0.212 OA 
HETATM   20  O   UNL     1     -11.767  15.267  72.037  1.00  0.00    -0.385 OA 
HETATM   21  C   UNL     1      -9.071  13.262  68.189  1.00  0.00    -0.207 C  
HETATM   22  O   UNL     1     -10.018  11.180  65.224  1.00  0.00    -0.231 OA 
HETATM   23  C   UNL     1      -8.703  11.850  68.559  1.00  0.00    -0.108 C  
HETATM   24  C   UNL     1      -8.201  10.944  67.707  1.00  0.00    -0.116 C  
HETATM   25  C   UNL     1     -10.659   9.986  65.000  1.00  0.00     0.605 C  
HETATM   26  C   UNL     1      -7.735   9.680  68.174  1.00  0.00    -0.086 C  
HETATM   27  C   UNL     1     -10.046   8.550  65.750  1.00  0.00     0.511 C  
HETATM   28  C   UNL     1      -7.066   8.799  67.415  1.00  0.00    -0.079 C  
HETATM   29  C   UNL     1      -9.335   7.310  65.589  1.00  0.00     0.272 C  
HETATM   30  C   UNL     1      -6.626   7.567  68.002  1.00  0.00    -0.054 C  
HETATM   31  O   UNL     1      -8.553   5.920  63.501  1.00  0.00     0.032 OA 
HETATM   32  C   UNL     1      -8.491   6.058  64.729  1.00  0.00    -0.031 C  
HETATM   33  O   UNL     1      -7.757   5.096  65.565  1.00  0.00    -0.084 OA 
HETATM   34  C   UNL     1      -5.903   6.651  67.358  1.00  0.00    -0.013 C  
HETATM   35  C   UNL     1      -5.901   3.354  64.316  1.00  0.00    -0.014 C  
HETATM   36  C   UNL     1      -7.011   3.642  65.391  1.00  0.00    -0.061 C  
HETATM   37  C   UNL     1      -5.801   5.315  67.891  1.00  0.00    -0.017 C  
HETATM   38  C   UNL     1      -6.284   3.250  66.752  1.00  0.00    -0.028 C  
HETATM   39  C   UNL     1      -5.324   4.378  67.074  1.00  0.00    -0.013 C  
ENDROOT
BRANCH  21  40
HETATM   40  O   UNL     1      -8.214  13.829  67.217  1.00  0.00    -0.180 OA 
BRANCH  40  41
HETATM   41  C   UNL     1      -7.151  14.703  67.611  1.00  0.00    -0.182 C  
HETATM   42  C   UNL     1      -6.882  15.565  66.358  1.00  0.00     1.740 C  
HETATM   43  O   UNL     1      -8.081  16.271  66.005  1.00  0.00    -0.219 OA 
HETATM   44  H   UNL     1      -7.915  16.801  65.234  1.00  0.00     0.000 HD 
HETATM   45  N   UNL     1      -5.410  17.351  65.443  1.00  0.00     0.010 NA 
HETATM   46  H   UNL     1      -4.987  18.960  67.410  1.00  0.00     0.000 HD 
HETATM   47  O   UNL     1      -5.187  18.398  68.150  1.00  0.00    -0.164 OA 
HETATM   48  C   UNL     1      -5.759  16.562  66.649  1.00  0.00     0.223 C  
HETATM   49  C   UNL     1      -7.124  17.322  70.197  1.00  0.00     1.234 C  
HETATM   50  C   UNL     1      -6.198  17.432  67.843  1.00  0.00    -0.150 C  
HETATM   51  C   UNL     1      -6.524  16.515  69.051  1.00  0.00    -0.182 C  
HETATM   52  O   UNL     1      -7.483  15.492  68.748  1.00  0.00    -0.124 OA 
HETATM   53  H2  UNL     1      -4.701  18.051  65.661  1.00  0.00     0.000 HD 
HETATM   54  H1  UNL     1      -5.120  16.776  64.653  1.00  0.00     0.000 HD 
ENDBRANCH  40  41
ENDBRANCH  21  40
TORSDOF 2
ENDMDL
MODEL       34
REMARK 921   NORMALIZED FREE ENERGY PREDICTED BY IDOCK:   10.92 KCAL/MOL
REMARK 922        TOTAL FREE ENERGY PREDICTED BY IDOCK:   11.62 KCAL/MOL
REMARK 923 INTER-LIGAND FREE ENERGY PREDICTED BY IDOCK:    0.91 KCAL/MOL
REMARK 924 INTRA-LIGAND FREE ENERGY PREDICTED BY IDOCK:   10.71 KCAL/MOL
REMARK 927      BINDING AFFINITY PREDICTED BY RF-SCORE:    0.00 PKD
ROOT
HETATM    1  C   UNL     1     -10.881  10.073  67.841  1.00  0.00    -0.271 C  
HETATM    2  C   UNL     1     -11.465   8.487  68.393  1.00  0.00     1.083 C  
HETATM    3  C   UNL     1     -11.074   6.961  67.587  1.00  0.00    -0.178 C  
HETATM    4  O   UNL     1     -12.355   6.512  67.019  1.00  0.00     1.405 OA 
HETATM    5  C   UNL     1     -10.501   5.442  68.237  1.00  0.00    -0.191 C  
HETATM    6  H   UNL     1     -12.145   5.693  66.586  1.00  0.00     0.000 HD 
HETATM    7  C   UNL     1      -9.110   4.565  67.877  1.00  0.00    -0.123 C  
HETATM    8  O   UNL     1      -8.732   3.799  69.040  1.00  0.00    -0.080 OA 
HETATM    9  C   UNL     1      -8.992   3.370  66.862  1.00  0.00    -0.170 C  
HETATM   10  H   UNL     1      -7.947   3.305  68.837  1.00  0.00     0.000 HD 
HETATM   11  C   UNL     1      -8.998   3.731  65.391  1.00  0.00    -0.134 C  
HETATM   12  O   UNL     1      -8.444   2.661  64.596  1.00  0.00    -0.086 OA 
HETATM   13  C   UNL     1      -8.175   4.999  65.096  1.00  0.00    -0.131 C  
HETATM   14  H   UNL     1      -8.447   2.888  63.673  1.00  0.00     0.000 HD 
HETATM   15  C   UNL     1      -8.250   6.004  66.264  1.00  0.00    -0.118 C  
HETATM   16  C   UNL     1      -8.867   5.596  63.897  1.00  0.00     0.294 C  
HETATM   17  O   UNL     1      -8.037   5.435  67.523  1.00  0.00    -0.100 OA 
HETATM   18  C   UNL     1      -7.448   7.298  66.105  1.00  0.00    -0.083 C  
HETATM   19  O   UNL     1     -10.030   6.039  63.915  1.00  0.00     2.394 OA 
HETATM   20  O   UNL     1      -8.120   5.695  62.821  1.00  0.00    -0.096 OA 
HETATM   21  C   UNL     1      -7.832   8.382  67.156  1.00  0.00    -0.100 C  
HETATM   22  O   UNL     1     -10.200  10.723  68.869  1.00  0.00    -0.186 OA 
HETATM   23  C   UNL     1      -7.339   9.764  66.820  1.00  0.00    -0.091 C  
HETATM   24  C   UNL     1      -7.361  10.808  67.662  1.00  0.00    -0.094 C  
HETATM   25  C   UNL     1     -10.876  11.876  68.552  1.00  0.00    -0.221 C  
HETATM   26  C   UNL     1      -6.733  12.040  67.317  1.00  0.00    -0.144 C  
HETATM   27  C   UNL     1      -9.977  13.256  68.016  1.00  0.00    -0.233 C  
HETATM   28  C   UNL     1      -6.564  13.062  68.169  1.00  0.00    -0.103 C  
HETATM   29  C   UNL     1      -9.466  14.563  68.330  1.00  0.00    -0.207 C  
HETATM   30  C   UNL     1      -5.895  14.246  67.713  1.00  0.00    -0.090 C  
HETATM   31  O   UNL     1      -9.894  16.261  70.289  1.00  0.00     0.310 OA 
HETATM   32  C   UNL     1      -9.202  15.979  69.303  1.00  0.00    -0.243 C  
HETATM   33  O   UNL     1      -8.151  16.891  68.827  1.00  0.00    -0.243 OA 
HETATM   34  C   UNL     1      -5.621  15.293  68.491  1.00  0.00    -0.096 C  
HETATM   35  C   UNL     1      -7.230  18.926  70.572  1.00  0.00     1.491 C  
HETATM   36  C   UNL     1      -7.618  18.414  69.138  1.00  0.00    -0.075 C  
HETATM   37  C   UNL     1      -5.270  16.558  67.892  1.00  0.00    -0.130 C  
HETATM   38  C   UNL     1      -6.294  18.697  68.299  1.00  0.00    -0.220 C  
HETATM   39  C   UNL     1      -5.295  17.625  68.687  1.00  0.00    -0.151 C  
ENDROOT
BRANCH  21  40
HETATM   40  O   UNL     1      -7.597   8.014  68.502  1.00  0.00    -0.099 OA 
BRANCH  40  41
HETATM   41  C   UNL     1      -8.618   7.362  69.263  1.00  0.00    -0.137 C  
HETATM   42  C   UNL     1      -7.912   6.952  70.574  1.00  0.00    -0.114 C  
HETATM   43  O   UNL     1      -7.400   8.126  71.222  1.00  0.00    -0.062 OA 
HETATM   44  H   UNL     1      -6.966   7.873  72.029  1.00  0.00     0.000 HD 
HETATM   45  N   UNL     1      -8.247   5.756  72.731  1.00  0.00    -0.112 NA 
HETATM   46  H   UNL     1     -10.645   6.339  73.468  1.00  0.00     0.000 HD 
HETATM   47  O   UNL     1     -11.029   6.607  72.641  1.00  0.00    -0.236 OA 
HETATM   48  C   UNL     1      -8.907   6.243  71.495  1.00  0.00    -0.138 C  
HETATM   49  C   UNL     1     -11.744   8.741  70.633  1.00  0.00    -0.194 C  
HETATM   50  C   UNL     1     -10.073   7.214  71.767  1.00  0.00    -0.183 C  
HETATM   51  C   UNL     1     -10.700   7.651  70.417  1.00  0.00    -0.236 C  
HETATM   52  O   UNL     1      -9.747   8.198  69.496  1.00  0.00    -0.167 OA 
HETATM   53  H2  UNL     1      -8.929   5.336  73.363  1.00  0.00     0.000 HD 
HETATM   54  H1  UNL     1      -7.476   5.113  72.552  1.00  0.00     0.000 HD 
ENDBRANCH  40  41
ENDBRANCH  21  40
TORSDOF 2
ENDMDL
MODEL       35
REMARK 921   NORMALIZED FREE ENERGY PREDICTED BY IDOCK:   12.45 KCAL/MOL
REMARK 922        TOTAL FREE ENERGY PREDICTED BY IDOCK:   13.34 KCAL/MOL
REMARK 923 INTER-LIGAND FREE ENERGY PREDICTED BY IDOCK:   11.02 KCAL/MOL
REMARK 924 INTRA-LIGAND FREE ENERGY PREDICTED BY IDOCK:    2.32 KCAL/MOL
REMARK 927      BINDING AFFINITY PREDICTED BY RF-SCORE:    0.00 PKD
ROOT
HETATM    1  C   UNL     1     -11.481   9.151  69.617  1.00  0.00     0.199 C  
HETATM    2  C   UNL     1     -11.574   7.629  70.531  1.00  0.00    -0.195 C  
HETATM    3  C   UNL     1     -11.461   6.028  69.786  1.00  0.00    -0.137 C  
HETATM    4  O   UNL     1     -12.808   5.456  69.950  1.00  0.00     6.052 OA 
HETATM    5  C   UNL     1     -10.502   4.631  70.221  1.00  0.00     0.082 C  
HETATM    6  H   UNL     1     -12.748   4.596  69.550  1.00  0.00     0.000 HD 
HETATM    7  C   UNL     1      -9.368   3.773  69.321  1.00  0.00    -0.174 C  
HETATM    8  O   UNL     1      -8.412   3.182  70.226  1.00  0.00    -0.054 OA 
HETATM    9  C   UNL     1      -9.628   2.461  68.494  1.00  0.00    -0.108 C  
HETATM   10  H   UNL     1      -7.772   2.698  69.719  1.00  0.00     0.000 HD 
HETATM   11  C   UNL     1     -10.363   2.626  67.181  1.00  0.00     2.516 C  
HETATM   12  O   UNL     1     -10.148   1.484  66.324  1.00  0.00     0.321 OA 
HETATM   13  C   UNL     1      -9.908   3.876  66.407  1.00  0.00    -0.130 C  
HETATM   14  H   UNL     1     -10.610   1.587  65.500  1.00  0.00     0.000 HD 
HETATM   15  C   UNL     1      -9.520   5.022  67.365  1.00  0.00    -0.137 C  
HETATM   16  C   UNL     1     -11.139   4.282  65.639  1.00  0.00     0.718 C  
HETATM   17  O   UNL     1      -8.682   4.632  68.414  1.00  0.00    -0.097 OA 
HETATM   18  C   UNL     1      -9.022   6.315  66.717  1.00  0.00    -0.128 C  
HETATM   19  O   UNL     1     -12.193   4.675  66.172  1.00  0.00     3.832 OA 
HETATM   20  O   UNL     1     -11.004   4.270  64.332  1.00  0.00    -0.180 OA 
HETATM   21  C   UNL     1      -8.967   7.512  67.714  1.00  0.00    -0.131 C  
HETATM   22  O   UNL     1     -10.462   9.958  70.123  1.00  0.00    -0.251 OA 
HETATM   23  C   UNL     1      -8.831   8.857  67.052  1.00  0.00    -0.138 C  
HETATM   24  C   UNL     1      -8.556  10.000  67.696  1.00  0.00    -0.118 C  
HETATM   25  C   UNL     1     -11.318  11.030  70.062  1.00  0.00    -0.277 C  
HETATM   26  C   UNL     1      -8.291  11.201  66.976  1.00  0.00    -0.144 C  
HETATM   27  C   UNL     1     -10.921  12.365  69.031  1.00  0.00    -0.247 C  
HETATM   28  C   UNL     1      -7.840  12.332  67.540  1.00  0.00    -0.166 C  
HETATM   29  C   UNL     1     -10.454  13.721  68.933  1.00  0.00    -0.183 C  
HETATM   30  C   UNL     1      -7.588  13.472  66.707  1.00  0.00     0.669 C  
HETATM   31  O   UNL     1     -10.070  15.642  70.685  1.00  0.00     0.034 OA 
HETATM   32  C   UNL     1      -9.903  15.262  69.519  1.00  0.00    -0.226 C  
HETATM   33  O   UNL     1      -9.298  16.146  68.511  1.00  0.00    -0.196 OA 
HETATM   34  C   UNL     1      -7.083  14.622  67.153  1.00  0.00     0.161 C  
HETATM   35  C   UNL     1      -7.867  18.429  69.394  1.00  0.00     0.246 C  
HETATM   36  C   UNL     1      -8.834  17.717  68.381  1.00  0.00    -0.285 C  
HETATM   37  C   UNL     1      -7.185  15.811  66.342  1.00  0.00     0.772 C  
HETATM   38  C   UNL     1      -8.100  17.942  66.985  1.00  0.00    -0.238 C  
HETATM   39  C   UNL     1      -6.936  16.972  66.945  1.00  0.00    -0.251 C  
ENDROOT
BRANCH  21  40
HETATM   40  O   UNL     1      -8.089   7.333  68.808  1.00  0.00    -0.121 OA 
BRANCH  40  41
HETATM   41  C   UNL     1      -8.412   7.876  70.092  1.00  0.00    -0.129 C  
HETATM   42  C   UNL     1      -8.766   6.642  70.950  1.00  0.00    -0.138 C  
HETATM   43  O   UNL     1      -7.639   5.755  70.989  1.00  0.00    -0.091 OA 
HETATM   44  H   UNL     1      -7.857   4.995  71.517  1.00  0.00     0.000 HD 
HETATM   45  N   UNL     1      -9.558   5.937  73.202  1.00  0.00    -0.147 NA 
HETATM   46  H   UNL     1      -8.412   7.541  74.860  1.00  0.00     0.000 HD 
HETATM   47  O   UNL     1      -8.191   8.267  74.287  1.00  0.00    -0.254 OA 
HETATM   48  C   UNL     1      -9.127   7.086  72.369  1.00  0.00    -0.132 C  
HETATM   49  C   UNL     1      -6.261   9.695  72.462  1.00  0.00     0.538 C  
HETATM   50  C   UNL     1      -7.915   7.842  72.949  1.00  0.00    -0.124 C  
HETATM   51  C   UNL     1      -7.555   9.026  72.015  1.00  0.00     0.254 C  
HETATM   52  O   UNL     1      -7.344   8.634  70.651  1.00  0.00    -0.051 OA 
HETATM   53  H2  UNL     1      -9.741   6.235  74.160  1.00  0.00     0.000 HD 
HETATM   54  H1  UNL     1     -10.360   5.438  72.818  1.00  0.00     0.000 HD 
ENDBRANCH  40  41
ENDBRANCH  21  40
TORSDOF 2
ENDMDL
MODEL       36
REMARK 921   NORMALIZED FREE ENERGY PREDICTED BY IDOCK:   12.57 KCAL/MOL
REMARK 922        TOTAL FREE ENERGY PREDICTED BY IDOCK:   13.47 KCAL/MOL
REMARK 923 INTER-LIGAND FREE ENERGY PREDICTED BY IDOCK:    2.46 KCAL/MOL
REMARK 924 INTRA-LIGAND FREE ENERGY PREDICTED BY IDOCK:   11.01 KCAL/MOL
REMARK 927      BINDING AFFINITY PREDICTED BY RF-SCORE:    0.00 PKD
ROOT
HETATM    1  C   UNL     1     -12.466  10.404  69.948  1.00  0.00    -0.056 C  
HETATM    2  C   UNL     1     -12.376   9.003  71.038  1.00  0.00    -0.244 C  
HETATM    3  C   UNL     1     -11.954   7.369  70.505  1.00  0.00    -0.108 C  
HETATM    4  O   UNL     1     -13.198   6.601  70.672  1.00  0.00    -0.116 OA 
HETATM    5  C   UNL     1     -10.815   6.214  71.159  1.00  0.00    -0.328 C  
HETATM    6  H   UNL     1     -12.973   5.723  70.386  1.00  0.00     0.000 HD 
HETATM    7  C   UNL     1      -9.497   5.462  70.431  1.00  0.00    -0.164 C  
HETATM    8  O   UNL     1      -8.524   5.149  71.450  1.00  0.00    -0.119 OA 
HETATM    9  C   UNL     1      -9.482   4.039  69.762  1.00  0.00    -0.265 C  
HETATM   10  H   UNL     1      -7.780   4.724  71.040  1.00  0.00     0.000 HD 
HETATM   11  C   UNL     1     -10.141   3.925  68.404  1.00  0.00     0.387 C  
HETATM   12  O   UNL     1      -9.684   2.746  67.707  1.00  0.00    -0.325 OA 
HETATM   13  C   UNL     1      -9.840   5.138  67.503  1.00  0.00    -0.193 C  
HETATM   14  H   UNL     1     -10.098   2.674  66.854  1.00  0.00     0.000 HD 
HETATM   15  C   UNL     1      -9.711   6.435  68.330  1.00  0.00    -0.127 C  
HETATM   16  C   UNL     1     -11.064   5.240  66.630  1.00  0.00     0.326 C  
HETATM   17  O   UNL     1      -8.897   6.314  69.460  1.00  0.00    -0.133 OA 
HETATM   18  C   UNL     1      -9.383   7.711  67.551  1.00  0.00    -0.159 C  
HETATM   19  O   UNL     1     -12.201   5.507  67.056  1.00  0.00     3.678 OA 
HETATM   20  O   UNL     1     -10.837   5.100  65.343  1.00  0.00     0.100 OA 
HETATM   21  C   UNL     1      -9.593   9.006  68.393  1.00  0.00    -0.152 C  
HETATM   22  O   UNL     1     -11.629  11.424  70.400  1.00  0.00    -0.297 OA 
HETATM   23  C   UNL     1      -9.630  10.269  67.577  1.00  0.00    -0.180 C  
HETATM   24  C   UNL     1      -9.589  11.508  68.086  1.00  0.00    -0.187 C  
HETATM   25  C   UNL     1     -12.640  12.322  70.163  1.00  0.00     0.111 C  
HETATM   26  C   UNL     1      -9.471  12.647  67.235  1.00  0.00    -0.199 C  
HETATM   27  C   UNL     1     -12.392  13.577  68.995  1.00  0.00    -0.049 C  
HETATM   28  C   UNL     1      -9.250  13.894  67.676  1.00  0.00    -0.199 C  
HETATM   29  C   UNL     1     -12.145  14.973  68.752  1.00  0.00    -0.215 C  
HETATM   30  C   UNL     1      -9.127  14.958  66.721  1.00  0.00    -0.295 C  
HETATM   31  O   UNL     1     -12.201  17.119  70.268  1.00  0.00     2.159 OA 
HETATM   32  C   UNL     1     -11.893  16.641  69.169  1.00  0.00     0.487 C  
HETATM   33  O   UNL     1     -11.369  17.494  68.090  1.00  0.00     0.028 OA 
HETATM   34  C   UNL     1      -8.848  16.220  67.046  1.00  0.00    -0.228 C  
HETATM   35  C   UNL     1     -10.392  20.071  68.753  1.00  0.00    -0.318 C  
HETATM   36  C   UNL     1     -11.157  19.095  67.788  1.00  0.00    -0.017 C  
HETATM   37  C   UNL     1      -9.082  17.274  66.088  1.00  0.00    -0.193 C  
HETATM   38  C   UNL     1     -10.373  19.279  66.414  1.00  0.00    -0.558 C  
HETATM   39  C   UNL     1      -9.067  18.521  66.554  1.00  0.00    -0.299 C  
ENDROOT
BRANCH  21  40
HETATM   40  O   UNL     1      -8.776   9.104  69.544  1.00  0.00    -0.129 OA 
BRANCH  40  41
HETATM   41  C   UNL     1      -7.644   9.978  69.555  1.00  0.00    -0.133 C  
HETATM   42  C   UNL     1      -7.034   9.831  68.143  1.00  0.00    -0.077 C  
HETATM   43  O   UNL     1      -8.014  10.205  67.164  1.00  0.00    -0.108 OA 
HETATM   44  H   UNL     1      -7.639  10.113  66.296  1.00  0.00     0.000 HD 
HETATM   45  N   UNL     1      -5.137  10.554  66.703  1.00  0.00    -0.041 NA 
HETATM   46  H   UNL     1      -4.729  13.025  67.304  1.00  0.00     0.000 HD 
HETATM   47  O   UNL     1      -5.139  13.073  68.160  1.00  0.00    -0.073 OA 
HETATM   48  C   UNL     1      -5.804  10.731  68.016  1.00  0.00    -0.042 C  
HETATM   49  C   UNL     1      -7.528  13.640  69.913  1.00  0.00     0.843 C  
HETATM   50  C   UNL     1      -6.251  12.182  68.284  1.00  0.00    -0.052 C  
HETATM   51  C   UNL     1      -6.920  12.261  69.681  1.00  0.00     0.230 C  
HETATM   52  O   UNL     1      -7.993  11.326  69.854  1.00  0.00     0.491 OA 
HETATM   53  H2  UNL     1      -4.353  11.198  66.606  1.00  0.00     0.000 HD 
HETATM   54  H1  UNL     1      -4.841   9.594  66.526  1.00  0.00     0.000 HD 
ENDBRANCH  40  41
ENDBRANCH  21  40
TORSDOF 2
ENDMDL
MODEL       37
REMARK 921   NORMALIZED FREE ENERGY PREDICTED BY IDOCK:   15.93 KCAL/MOL
REMARK 922        TOTAL FREE ENERGY PREDICTED BY IDOCK:   17.22 KCAL/MOL
REMARK 923 INTER-LIGAND FREE ENERGY PREDICTED BY IDOCK:   16.65 KCAL/MOL
REMARK 924 INTRA-LIGAND FREE ENERGY PREDICTED BY IDOCK:    0.57 KCAL/MOL
REMARK 927      BINDING AFFINITY PREDICTED BY RF-SCORE:    0.00 PKD
ROOT
HETATM    1  C   UNL     1      -7.441  10.104  66.778  1.00  0.00    -0.104 C  
HETATM    2  C   UNL     1      -8.459   8.720  66.320  1.00  0.00    -0.130 C  
HETATM    3  C   UNL     1      -8.700   7.296  67.343  1.00  0.00    -0.121 C  
HETATM    4  O   UNL     1      -8.022   6.209  66.618  1.00  0.00    -0.103 OA 
HETATM    5  C   UNL     1     -10.164   6.460  67.808  1.00  0.00    -0.196 C  
HETATM    6  H   UNL     1      -8.151   5.445  67.167  1.00  0.00     0.000 HD 
HETATM    7  C   UNL     1     -10.788   6.139  69.338  1.00  0.00    -0.353 C  
HETATM    8  O   UNL     1     -12.225   6.046  69.240  1.00  0.00     0.892 OA 
HETATM    9  C   UNL     1     -10.604   4.816  70.166  1.00  0.00     0.171 C  
HETATM   10  H   UNL     1     -12.577   5.865  70.103  1.00  0.00     0.000 HD 
HETATM   11  C   UNL     1      -9.250   4.605  70.809  1.00  0.00    -0.140 C  
HETATM   12  O   UNL     1      -9.332   3.636  71.877  1.00  0.00    -0.110 OA 
HETATM   13  C   UNL     1      -8.676   5.903  71.407  1.00  0.00    -0.133 C  
HETATM   14  H   UNL     1      -8.481   3.504  72.281  1.00  0.00     0.000 HD 
HETATM   15  C   UNL     1      -9.090   7.136  70.577  1.00  0.00    -0.155 C  
HETATM   16  C   UNL     1      -7.185   5.717  71.287  1.00  0.00    -0.074 C  
HETATM   17  O   UNL     1     -10.450   7.178  70.254  1.00  0.00    -0.209 OA 
HETATM   18  C   UNL     1      -8.606   8.496  71.085  1.00  0.00    -0.207 C  
HETATM   19  O   UNL     1      -6.580   5.639  70.203  1.00  0.00    -0.039 OA 
HETATM   20  O   UNL     1      -6.535   5.719  72.430  1.00  0.00    -0.054 OA 
HETATM   21  C   UNL     1      -8.781   9.634  70.035  1.00  0.00    -0.231 C  
HETATM   22  O   UNL     1      -8.180  11.285  66.728  1.00  0.00    -0.147 OA 
HETATM   23  C   UNL     1      -8.004  10.884  70.349  1.00  0.00     1.696 C  
HETATM   24  C   UNL     1      -8.157  12.056  69.717  1.00  0.00     1.614 C  
HETATM   25  C   UNL     1      -7.126  11.886  66.084  1.00  0.00     0.695 C  
HETATM   26  C   UNL     1      -7.493  13.230  70.180  1.00  0.00     1.665 C  
HETATM   27  C   UNL     1      -6.331  13.226  66.842  1.00  0.00     1.048 C  
HETATM   28  C   UNL     1      -7.732  14.463  69.709  1.00  0.00     0.312 C  
HETATM   29  C   UNL     1      -6.117  14.647  66.869  1.00  0.00     1.493 C  
HETATM   30  C   UNL     1      -7.017  15.573  70.270  1.00  0.00     0.255 C  
HETATM   31  O   UNL     1      -6.701  16.606  65.218  1.00  0.00     1.765 OA 
HETATM   32  C   UNL     1      -6.291  16.294  66.343  1.00  0.00     0.823 C  
HETATM   33  O   UNL     1      -5.827  17.318  67.292  1.00  0.00    -0.123 OA 
HETATM   34  C   UNL     1      -7.220  16.843  69.920  1.00  0.00     0.673 C  
HETATM   35  C   UNL     1      -6.542  20.021  66.827  1.00  0.00    -0.235 C  
HETATM   36  C   UNL     1      -5.513  18.931  67.297  1.00  0.00    -0.156 C  
HETATM   37  C   UNL     1      -6.242  17.846  70.264  1.00  0.00     0.206 C  
HETATM   38  C   UNL     1      -5.162  19.401  68.778  1.00  0.00    -0.200 C  
HETATM   39  C   UNL     1      -6.345  19.021  69.647  1.00  0.00    -0.280 C  
ENDROOT
BRANCH  21  40
HETATM   40  O   UNL     1     -10.118   9.885  69.649  1.00  0.00    -0.202 OA 
BRANCH  40  41
HETATM   41  C   UNL     1     -10.406  10.800  68.587  1.00  0.00    -0.192 C  
HETATM   42  C   UNL     1     -11.021   9.917  67.479  1.00  0.00    -0.173 C  
HETATM   43  O   UNL     1     -12.196   9.270  67.989  1.00  0.00     1.968 OA 
HETATM   44  H   UNL     1     -12.573   8.726  67.307  1.00  0.00     0.000 HD 
HETATM   45  N   UNL     1     -11.901   9.960  65.152  1.00  0.00     4.070 NA 
HETATM   46  H   UNL     1     -13.167  12.193  64.943  1.00  0.00     0.000 HD 
HETATM   47  O   UNL     1     -12.776  12.690  65.653  1.00  0.00    -0.540 OA 
HETATM   48  C   UNL     1     -11.387  10.783  66.273  1.00  0.00     0.422 C  
HETATM   49  C   UNL     1     -12.762  13.627  68.520  1.00  0.00     0.962 C  
HETATM   50  C   UNL     1     -12.384  11.858  66.750  1.00  0.00     1.112 C  
HETATM   51  C   UNL     1     -11.747  12.668  67.909  1.00  0.00    -0.358 C  
HETATM   52  O   UNL     1     -11.281  11.849  68.989  1.00  0.00    -0.227 OA 
HETATM   53  H2  UNL     1     -12.196  10.551  64.375  1.00  0.00     0.000 HD 
HETATM   54  H1  UNL     1     -11.242   9.249  64.836  1.00  0.00     0.000 HD 
ENDBRANCH  40  41
ENDBRANCH  21  40
TORSDOF 2
ENDMDL
MODEL       38
REMARK 921   NORMALIZED FREE ENERGY PREDICTED BY IDOCK:   16.32 KCAL/MOL
REMARK 922        TOTAL FREE ENERGY PREDICTED BY IDOCK:   17.66 KCAL/MOL
REMARK 923 INTER-LIGAND FREE ENERGY PREDICTED BY IDOCK:   17.48 KCAL/MOL
REMARK 924 INTRA-LIGAND FREE ENERGY PREDICTED BY IDOCK:    0.18 KCAL/MOL
REMARK 927      BINDING AFFINITY PREDICTED BY RF-SCORE:    0.00 PKD
ROOT
HETATM    1  C   UNL     1      -7.295  11.466  65.392  1.00  0.00     0.812 C  
HETATM    2  C   UNL     1      -6.555  13.014  65.858  1.00  0.00     4.864 C  
HETATM    3  C   UNL     1      -7.382  14.249  66.819  1.00  0.00     1.005 C  
HETATM    4  O   UNL     1      -7.579  15.366  65.882  1.00  0.00     0.727 OA 
HETATM    5  C   UNL     1      -6.853  15.145  68.225  1.00  0.00    -0.119 C  
HETATM    6  H   UNL     1      -8.023  16.029  66.397  1.00  0.00     0.000 HD 
HETATM    7  C   UNL     1      -7.534  15.253  69.760  1.00  0.00    -0.122 C  
HETATM    8  O   UNL     1      -6.485  15.521  70.713  1.00  0.00     0.235 OA 
HETATM    9  C   UNL     1      -8.503  16.378  70.277  1.00  0.00     2.036 C  
HETATM   10  H   UNL     1      -6.869  15.582  71.580  1.00  0.00     0.000 HD 
HETATM   11  C   UNL     1      -9.933  16.319  69.781  1.00  0.00    -0.052 C  
HETATM   12  O   UNL     1     -10.808  17.083  70.638  1.00  0.00    -0.114 OA 
HETATM   13  C   UNL     1     -10.477  14.879  69.732  1.00  0.00    -0.151 C  
HETATM   14  H   UNL     1     -11.705  17.045  70.327  1.00  0.00     0.000 HD 
HETATM   15  C   UNL     1      -9.365  13.868  69.381  1.00  0.00     0.667 C  
HETATM   16  C   UNL     1     -11.472  14.917  68.600  1.00  0.00    -0.306 C  
HETATM   17  O   UNL     1      -8.186  14.036  70.115  1.00  0.00     1.232 OA 
HETATM   18  C   UNL     1      -9.773  12.394  69.328  1.00  0.00     0.674 C  
HETATM   19  O   UNL     1     -11.165  15.120  67.412  1.00  0.00    -0.320 OA 
HETATM   20  O   UNL     1     -12.709  14.638  68.944  1.00  0.00     0.157 OA 
HETATM   21  C   UNL     1      -8.696  11.490  68.657  1.00  0.00    -0.103 C  
HETATM   22  O   UNL     1      -6.504  10.402  65.823  1.00  0.00    -0.107 OA 
HETATM   23  C   UNL     1      -9.196  10.125  68.267  1.00  0.00    -0.130 C  
HETATM   24  C   UNL     1      -8.415   9.110  67.873  1.00  0.00    -0.117 C  
HETATM   25  C   UNL     1      -6.673   9.814  64.593  1.00  0.00    -0.113 C  
HETATM   26  C   UNL     1      -8.955   7.805  67.671  1.00  0.00    -0.128 C  
HETATM   27  C   UNL     1      -7.472   8.280  64.498  1.00  0.00    -0.101 C  
HETATM   28  C   UNL     1      -8.212   6.711  67.448  1.00  0.00    -0.121 C  
HETATM   29  C   UNL     1      -7.349   6.862  64.296  1.00  0.00    -0.085 C  
HETATM   30  C   UNL     1      -8.868   5.446  67.283  1.00  0.00    -0.105 C  
HETATM   31  O   UNL     1      -5.405   5.308  63.451  1.00  0.00    -0.012 OA 
HETATM   32  C   UNL     1      -6.528   5.366  63.968  1.00  0.00    -0.029 C  
HETATM   33  O   UNL     1      -7.294   4.143  64.257  1.00  0.00    -0.067 OA 
HETATM   34  C   UNL     1      -8.226   4.290  67.118  1.00  0.00    -0.100 C  
HETATM   35  C   UNL     1      -5.922   1.663  64.304  1.00  0.00    -0.013 C  
HETATM   36  C   UNL     1      -7.186   2.531  63.960  1.00  0.00    -0.056 C  
HETATM   37  C   UNL     1      -8.939   3.140  66.618  1.00  0.00    -0.168 C  
HETATM   38  C   UNL     1      -8.351   1.767  64.731  1.00  0.00    -0.081 C  
HETATM   39  C   UNL     1      -8.202   2.113  66.199  1.00  0.00    -0.089 C  
ENDROOT
BRANCH  21  40
HETATM   40  O   UNL     1      -7.447  11.461  69.321  1.00  0.00    -0.093 OA 
BRANCH  40  41
HETATM   41  C   UNL     1      -7.145  10.417  70.252  1.00  0.00    -0.049 C  
HETATM   42  C   UNL     1      -6.389  11.131  71.394  1.00  0.00     1.441 C  
HETATM   43  O   UNL     1      -7.233  12.148  71.954  1.00  0.00     5.549 OA 
HETATM   44  H   UNL     1      -6.768  12.587  72.657  1.00  0.00     0.000 HD 
HETATM   45  N   UNL     1      -5.207  10.747  73.550  1.00  0.00    -0.240 NA 
HETATM   46  H   UNL     1      -6.554   8.906  74.747  1.00  0.00     0.000 HD 
HETATM   47  O   UNL     1      -7.017   8.515  74.015  1.00  0.00    -0.216 OA 
HETATM   48  C   UNL     1      -6.011  10.116  72.475  1.00  0.00     0.844 C  
HETATM   49  C   UNL     1      -9.437   8.318  72.225  1.00  0.00    -0.341 C  
HETATM   50  C   UNL     1      -7.311   9.464  72.986  1.00  0.00     1.376 C  
HETATM   51  C   UNL     1      -8.066   8.825  71.791  1.00  0.00    -0.065 C  
HETATM   52  O   UNL     1      -8.310   9.741  70.714  1.00  0.00    -0.229 OA 
HETATM   53  H2  UNL     1      -5.009  10.077  74.293  1.00  0.00     0.000 HD 
HETATM   54  H1  UNL     1      -4.347  11.178  73.213  1.00  0.00     0.000 HD 
ENDBRANCH  40  41
ENDBRANCH  21  40
TORSDOF 2
ENDMDL
MODEL       39
REMARK 921   NORMALIZED FREE ENERGY PREDICTED BY IDOCK:   16.76 KCAL/MOL
REMARK 922        TOTAL FREE ENERGY PREDICTED BY IDOCK:   18.15 KCAL/MOL
REMARK 923 INTER-LIGAND FREE ENERGY PREDICTED BY IDOCK:   18.11 KCAL/MOL
REMARK 924 INTRA-LIGAND FREE ENERGY PREDICTED BY IDOCK:    0.04 KCAL/MOL
REMARK 927      BINDING AFFINITY PREDICTED BY RF-SCORE:    0.00 PKD
ROOT
HETATM    1  C   UNL     1      -9.082   7.577  70.340  1.00  0.00    -0.153 C  
HETATM    2  C   UNL     1      -7.648   6.576  70.020  1.00  0.00    -0.100 C  
HETATM    3  C   UNL     1      -7.551   5.389  68.711  1.00  0.00    -0.079 C  
HETATM    4  O   UNL     1      -7.504   4.090  69.402  1.00  0.00    -0.053 OA 
HETATM    5  C   UNL     1      -6.312   5.117  67.507  1.00  0.00    -0.040 C  
HETATM    6  H   UNL     1      -7.452   3.452  68.700  1.00  0.00     0.000 HD 
HETATM    7  C   UNL     1      -6.412   5.131  65.827  1.00  0.00    -0.040 C  
HETATM    8  O   UNL     1      -5.126   5.508  65.291  1.00  0.00    -0.009 OA 
HETATM    9  C   UNL     1      -6.609   3.884  64.890  1.00  0.00    -0.043 C  
HETATM   10  H   UNL     1      -5.183   5.517  64.343  1.00  0.00     0.000 HD 
HETATM   11  C   UNL     1      -8.000   3.287  64.846  1.00  0.00    -0.086 C  
HETATM   12  O   UNL     1      -8.176   2.479  63.662  1.00  0.00    -0.080 OA 
HETATM   13  C   UNL     1      -9.100   4.364  64.837  1.00  0.00    -0.151 C  
HETATM   14  H   UNL     1      -9.049   2.104  63.634  1.00  0.00     0.000 HD 
HETATM   15  C   UNL     1      -8.684   5.601  65.660  1.00  0.00    -0.151 C  
HETATM   16  C   UNL     1     -10.258   3.689  65.529  1.00  0.00     0.181 C  
HETATM   17  O   UNL     1      -7.394   6.064  65.384  1.00  0.00    -0.072 OA 
HETATM   18  C   UNL     1      -9.684   6.759  65.707  1.00  0.00     0.444 C  
HETATM   19  O   UNL     1     -10.246   3.339  66.722  1.00  0.00     0.624 OA 
HETATM   20  O   UNL     1     -11.340   3.560  64.794  1.00  0.00     0.270 OA 
HETATM   21  C   UNL     1      -9.342   7.811  66.804  1.00  0.00    -0.180 C  
HETATM   22  O   UNL     1      -8.740   8.929  70.327  1.00  0.00    -0.142 OA 
HETATM   23  C   UNL     1     -10.470   8.756  67.121  1.00  0.00    -0.354 C  
HETATM   24  C   UNL     1     -10.351   9.864  67.866  1.00  0.00    -0.256 C  
HETATM   25  C   UNL     1      -9.488   9.101  71.466  1.00  0.00    -0.169 C  
HETATM   26  C   UNL     1     -11.433  10.785  67.987  1.00  0.00    -0.333 C  
HETATM   27  C   UNL     1     -10.861  10.156  71.418  1.00  0.00     0.444 C  
HETATM   28  C   UNL     1     -11.332  11.990  68.567  1.00  0.00    -0.323 C  
HETATM   29  C   UNL     1     -11.424  11.427  71.788  1.00  0.00     2.837 C  
HETATM   30  C   UNL     1     -12.486  12.841  68.610  1.00  0.00     0.492 C  
HETATM   31  O   UNL     1     -10.670  13.343  73.420  1.00  0.00     7.054 OA 
HETATM   32  C   UNL     1     -11.460  12.997  72.533  1.00  0.00     5.209 C  
HETATM   33  O   UNL     1     -12.560  13.876  72.110  1.00  0.00    -0.255 OA 
HETATM   34  C   UNL     1     -12.481  14.078  69.106  1.00  0.00     0.011 C  
HETATM   35  C   UNL     1     -12.441  16.624  72.799  1.00  0.00     0.088 C  
HETATM   36  C   UNL     1     -13.247  15.292  72.583  1.00  0.00    -0.455 C  
HETATM   37  C   UNL     1     -13.730  14.725  69.427  1.00  0.00     3.140 C  
HETATM   38  C   UNL     1     -14.356  15.727  71.524  1.00  0.00     0.011 C  
HETATM   39  C   UNL     1     -13.661  15.821  70.180  1.00  0.00     1.184 C  
ENDROOT
BRANCH  21  40
HETATM   40  O   UNL     1      -8.096   8.460  66.637  1.00  0.00    -0.099 OA 
BRANCH  40  41
HETATM   41  C   UNL     1      -8.001   9.656  65.856  1.00  0.00    -0.112 C  
HETATM   42  C   UNL     1      -6.699   9.478  65.045  1.00  0.00    -0.089 C  
HETATM   43  O   UNL     1      -6.803   8.295  64.239  1.00  0.00    -0.065 OA 
HETATM   44  H   UNL     1      -6.001   8.186  63.740  1.00  0.00     0.000 HD 
HETATM   45  N   UNL     1      -5.193  10.607  63.416  1.00  0.00    -0.168 NA 
HETATM   46  H   UNL     1      -6.755  11.888  61.818  1.00  0.00     0.000 HD 
HETATM   47  O   UNL     1      -7.543  11.950  62.346  1.00  0.00     0.375 OA 
HETATM   48  C   UNL     1      -6.479  10.699  64.149  1.00  0.00     0.178 C  
HETATM   49  C   UNL     1     -10.234  10.892  63.204  1.00  0.00    -0.253 C  
HETATM   50  C   UNL     1      -7.703  10.830  63.221  1.00  0.00     0.165 C  
HETATM   51  C   UNL     1      -8.989  10.932  64.083  1.00  0.00    -0.101 C  
HETATM   52  O   UNL     1      -9.136   9.856  65.020  1.00  0.00    -0.184 OA 
HETATM   53  H2  UNL     1      -5.083  11.396  62.780  1.00  0.00     0.000 HD 
HETATM   54  H1  UNL     1      -4.383  10.521  64.030  1.00  0.00     0.000 HD 
ENDBRANCH  40  41
ENDBRANCH  21  40
TORSDOF 2
ENDMDL
MODEL       40
REMARK 921   NORMALIZED FREE ENERGY PREDICTED BY IDOCK:   16.91 KCAL/MOL
REMARK 922        TOTAL FREE ENERGY PREDICTED BY IDOCK:   18.31 KCAL/MOL
REMARK 923 INTER-LIGAND FREE ENERGY PREDICTED BY IDOCK:    4.65 KCAL/MOL
REMARK 924 INTRA-LIGAND FREE ENERGY PREDICTED BY IDOCK:   13.66 KCAL/MOL
REMARK 927      BINDING AFFINITY PREDICTED BY RF-SCORE:    0.00 PKD
ROOT
HETATM    1  C   UNL     1      -6.869  10.239  69.601  1.00  0.00    -0.094 C  
HETATM    2  C   UNL     1      -5.771   8.842  69.664  1.00  0.00    -0.033 C  
HETATM    3  C   UNL     1      -6.307   7.184  69.970  1.00  0.00    -0.031 C  
HETATM    4  O   UNL     1      -5.751   6.861  71.294  1.00  0.00    -0.034 OA 
HETATM    5  C   UNL     1      -5.939   5.693  69.134  1.00  0.00    -0.024 C  
HETATM    6  H   UNL     1      -6.038   5.971  71.459  1.00  0.00     0.000 HD 
HETATM    7  C   UNL     1      -6.967   4.580  68.400  1.00  0.00    -0.052 C  
HETATM    8  O   UNL     1      -6.250   3.923  67.334  1.00  0.00    -0.034 OA 
HETATM    9  C   UNL     1      -7.530   3.261  69.043  1.00  0.00    -0.049 C  
HETATM   10  H   UNL     1      -6.830   3.295  66.919  1.00  0.00     0.000 HD 
HETATM   11  C   UNL     1      -8.637   3.425  70.063  1.00  0.00    -0.062 C  
HETATM   12  O   UNL     1      -9.366   2.191  70.236  1.00  0.00    -0.112 OA 
HETATM   13  C   UNL     1      -9.653   4.508  69.654  1.00  0.00    -0.270 C  
HETATM   14  H   UNL     1     -10.060   2.295  70.876  1.00  0.00     0.000 HD 
HETATM   15  C   UNL     1      -8.973   5.655  68.878  1.00  0.00    -0.111 C  
HETATM   16  C   UNL     1     -10.148   5.042  70.974  1.00  0.00    -0.227 C  
HETATM   17  O   UNL     1      -8.116   5.227  67.860  1.00  0.00    -0.099 OA 
HETATM   18  C   UNL     1      -9.885   6.784  68.390  1.00  0.00    -0.136 C  
HETATM   19  O   UNL     1      -9.432   5.651  71.789  1.00  0.00    -0.148 OA 
HETATM   20  O   UNL     1     -11.436   4.889  71.184  1.00  0.00     0.780 OA 
HETATM   21  C   UNL     1      -9.093   8.040  67.915  1.00  0.00    -0.132 C  
HETATM   22  O   UNL     1      -6.732  10.908  68.385  1.00  0.00    -0.058 OA 
HETATM   23  C   UNL     1      -9.936   9.278  67.771  1.00  0.00    -0.235 C  
HETATM   24  C   UNL     1      -9.531  10.412  67.183  1.00  0.00    -0.183 C  
HETATM   25  C   UNL     1      -6.724  12.097  69.071  1.00  0.00    -0.103 C  
HETATM   26  C   UNL     1     -10.444  11.483  66.950  1.00  0.00    -0.270 C  
HETATM   27  C   UNL     1      -7.984  13.248  68.773  1.00  0.00     0.034 C  
HETATM   28  C   UNL     1     -10.156  12.569  66.217  1.00  0.00    -0.264 C  
HETATM   29  C   UNL     1      -8.366  14.494  68.165  1.00  0.00    -0.147 C  
HETATM   30  C   UNL     1     -11.166  13.572  66.034  1.00  0.00    -0.305 C  
HETATM   31  O   UNL     1      -7.022  16.475  67.080  1.00  0.00    -0.156 OA 
HETATM   32  C   UNL     1      -8.134  15.968  67.274  1.00  0.00    -0.177 C  
HETATM   33  O   UNL     1      -9.364  16.645  66.834  1.00  0.00    -0.218 OA 
HETATM   34  C   UNL     1     -11.007  14.658  65.277  1.00  0.00    -0.374 C  
HETATM   35  C   UNL     1      -9.155  18.728  64.922  1.00  0.00     3.683 C  
HETATM   36  C   UNL     1      -9.805  18.099  66.207  1.00  0.00    -0.310 C  
HETATM   37  C   UNL     1     -11.917  15.768  65.419  1.00  0.00     0.667 C  
HETATM   38  C   UNL     1     -11.353  18.071  65.834  1.00  0.00     1.220 C  
HETATM   39  C   UNL     1     -11.547  16.921  64.866  1.00  0.00     0.772 C  
ENDROOT
BRANCH  21  40
HETATM   40  O   UNL     1      -8.229   7.817  66.818  1.00  0.00    -0.115 OA 
BRANCH  40  41
HETATM   41  C   UNL     1      -7.538   8.911  66.207  1.00  0.00    -0.095 C  
HETATM   42  C   UNL     1      -7.075   8.355  64.842  1.00  0.00    -0.079 C  
HETATM   43  O   UNL     1      -8.223   7.935  64.090  1.00  0.00    -0.285 OA 
HETATM   44  H   UNL     1      -7.938   7.593  63.251  1.00  0.00     0.000 HD 
HETATM   45  N   UNL     1      -5.783   8.921  62.791  1.00  0.00    -0.082 NA 
HETATM   46  H   UNL     1      -6.317  11.394  62.310  1.00  0.00     0.000 HD 
HETATM   47  O   UNL     1      -6.619  11.684  63.164  1.00  0.00     1.414 OA 
HETATM   48  C   UNL     1      -6.320   9.441  64.073  1.00  0.00    -0.094 C  
HETATM   49  C   UNL     1      -8.834  12.189  65.148  1.00  0.00     0.727 C  
HETATM   50  C   UNL     1      -7.270  10.641  63.895  1.00  0.00     0.248 C  
HETATM   51  C   UNL     1      -7.762  11.115  65.288  1.00  0.00     0.418 C  
HETATM   52  O   UNL     1      -8.355  10.069  66.070  1.00  0.00    -0.120 OA 
HETATM   53  H2  UNL     1      -5.332   9.665  62.261  1.00  0.00     0.000 HD 
HETATM   54  H1  UNL     1      -5.155   8.127  62.909  1.00  0.00     0.000 HD 
ENDBRANCH  40  41
ENDBRANCH  21  40
TORSDOF 2
ENDMDL
MODEL       41
REMARK 921   NORMALIZED FREE ENERGY PREDICTED BY IDOCK:   18.80 KCAL/MOL
REMARK 922        TOTAL FREE ENERGY PREDICTED BY IDOCK:   20.43 KCAL/MOL
REMARK 923 INTER-LIGAND FREE ENERGY PREDICTED BY IDOCK:    4.82 KCAL/MOL
REMARK 924 INTRA-LIGAND FREE ENERGY PREDICTED BY IDOCK:   15.61 KCAL/MOL
REMARK 927      BINDING AFFINITY PREDICTED BY RF-SCORE:    0.00 PKD
ROOT
HETATM    1  C   UNL     1     -11.529  11.266  70.450  1.00  0.00    -0.107 C  
HETATM    2  C   UNL     1     -12.703  12.270  69.570  1.00  0.00     0.634 C  
HETATM    3  C   UNL     1     -12.308  13.834  68.843  1.00  0.00    -0.032 C  
HETATM    4  O   UNL     1     -13.056  14.810  69.652  1.00  0.00    -0.377 OA 
HETATM    5  C   UNL     1     -12.644  14.468  67.248  1.00  0.00     0.488 C  
HETATM    6  H   UNL     1     -12.844  15.650  69.262  1.00  0.00     0.000 HD 
HETATM    7  C   UNL     1     -11.591  15.041  66.066  1.00  0.00    -0.158 C  
HETATM    8  O   UNL     1     -12.193  14.833  64.771  1.00  0.00    -0.408 OA 
HETATM    9  C   UNL     1     -11.196  16.541  65.813  1.00  0.00     0.298 C  
HETATM   10  H   UNL     1     -11.599  15.156  64.104  1.00  0.00     0.000 HD 
HETATM   11  C   UNL     1     -10.229  17.161  66.800  1.00  0.00    -0.311 C  
HETATM   12  O   UNL     1      -9.602  18.334  66.240  1.00  0.00    -0.378 OA 
HETATM   13  C   UNL     1      -9.107  16.189  67.210  1.00  0.00    -0.215 C  
HETATM   14  H   UNL     1      -8.995  18.723  66.860  1.00  0.00     0.000 HD 
HETATM   15  C   UNL     1      -9.610  14.731  67.245  1.00  0.00    -0.223 C  
HETATM   16  C   UNL     1      -8.766  16.618  68.614  1.00  0.00    -0.250 C  
HETATM   17  O   UNL     1     -10.345  14.352  66.117  1.00  0.00    -0.280 OA 
HETATM   18  C   UNL     1      -8.578  13.661  67.612  1.00  0.00    -0.185 C  
HETATM   19  O   UNL     1      -9.550  16.532  69.577  1.00  0.00    -0.164 OA 
HETATM   20  O   UNL     1      -7.529  17.028  68.781  1.00  0.00    -0.221 OA 
HETATM   21  C   UNL     1      -9.226  12.283  67.943  1.00  0.00    -0.190 C  
HETATM   22  O   UNL     1     -11.462   9.992  69.886  1.00  0.00    -0.244 OA 
HETATM   23  C   UNL     1      -8.302  11.323  68.643  1.00  0.00    -0.146 C  
HETATM   24  C   UNL     1      -8.559  10.022  68.839  1.00  0.00    -0.138 C  
HETATM   25  C   UNL     1     -11.496   9.459  71.151  1.00  0.00    -0.352 C  
HETATM   26  C   UNL     1      -7.564   9.151  69.373  1.00  0.00    -0.079 C  
HETATM   27  C   UNL     1     -10.144   8.530  71.708  1.00  0.00    -0.351 C  
HETATM   28  C   UNL     1      -7.688   7.817  69.434  1.00  0.00    -0.106 C  
HETATM   29  C   UNL     1      -9.613   7.229  72.012  1.00  0.00    -0.169 C  
HETATM   30  C   UNL     1      -6.608   7.041  69.972  1.00  0.00    -0.044 C  
HETATM   31  O   UNL     1     -10.683   4.842  72.262  1.00  0.00    -0.191 OA 
HETATM   32  C   UNL     1      -9.638   5.500  72.188  1.00  0.00    -0.150 C  
HETATM   33  O   UNL     1      -8.324   4.858  72.341  1.00  0.00    -0.116 OA 
HETATM   34  C   UNL     1      -6.601   5.710  70.023  1.00  0.00    -0.043 C  
HETATM   35  C   UNL     1      -8.154   2.040  72.083  1.00  0.00    -0.053 C  
HETATM   36  C   UNL     1      -7.721   3.388  72.763  1.00  0.00    -0.060 C  
HETATM   37  C   UNL     1      -5.657   5.031  70.877  1.00  0.00    -0.012 C  
HETATM   38  C   UNL     1      -6.140   3.384  72.564  1.00  0.00    -0.009 C  
HETATM   39  C   UNL     1      -5.883   3.740  71.114  1.00  0.00    -0.013 C  
ENDROOT
BRANCH  21  40
HETATM   40  O   UNL     1      -9.944  11.693  66.877  1.00  0.00    -0.198 OA 
BRANCH  40  41
HETATM   41  C   UNL     1     -10.773  12.496  66.030  1.00  0.00    -0.262 C  
HETATM   42  C   UNL     1      -9.826  12.966  64.904  1.00  0.00    -0.026 C  
HETATM   43  O   UNL     1      -9.289  11.818  64.230  1.00  0.00    -0.431 OA 
HETATM   44  H   UNL     1      -8.706  12.108  63.537  1.00  0.00     0.000 HD 
HETATM   45  N   UNL     1      -9.703  14.381  62.861  1.00  0.00     8.261 NA 
HETATM   46  H   UNL     1     -11.971  14.070  61.680  1.00  0.00     0.000 HD 
HETATM   47  O   UNL     1     -12.509  13.760  62.399  1.00  0.00     0.354 OA 
HETATM   48  C   UNL     1     -10.598  13.838  63.912  1.00  0.00     0.595 C  
HETATM   49  C   UNL     1     -13.700  11.516  64.025  1.00  0.00     2.031 C  
HETATM   50  C   UNL     1     -11.761  12.996  63.350  1.00  0.00    -0.415 C  
HETATM   51  C   UNL     1     -12.639  12.490  64.524  1.00  0.00    -0.421 C  
HETATM   52  O   UNL     1     -11.898  11.782  65.527  1.00  0.00    -0.308 OA 
HETATM   53  H2  UNL     1     -10.236  14.913  62.173  1.00  0.00     0.000 HD 
HETATM   54  H1  UNL     1      -8.934  14.937  63.232  1.00  0.00     0.000 HD 
ENDBRANCH  40  41
ENDBRANCH  21  40
TORSDOF 2
ENDMDL
MODEL       42
REMARK 921   NORMALIZED FREE ENERGY PREDICTED BY IDOCK:   19.26 KCAL/MOL
REMARK 922        TOTAL FREE ENERGY PREDICTED BY IDOCK:   20.94 KCAL/MOL
REMARK 923 INTER-LIGAND FREE ENERGY PREDICTED BY IDOCK:   19.16 KCAL/MOL
REMARK 924 INTRA-LIGAND FREE ENERGY PREDICTED BY IDOCK:    1.78 KCAL/MOL
REMARK 927      BINDING AFFINITY PREDICTED BY RF-SCORE:    0.00 PKD
ROOT
HETATM    1  C   UNL     1      -8.179  12.727  71.387  1.00  0.00    12.138 C  
HETATM    2  C   UNL     1      -7.560  11.086  71.685  1.00  0.00     6.257 C  
HETATM    3  C   UNL     1      -8.598   9.682  71.970  1.00  0.00     2.080 C  
HETATM    4  O   UNL     1      -8.354   9.330  73.378  1.00  0.00     0.564 OA 
HETATM    5  C   UNL     1      -8.569   8.081  71.266  1.00  0.00    -0.145 C  
HETATM    6  H   UNL     1      -8.911   8.576  73.532  1.00  0.00     0.000 HD 
HETATM    7  C   UNL     1      -9.763   7.246  70.424  1.00  0.00    -0.172 C  
HETATM    8  O   UNL     1      -9.128   6.322  69.515  1.00  0.00    -0.136 OA 
HETATM    9  C   UNL     1     -10.775   6.201  71.022  1.00  0.00    -0.317 C  
HETATM   10  H   UNL     1      -9.802   5.851  69.040  1.00  0.00     0.000 HD 
HETATM   11  C   UNL     1     -11.918   6.762  71.843  1.00  0.00    -0.333 C  
HETATM   12  O   UNL     1     -12.994   5.805  71.948  1.00  0.00     0.562 OA 
HETATM   13  C   UNL     1     -12.502   8.048  71.231  1.00  0.00    -0.270 C  
HETATM   14  H   UNL     1     -13.711   6.157  72.463  1.00  0.00     0.000 HD 
HETATM   15  C   UNL     1     -11.412   8.883  70.528  1.00  0.00    -0.200 C  
HETATM   16  C   UNL     1     -13.000   8.813  72.431  1.00  0.00    -0.383 C  
HETATM   17  O   UNL     1     -10.583   8.143  69.679  1.00  0.00    -0.227 OA 
HETATM   18  C   UNL     1     -11.873  10.177  69.852  1.00  0.00    -0.206 C  
HETATM   19  O   UNL     1     -12.260   9.262  73.324  1.00  0.00     0.901 OA 
HETATM   20  O   UNL     1     -14.293   9.051  72.437  1.00  0.00    -0.499 OA 
HETATM   21  C   UNL     1     -10.688  11.111  69.459  1.00  0.00    -0.143 C  
HETATM   22  O   UNL     1      -7.680  13.220  70.182  1.00  0.00     1.512 OA 
HETATM   23  C   UNL     1     -11.101  12.520  69.129  1.00  0.00    -0.254 C  
HETATM   24  C   UNL     1     -10.301  13.437  68.567  1.00  0.00    -0.240 C  
HETATM   25  C   UNL     1      -7.420  14.413  70.810  1.00  0.00     1.587 C  
HETATM   26  C   UNL     1     -10.816  14.699  68.145  1.00  0.00    -0.256 C  
HETATM   27  C   UNL     1      -8.230  15.844  70.266  1.00  0.00     1.284 C  
HETATM   28  C   UNL     1     -10.121  15.591  67.424  1.00  0.00    -0.246 C  
HETATM   29  C   UNL     1      -8.139  17.089  69.552  1.00  0.00     0.474 C  
HETATM   30  C   UNL     1     -10.754  16.819  67.038  1.00  0.00    -0.161 C  
HETATM   31  O   UNL     1      -6.133  18.506  68.616  1.00  0.00    -0.196 OA 
HETATM   32  C   UNL     1      -7.361  18.354  68.649  1.00  0.00    -0.295 C  
HETATM   33  O   UNL     1      -8.262  19.311  67.989  1.00  0.00    -0.291 OA 
HETATM   34  C   UNL     1     -10.178  17.745  66.273  1.00  0.00    -0.364 C  
HETATM   35  C   UNL     1      -7.180  21.075  66.051  1.00  0.00     0.204 C  
HETATM   36  C   UNL     1      -8.162  20.770  67.239  1.00  0.00    -0.160 C  
HETATM   37  C   UNL     1     -10.732  19.076  66.220  1.00  0.00    -0.406 C  
HETATM   38  C   UNL     1      -9.581  21.151  66.623  1.00  0.00     0.591 C  
HETATM   39  C   UNL     1      -9.965  20.024  65.685  1.00  0.00    -0.254 C  
ENDROOT
BRANCH  21  40
HETATM   40  O   UNL     1      -9.781  10.558  68.525  1.00  0.00    -0.153 OA 
BRANCH  40  41
HETATM   41  C   UNL     1      -9.620  11.152  67.233  1.00  0.00    -0.165 C  
HETATM   42  C   UNL     1      -9.192   9.977  66.325  1.00  0.00    -0.162 C  
HETATM   43  O   UNL     1     -10.211   8.967  66.349  1.00  0.00    -0.283 OA 
HETATM   44  H   UNL     1      -9.947   8.245  65.790  1.00  0.00     0.000 HD 
HETATM   45  N   UNL     1      -8.497   9.399  64.006  1.00  0.00    -0.184 NA 
HETATM   46  H   UNL     1      -9.941  10.881  62.472  1.00  0.00     0.000 HD 
HETATM   47  O   UNL     1     -10.199  11.569  63.075  1.00  0.00    -0.334 OA 
HETATM   48  C   UNL     1      -8.993  10.479  64.893  1.00  0.00    -0.199 C  
HETATM   49  C   UNL     1     -12.137  12.741  65.067  1.00  0.00    -0.491 C  
HETATM   50  C   UNL     1     -10.323  11.097  64.420  1.00  0.00    -0.344 C  
HETATM   51  C   UNL     1     -10.744  12.220  65.404  1.00  0.00    -0.284 C  
HETATM   52  O   UNL     1     -10.806  11.788  66.770  1.00  0.00    -0.245 OA 
HETATM   53  H2  UNL     1      -8.422   9.728  63.044  1.00  0.00     0.000 HD 
HETATM   54  H1  UNL     1      -7.617   8.990  64.319  1.00  0.00     0.000 HD 
ENDBRANCH  40  41
ENDBRANCH  21  40
TORSDOF 2
ENDMDL
MODEL       43
REMARK 921   NORMALIZED FREE ENERGY PREDICTED BY IDOCK:   19.28 KCAL/MOL
REMARK 922        TOTAL FREE ENERGY PREDICTED BY IDOCK:   20.97 KCAL/MOL
REMARK 923 INTER-LIGAND FREE ENERGY PREDICTED BY IDOCK:   20.83 KCAL/MOL
REMARK 924 INTRA-LIGAND FREE ENERGY PREDICTED BY IDOCK:    0.13 KCAL/MOL
REMARK 927      BINDING AFFINITY PREDICTED BY RF-SCORE:    0.00 PKD
ROOT
HETATM    1  C   UNL     1     -10.514  11.161  69.237  1.00  0.00    -0.151 C  
HETATM    2  C   UNL     1      -9.607   9.850  70.024  1.00  0.00    -0.260 C  
HETATM    3  C   UNL     1      -9.218   8.314  69.237  1.00  0.00    -0.151 C  
HETATM    4  O   UNL     1     -10.024   7.319  69.964  1.00  0.00    -0.182 OA 
HETATM    5  C   UNL     1      -7.709   7.436  69.129  1.00  0.00    -0.111 C  
HETATM    6  H   UNL     1      -9.815   6.494  69.541  1.00  0.00     0.000 HD 
HETATM    7  C   UNL     1      -6.842   6.935  67.777  1.00  0.00    -0.081 C  
HETATM    8  O   UNL     1      -5.443   6.863  68.126  1.00  0.00    -0.017 OA 
HETATM    9  C   UNL     1      -6.903   5.519  67.097  1.00  0.00    -0.064 C  
HETATM   10  H   UNL     1      -4.953   6.581  67.363  1.00  0.00     0.000 HD 
HETATM   11  C   UNL     1      -8.133   5.222  66.265  1.00  0.00    -0.109 C  
HETATM   12  O   UNL     1      -7.887   4.132  65.352  1.00  0.00    -0.085 OA 
HETATM   13  C   UNL     1      -8.579   6.434  65.426  1.00  0.00    -0.088 C  
HETATM   14  H   UNL     1      -8.659   3.945  64.830  1.00  0.00     0.000 HD 
HETATM   15  C   UNL     1      -8.292   7.762  66.158  1.00  0.00    -0.129 C  
HETATM   16  C   UNL     1     -10.072   6.255  65.315  1.00  0.00     1.629 C  
HETATM   17  O   UNL     1      -7.006   7.852  66.698  1.00  0.00    -0.069 OA 
HETATM   18  C   UNL     1      -8.666   9.047  65.414  1.00  0.00    -0.221 C  
HETATM   19  O   UNL     1     -10.852   6.306  66.282  1.00  0.00    -0.014 OA 
HETATM   20  O   UNL     1     -10.520   6.113  64.088  1.00  0.00     4.033 OA 
HETATM   21  C   UNL     1      -8.653  10.305  66.333  1.00  0.00    -0.133 C  
HETATM   22  O   UNL     1      -9.777  12.344  69.266  1.00  0.00     0.372 OA 
HETATM   23  C   UNL     1      -9.348  11.503  65.743  1.00  0.00    -0.238 C  
HETATM   24  C   UNL     1      -9.286  12.744  66.245  1.00  0.00    -0.156 C  
HETATM   25  C   UNL     1     -10.915  13.012  69.645  1.00  0.00     0.201 C  
HETATM   26  C   UNL     1      -9.846  13.849  65.538  1.00  0.00    -0.213 C  
HETATM   27  C   UNL     1     -11.552  14.245  68.608  1.00  0.00    -0.352 C  
HETATM   28  C   UNL     1      -9.672  15.132  65.889  1.00  0.00    -0.385 C  
HETATM   29  C   UNL     1     -11.738  15.651  68.372  1.00  0.00    -0.301 C  
HETATM   30  C   UNL     1     -10.266  16.160  65.085  1.00  0.00    -0.095 C  
HETATM   31  O   UNL     1     -11.411  17.800  69.848  1.00  0.00     1.889 OA 
HETATM   32  C   UNL     1     -11.631  17.351  68.716  1.00  0.00     1.212 C  
HETATM   33  O   UNL     1     -11.915  18.248  67.585  1.00  0.00     1.621 OA 
HETATM   34  C   UNL     1     -10.107  17.465  65.308  1.00  0.00     0.514 C  
HETATM   35  C   UNL     1     -11.249  20.993  67.832  1.00  0.00     2.702 C  
HETATM   36  C   UNL     1     -12.200  19.846  67.332  1.00  0.00     3.094 C  
HETATM   37  C   UNL     1     -10.999  18.411  64.684  1.00  0.00     2.704 C  
HETATM   38  C   UNL     1     -12.291  20.129  65.767  1.00  0.00     4.856 C  
HETATM   39  C   UNL     1     -10.985  19.654  65.162  1.00  0.00     0.460 C  
ENDROOT
BRANCH  21  40
HETATM   40  O   UNL     1      -7.396  10.611  66.905  1.00  0.00    -0.103 OA 
BRANCH  40  41
HETATM   41  C   UNL     1      -7.269  11.679  67.848  1.00  0.00    -0.083 C  
HETATM   42  C   UNL     1      -6.625  11.020  69.087  1.00  0.00    -0.077 C  
HETATM   43  O   UNL     1      -5.359  10.454  68.716  1.00  0.00    -0.039 OA 
HETATM   44  H   UNL     1      -4.963  10.048  69.478  1.00  0.00     0.000 HD 
HETATM   45  N   UNL     1      -5.885  11.458  71.423  1.00  0.00    -0.284 NA 
HETATM   46  H   UNL     1      -4.885  13.831  71.387  1.00  0.00     0.000 HD 
HETATM   47  O   UNL     1      -5.287  14.185  70.602  1.00  0.00    -0.108 OA 
HETATM   48  C   UNL     1      -6.423  12.069  70.183  1.00  0.00     0.124 C  
HETATM   49  C   UNL     1      -5.243  14.745  67.638  1.00  0.00     0.075 C  
HETATM   50  C   UNL     1      -5.524  13.182  69.610  1.00  0.00    -0.091 C  
HETATM   51  C   UNL     1      -6.180  13.761  68.329  1.00  0.00    -0.110 C  
HETATM   52  O   UNL     1      -6.493  12.763  67.348  1.00  0.00    -0.155 OA 
HETATM   53  H2  UNL     1      -5.701  12.172  72.127  1.00  0.00     0.000 HD 
HETATM   54  H1  UNL     1      -6.480  10.721  71.802  1.00  0.00     0.000 HD 
ENDBRANCH  40  41
ENDBRANCH  21  40
TORSDOF 2
ENDMDL
MODEL       44
REMARK 921   NORMALIZED FREE ENERGY PREDICTED BY IDOCK:   20.65 KCAL/MOL
REMARK 922        TOTAL FREE ENERGY PREDICTED BY IDOCK:   22.49 KCAL/MOL
REMARK 923 INTER-LIGAND FREE ENERGY PREDICTED BY IDOCK:   10.64 KCAL/MOL
REMARK 924 INTRA-LIGAND FREE ENERGY PREDICTED BY IDOCK:   11.85 KCAL/MOL
REMARK 927      BINDING AFFINITY PREDICTED BY RF-SCORE:    0.00 PKD
ROOT
HETATM    1  C   UNL     1      -7.521  12.877  67.652  1.00  0.00    -0.148 C  
HETATM    2  C   UNL     1      -6.863  14.522  67.495  1.00  0.00    -0.168 C  
HETATM    3  C   UNL     1      -7.702  15.840  66.665  1.00  0.00    -0.105 C  
HETATM    4  O   UNL     1      -6.883  16.096  65.469  1.00  0.00     1.846 OA 
HETATM    5  C   UNL     1      -8.008  17.489  67.160  1.00  0.00    -0.229 C  
HETATM    6  H   UNL     1      -7.333  16.803  65.023  1.00  0.00     0.000 HD 
HETATM    7  C   UNL     1      -9.463  18.318  67.329  1.00  0.00    -0.264 C  
HETATM    8  O   UNL     1      -9.298  19.342  68.332  1.00  0.00    -0.336 OA 
HETATM    9  C   UNL     1     -10.137  19.255  66.262  1.00  0.00    -0.519 C  
HETATM   10  H   UNL     1     -10.119  19.810  68.427  1.00  0.00     0.000 HD 
HETATM   11  C   UNL     1     -10.805  18.570  65.088  1.00  0.00     0.900 C  
HETATM   12  O   UNL     1     -11.748  19.453  64.444  1.00  0.00     2.028 OA 
HETATM   13  C   UNL     1     -11.573  17.303  65.508  1.00  0.00     1.598 C  
HETATM   14  H   UNL     1     -12.167  19.023  63.707  1.00  0.00     0.000 HD 
HETATM   15  C   UNL     1     -10.877  16.587  66.685  1.00  0.00    -0.053 C  
HETATM   16  C   UNL     1     -11.492  16.421  64.288  1.00  0.00     0.124 C  
HETATM   17  O   UNL     1     -10.507  17.435  67.733  1.00  0.00    -0.349 OA 
HETATM   18  C   UNL     1     -11.560  15.325  67.217  1.00  0.00    -0.164 C  
HETATM   19  O   UNL     1     -10.432  15.947  63.843  1.00  0.00     0.859 OA 
HETATM   20  O   UNL     1     -12.652  16.111  63.753  1.00  0.00    -0.635 OA 
HETATM   21  C   UNL     1     -10.644  14.492  68.163  1.00  0.00    -0.238 C  
HETATM   22  O   UNL     1      -7.580  12.506  68.995  1.00  0.00    -0.011 OA 
HETATM   23  C   UNL     1     -11.133  13.092  68.416  1.00  0.00    -0.292 C  
HETATM   24  C   UNL     1     -10.637  12.266  69.348  1.00  0.00     0.179 C  
HETATM   25  C   UNL     1      -7.054  11.285  68.653  1.00  0.00    -0.093 C  
HETATM   26  C   UNL     1     -11.260  11.014  69.625  1.00  0.00    -0.345 C  
HETATM   27  C   UNL     1      -7.994   9.857  68.930  1.00  0.00    -0.096 C  
HETATM   28  C   UNL     1     -10.928  10.221  70.654  1.00  0.00    -0.287 C  
HETATM   29  C   UNL     1      -8.196   8.677  69.727  1.00  0.00    -0.121 C  
HETATM   30  C   UNL     1     -11.643   8.992  70.846  1.00  0.00    -0.344 C  
HETATM   31  O   UNL     1      -6.763   7.452  71.558  1.00  0.00    -0.049 OA 
HETATM   32  C   UNL     1      -7.860   7.531  70.990  1.00  0.00    -0.091 C  
HETATM   33  O   UNL     1      -8.940   6.579  71.288  1.00  0.00    -0.141 OA 
HETATM   34  C   UNL     1     -11.436   8.162  71.867  1.00  0.00    -0.357 C  
HETATM   35  C   UNL     1      -8.767   5.032  73.658  1.00  0.00    -0.106 C  
HETATM   36  C   UNL     1      -9.147   5.189  72.141  1.00  0.00    -0.136 C  
HETATM   37  C   UNL     1     -11.935   6.809  71.802  1.00  0.00    -0.382 C  
HETATM   38  C   UNL     1     -10.685   4.778  72.125  1.00  0.00    -0.150 C  
HETATM   39  C   UNL     1     -11.456   5.950  72.699  1.00  0.00    -0.319 C  
ENDROOT
BRANCH  21  40
HETATM   40  O   UNL     1     -10.237  15.165  69.339  1.00  0.00    -0.228 OA 
BRANCH  40  41
HETATM   41  C   UNL     1      -9.378  16.307  69.260  1.00  0.00    -0.202 C  
HETATM   42  C   UNL     1     -10.131  17.405  70.042  1.00  0.00     0.720 C  
HETATM   43  O   UNL     1     -10.343  16.963  71.391  1.00  0.00     2.021 OA 
HETATM   44  H   UNL     1     -10.807  17.639  71.872  1.00  0.00     0.000 HD 
HETATM   45  N   UNL     1     -10.034  19.801  70.711  1.00  0.00     0.334 NA 
HETATM   46  H   UNL     1      -7.551  20.270  71.209  1.00  0.00     0.000 HD 
HETATM   47  O   UNL     1      -7.133  19.561  70.732  1.00  0.00     0.529 OA 
HETATM   48  C   UNL     1      -9.306  18.694  70.043  1.00  0.00     1.386 C  
HETATM   49  C   UNL     1      -5.989  16.772  70.619  1.00  0.00     0.348 C  
HETATM   50  C   UNL     1      -7.942  18.382  70.689  1.00  0.00     3.953 C  
HETATM   51  C   UNL     1      -7.261  17.226  69.911  1.00  0.00     0.775 C  
HETATM   52  O   UNL     1      -8.082  16.056  69.793  1.00  0.00    -0.003 OA 
HETATM   53  H2  UNL     1      -9.454  20.638  70.757  1.00  0.00     0.000 HD 
HETATM   54  H1  UNL     1     -10.936  20.008  70.284  1.00  0.00     0.000 HD 
ENDBRANCH  40  41
ENDBRANCH  21  40
TORSDOF 2
ENDMDL
MODEL       45
REMARK 921   NORMALIZED FREE ENERGY PREDICTED BY IDOCK:   22.97 KCAL/MOL
REMARK 922        TOTAL FREE ENERGY PREDICTED BY IDOCK:   25.09 KCAL/MOL
REMARK 923 INTER-LIGAND FREE ENERGY PREDICTED BY IDOCK:   24.04 KCAL/MOL
REMARK 924 INTRA-LIGAND FREE ENERGY PREDICTED BY IDOCK:    1.05 KCAL/MOL
REMARK 927      BINDING AFFINITY PREDICTED BY RF-SCORE:    0.00 PKD
ROOT
HETATM    1  C   UNL     1      -7.832  11.351  65.402  1.00  0.00     0.585 C  
HETATM    2  C   UNL     1      -7.692  13.021  65.996  1.00  0.00     2.312 C  
HETATM    3  C   UNL     1      -8.944  14.251  65.773  1.00  0.00     0.655 C  
HETATM    4  O   UNL     1      -8.341  15.218  64.841  1.00  0.00     3.114 OA 
HETATM    5  C   UNL     1      -9.665  15.365  66.912  1.00  0.00    -0.241 C  
HETATM    6  H   UNL     1      -9.013  15.879  64.721  1.00  0.00     0.000 HD 
HETATM    7  C   UNL     1     -11.276  15.570  67.353  1.00  0.00    -0.248 C  
HETATM    8  O   UNL     1     -11.325  16.074  68.705  1.00  0.00    -0.349 OA 
HETATM    9  C   UNL     1     -12.282  16.623  66.761  1.00  0.00     2.691 C  
HETATM   10  H   UNL     1     -12.234  16.191  68.954  1.00  0.00     0.000 HD 
HETATM   11  C   UNL     1     -12.826  16.333  65.377  1.00  0.00     3.485 C  
HETATM   12  O   UNL     1     -14.036  17.082  65.132  1.00  0.00     7.763 OA 
HETATM   13  C   UNL     1     -13.158  14.843  65.179  1.00  0.00     0.630 C  
HETATM   14  H   UNL     1     -14.377  16.900  64.264  1.00  0.00     0.000 HD 
HETATM   15  C   UNL     1     -12.185  13.940  65.966  1.00  0.00    -0.462 C  
HETATM   16  C   UNL     1     -12.935  14.626  63.704  1.00  0.00     1.514 C  
HETATM   17  O   UNL     1     -11.983  14.334  67.292  1.00  0.00    -0.401 OA 
HETATM   18  C   UNL     1     -12.427  12.431  65.873  1.00  0.00     0.217 C  
HETATM   19  O   UNL     1     -11.826  14.723  63.147  1.00  0.00     0.636 OA 
HETATM   20  O   UNL     1     -13.999  14.242  63.035  1.00  0.00     4.493 OA 
HETATM   21  C   UNL     1     -11.230  11.591  66.413  1.00  0.00    -0.243 C  
HETATM   22  O   UNL     1      -7.665  10.448  66.452  1.00  0.00    -0.114 OA 
HETATM   23  C   UNL     1     -11.272  10.139  66.018  1.00  0.00     0.828 C  
HETATM   24  C   UNL     1     -10.480   9.186  66.528  1.00  0.00    -0.197 C  
HETATM   25  C   UNL     1      -6.842   9.703  65.644  1.00  0.00    -0.091 C  
HETATM   26  C   UNL     1     -10.691   7.811  66.213  1.00  0.00     1.003 C  
HETATM   27  C   UNL     1      -7.304   8.083  65.239  1.00  0.00    -0.070 C  
HETATM   28  C   UNL     1     -10.055   6.796  66.817  1.00  0.00    -0.250 C  
HETATM   29  C   UNL     1      -7.088   6.677  65.444  1.00  0.00    -0.064 C  
HETATM   30  C   UNL     1     -10.367   5.451  66.430  1.00  0.00    -0.298 C  
HETATM   31  O   UNL     1      -5.208   5.280  66.636  1.00  0.00    -0.008 OA 
HETATM   32  C   UNL     1      -6.327   5.262  66.107  1.00  0.00    -0.039 C  
HETATM   33  O   UNL     1      -7.057   3.999  65.919  1.00  0.00    -0.064 OA 
HETATM   34  C   UNL     1      -9.841   4.370  67.005  1.00  0.00    -0.227 C  
HETATM   35  C   UNL     1      -6.239   1.726  67.402  1.00  0.00    -0.024 C  
HETATM   36  C   UNL     1      -6.780   2.388  66.084  1.00  0.00    -0.039 C  
HETATM   37  C   UNL     1      -9.934   3.091  66.344  1.00  0.00     0.664 C  
HETATM   38  C   UNL     1      -8.130   1.585  65.822  1.00  0.00    -0.076 C  
HETATM   39  C   UNL     1      -9.152   2.118  66.808  1.00  0.00    -0.092 C  
ENDROOT
BRANCH  21  40
HETATM   40  O   UNL     1     -10.932  11.792  67.781  1.00  0.00    -0.202 OA 
BRANCH  40  41
HETATM   41  C   UNL     1     -11.985  11.977  68.732  1.00  0.00    -0.244 C  
HETATM   42  C   UNL     1     -11.743  10.876  69.788  1.00  0.00    -0.338 C  
HETATM   43  O   UNL     1     -10.440  11.051  70.361  1.00  0.00    -0.156 OA 
HETATM   44  H   UNL     1     -10.291  10.373  71.010  1.00  0.00     0.000 HD 
HETATM   45  N   UNL     1     -12.663   9.873  71.871  1.00  0.00    -0.408 NA 
HETATM   46  H   UNL     1     -13.579  11.856  73.236  1.00  0.00     0.000 HD 
HETATM   47  O   UNL     1     -13.687  12.510  72.555  1.00  0.00    -0.410 OA 
HETATM   48  C   UNL     1     -12.809  10.969  70.882  1.00  0.00    -0.301 C  
HETATM   49  C   UNL     1     -12.648  14.842  70.947  1.00  0.00    -0.401 C  
HETATM   50  C   UNL     1     -12.720  12.374  71.509  1.00  0.00    -0.228 C  
HETATM   51  C   UNL     1     -12.897  13.442  70.398  1.00  0.00     0.041 C  
HETATM   52  O   UNL     1     -11.986  13.282  69.302  1.00  0.00    -0.312 OA 
HETATM   53  H2  UNL     1     -13.341   9.976  72.626  1.00  0.00     0.000 HD 
HETATM   54  H1  UNL     1     -12.722   8.943  71.457  1.00  0.00     0.000 HD 
ENDBRANCH  40  41
ENDBRANCH  21  40
TORSDOF 2
ENDMDL
MODEL       46
REMARK 921   NORMALIZED FREE ENERGY PREDICTED BY IDOCK:   23.37 KCAL/MOL
REMARK 922        TOTAL FREE ENERGY PREDICTED BY IDOCK:   25.53 KCAL/MOL
REMARK 923 INTER-LIGAND FREE ENERGY PREDICTED BY IDOCK:   22.51 KCAL/MOL
REMARK 924 INTRA-LIGAND FREE ENERGY PREDICTED BY IDOCK:    3.03 KCAL/MOL
REMARK 927      BINDING AFFINITY PREDICTED BY RF-SCORE:    0.00 PKD
ROOT
HETATM    1  C   UNL     1     -11.495  11.602  65.909  1.00  0.00    -0.121 C  
HETATM    2  C   UNL     1     -11.725  13.151  65.066  1.00  0.00    -0.369 C  
HETATM    3  C   UNL     1     -12.155  14.660  65.883  1.00  0.00    -0.205 C  
HETATM    4  O   UNL     1     -13.523  14.946  65.422  1.00  0.00    -0.002 OA 
HETATM    5  C   UNL     1     -11.468  16.264  65.754  1.00  0.00     0.544 C  
HETATM    6  H   UNL     1     -13.754  15.756  65.861  1.00  0.00     0.000 HD 
HETATM    7  C   UNL     1     -10.796  17.253  66.937  1.00  0.00    -0.004 C  
HETATM    8  O   UNL     1      -9.821  18.118  66.317  1.00  0.00    -0.358 OA 
HETATM    9  C   UNL     1     -11.529  18.394  67.732  1.00  0.00     0.915 C  
HETATM   10  H   UNL     1      -9.441  18.676  66.985  1.00  0.00     0.000 HD 
HETATM   11  C   UNL     1     -12.486  17.952  68.819  1.00  0.00     6.117 C  
HETATM   12  O   UNL     1     -12.739  19.025  69.751  1.00  0.00    12.821 OA 
HETATM   13  C   UNL     1     -11.943  16.758  69.627  1.00  0.00     1.208 C  
HETATM   14  H   UNL     1     -13.339  18.748  70.434  1.00  0.00     0.000 HD 
HETATM   15  C   UNL     1     -11.097  15.818  68.743  1.00  0.00    -0.321 C  
HETATM   16  C   UNL     1     -13.190  16.028  70.055  1.00  0.00     1.426 C  
HETATM   17  O   UNL     1     -10.155  16.477  67.946  1.00  0.00    -0.244 OA 
HETATM   18  C   UNL     1     -10.475  14.604  69.437  1.00  0.00    -0.175 C  
HETATM   19  O   UNL     1     -13.976  15.473  69.266  1.00  0.00     2.585 OA 
HETATM   20  O   UNL     1     -13.361  15.943  71.356  1.00  0.00    -0.484 OA 
HETATM   21  C   UNL     1      -9.923  13.548  68.433  1.00  0.00    -0.232 C  
HETATM   22  O   UNL     1     -10.231  11.083  65.631  1.00  0.00    -0.243 OA 
HETATM   23  C   UNL     1      -9.636  12.206  69.049  1.00  0.00     0.270 C  
HETATM   24  C   UNL     1      -8.967  11.215  68.443  1.00  0.00    -0.165 C  
HETATM   25  C   UNL     1     -10.809   9.853  65.437  1.00  0.00     1.063 C  
HETATM   26  C   UNL     1      -8.604  10.033  69.155  1.00  0.00    -0.158 C  
HETATM   27  C   UNL     1     -10.361   8.541  66.475  1.00  0.00    -0.215 C  
HETATM   28  C   UNL     1      -7.791   9.084  68.669  1.00  0.00    -0.101 C  
HETATM   29  C   UNL     1      -9.630   7.312  66.625  1.00  0.00    -0.236 C  
HETATM   30  C   UNL     1      -7.479   7.949  69.488  1.00  0.00    -0.093 C  
HETATM   31  O   UNL     1      -8.429   5.693  64.939  1.00  0.00    -0.144 OA 
HETATM   32  C   UNL     1      -8.622   5.987  66.125  1.00  0.00    -0.142 C  
HETATM   33  O   UNL     1      -8.075   5.159  67.211  1.00  0.00    -0.103 OA 
HETATM   34  C   UNL     1      -6.636   6.980  69.129  1.00  0.00    -0.048 C  
HETATM   35  C   UNL     1      -5.997   3.328  66.604  1.00  0.00    -0.024 C  
HETATM   36  C   UNL     1      -7.306   3.717  67.383  1.00  0.00    -0.066 C  
HETATM   37  C   UNL     1      -6.644   5.725  69.840  1.00  0.00    -0.046 C  
HETATM   38  C   UNL     1      -6.875   3.520  68.904  1.00  0.00    -0.045 C  
HETATM   39  C   UNL     1      -6.005   4.707  69.267  1.00  0.00    -0.018 C  
ENDROOT
BRANCH  21  40
HETATM   40  O   UNL     1      -8.884  14.014  67.593  1.00  0.00    -0.170 OA 
BRANCH  40  41
HETATM   41  C   UNL     1      -8.418  15.362  67.697  1.00  0.00    -0.162 C  
HETATM   42  C   UNL     1      -7.339  15.308  68.801  1.00  0.00    -0.131 C  
HETATM   43  O   UNL     1      -6.307  14.392  68.408  1.00  0.00    -0.086 OA 
HETATM   44  H   UNL     1      -5.644  14.359  69.088  1.00  0.00     0.000 HD 
HETATM   45  N   UNL     1      -5.765  16.711  70.123  1.00  0.00    -0.217 NA 
HETATM   46  H   UNL     1      -4.882  18.483  68.475  1.00  0.00     0.000 HD 
HETATM   47  O   UNL     1      -5.559  18.463  67.808  1.00  0.00    -0.158 OA 
HETATM   48  C   UNL     1      -6.744  16.702  69.010  1.00  0.00    -0.202 C  
HETATM   49  C   UNL     1      -6.663  17.422  65.201  1.00  0.00     1.700 C  
HETATM   50  C   UNL     1      -6.147  17.166  67.666  1.00  0.00    -0.137 C  
HETATM   51  C   UNL     1      -7.252  17.134  66.578  1.00  0.00    -0.273 C  
HETATM   52  O   UNL     1      -7.906  15.862  66.466  1.00  0.00    -0.241 OA 
HETATM   53  H2  UNL     1      -5.332  17.630  70.217  1.00  0.00     0.000 HD 
HETATM   54  H1  UNL     1      -6.159  16.404  71.012  1.00  0.00     0.000 HD 
ENDBRANCH  40  41
ENDBRANCH  21  40
TORSDOF 2
ENDMDL
MODEL       47
REMARK 921   NORMALIZED FREE ENERGY PREDICTED BY IDOCK:   24.81 KCAL/MOL
REMARK 922        TOTAL FREE ENERGY PREDICTED BY IDOCK:   27.14 KCAL/MOL
REMARK 923 INTER-LIGAND FREE ENERGY PREDICTED BY IDOCK:   26.89 KCAL/MOL
REMARK 924 INTRA-LIGAND FREE ENERGY PREDICTED BY IDOCK:    0.25 KCAL/MOL
REMARK 927      BINDING AFFINITY PREDICTED BY RF-SCORE:    0.00 PKD
ROOT
HETATM    1  C   UNL     1     -10.600   8.321  70.112  1.00  0.00    -0.233 C  
HETATM    2  C   UNL     1      -9.565   6.874  70.141  1.00  0.00    -0.162 C  
HETATM    3  C   UNL     1      -9.107   5.966  68.693  1.00  0.00    -0.115 C  
HETATM    4  O   UNL     1      -9.803   4.678  68.837  1.00  0.00    -0.170 OA 
HETATM    5  C   UNL     1      -7.546   5.389  68.155  1.00  0.00    -0.081 C  
HETATM    6  H   UNL     1      -9.557   4.190  68.060  1.00  0.00     0.000 HD 
HETATM    7  C   UNL     1      -6.710   5.696  66.727  1.00  0.00    -0.058 C  
HETATM    8  O   UNL     1      -5.295   5.581  66.985  1.00  0.00    -0.007 OA 
HETATM    9  C   UNL     1      -6.704   4.800  65.435  1.00  0.00    -0.049 C  
HETATM   10  H   UNL     1      -4.824   5.755  66.179  1.00  0.00     0.000 HD 
HETATM   11  C   UNL     1      -7.948   4.849  64.573  1.00  0.00    -0.103 C  
HETATM   12  O   UNL     1      -7.669   4.376  63.238  1.00  0.00    -0.063 OA 
HETATM   13  C   UNL     1      -8.519   6.273  64.448  1.00  0.00     0.111 C  
HETATM   14  H   UNL     1      -8.450   4.406  62.697  1.00  0.00     0.000 HD 
HETATM   15  C   UNL     1      -8.293   7.086  65.740  1.00  0.00    -0.143 C  
HETATM   16  C   UNL     1      -9.998   6.045  64.272  1.00  0.00     2.805 C  
HETATM   17  O   UNL     1      -6.991   7.008  66.245  1.00  0.00    -0.065 OA 
HETATM   18  C   UNL     1      -8.791   8.533  65.732  1.00  0.00    -0.229 C  
HETATM   19  O   UNL     1     -10.733   5.546  65.143  1.00  0.00     0.854 OA 
HETATM   20  O   UNL     1     -10.494   6.489  63.139  1.00  0.00     5.760 OA 
HETATM   21  C   UNL     1      -8.824   9.171  67.154  1.00  0.00    -0.119 C  
HETATM   22  O   UNL     1      -9.948   9.394  70.719  1.00  0.00    -0.264 OA 
HETATM   23  C   UNL     1      -9.630  10.439  67.240  1.00  0.00    -0.182 C  
HETATM   24  C   UNL     1      -9.633  11.271  68.290  1.00  0.00    -0.193 C  
HETATM   25  C   UNL     1     -11.111   9.687  71.387  1.00  0.00    -0.326 C  
HETATM   26  C   UNL     1     -10.303  12.529  68.227  1.00  0.00    -0.241 C  
HETATM   27  C   UNL     1     -11.884  11.211  71.101  1.00  0.00     0.004 C  
HETATM   28  C   UNL     1     -10.204  13.481  69.167  1.00  0.00     0.137 C  
HETATM   29  C   UNL     1     -12.180  12.529  71.594  1.00  0.00     0.469 C  
HETATM   30  C   UNL     1     -10.908  14.717  68.981  1.00  0.00    -0.252 C  
HETATM   31  O   UNL     1     -11.937  13.690  73.939  1.00  0.00     1.587 OA 
HETATM   32  C   UNL     1     -12.178  13.840  72.734  1.00  0.00     0.627 C  
HETATM   33  O   UNL     1     -12.579  15.150  72.198  1.00  0.00    -0.300 OA 
HETATM   34  C   UNL     1     -10.832  15.750  69.820  1.00  0.00    -0.314 C  
HETATM   35  C   UNL     1     -12.099  17.461  73.768  1.00  0.00     0.493 C  
HETATM   36  C   UNL     1     -12.989  16.634  72.772  1.00  0.00     0.759 C  
HETATM   37  C   UNL     1     -11.818  16.801  69.753  1.00  0.00     1.005 C  
HETATM   38  C   UNL     1     -13.175  17.644  71.553  1.00  0.00    12.302 C  
HETATM   39  C   UNL     1     -11.868  17.642  70.784  1.00  0.00     4.516 C  
ENDROOT
BRANCH  21  40
HETATM   40  O   UNL     1      -7.566   9.261  67.794  1.00  0.00    -0.084 OA 
BRANCH  40  41
HETATM   41  C   UNL     1      -7.392  10.107  68.934  1.00  0.00    -0.083 C  
HETATM   42  C   UNL     1      -6.843   9.165  70.028  1.00  0.00    -0.049 C  
HETATM   43  O   UNL     1      -5.612   8.583  69.575  1.00  0.00    -0.030 OA 
HETATM   44  H   UNL     1      -5.275   8.003  70.248  1.00  0.00     0.000 HD 
HETATM   45  N   UNL     1      -6.155   9.069  72.418  1.00  0.00    -0.219 NA 
HETATM   46  H   UNL     1      -4.977  11.313  72.879  1.00  0.00     0.000 HD 
HETATM   47  O   UNL     1      -5.323  11.847  72.173  1.00  0.00    -0.338 OA 
HETATM   48  C   UNL     1      -6.601   9.955  71.316  1.00  0.00     0.230 C  
HETATM   49  C   UNL     1      -5.134  12.979  69.384  1.00  0.00    -0.074 C  
HETATM   50  C   UNL     1      -5.601  11.083  70.996  1.00  0.00    -0.041 C  
HETATM   51  C   UNL     1      -6.166  11.956  69.844  1.00  0.00    -0.139 C  
HETATM   52  O   UNL     1      -6.519  11.202  68.677  1.00  0.00    -0.047 OA 
HETATM   53  H2  UNL     1      -5.942   9.612  73.254  1.00  0.00     0.000 HD 
HETATM   54  H1  UNL     1      -6.816   8.322  72.630  1.00  0.00     0.000 HD 
ENDBRANCH  40  41
ENDBRANCH  21  40
TORSDOF 2
ENDMDL
MODEL       48
REMARK 921   NORMALIZED FREE ENERGY PREDICTED BY IDOCK:   25.22 KCAL/MOL
REMARK 922        TOTAL FREE ENERGY PREDICTED BY IDOCK:   27.60 KCAL/MOL
REMARK 923 INTER-LIGAND FREE ENERGY PREDICTED BY IDOCK:   27.40 KCAL/MOL
REMARK 924 INTRA-LIGAND FREE ENERGY PREDICTED BY IDOCK:    0.20 KCAL/MOL
REMARK 927      BINDING AFFINITY PREDICTED BY RF-SCORE:    0.00 PKD
ROOT
HETATM    1  C   UNL     1     -10.993  11.173  72.869  1.00  0.00    11.253 C  
HETATM    2  C   UNL     1     -12.182  12.347  72.259  1.00  0.00     1.575 C  
HETATM    3  C   UNL     1     -11.743  13.859  71.452  1.00  0.00     0.487 C  
HETATM    4  O   UNL     1     -12.158  14.908  72.397  1.00  0.00    -0.341 OA 
HETATM    5  C   UNL     1     -12.326  14.569  69.963  1.00  0.00    -0.376 C  
HETATM    6  H   UNL     1     -11.923  15.721  71.964  1.00  0.00     0.000 HD 
HETATM    7  C   UNL     1     -11.485  15.022  68.577  1.00  0.00    -0.317 C  
HETATM    8  O   UNL     1     -12.375  14.926  67.445  1.00  0.00    -0.437 OA 
HETATM    9  C   UNL     1     -10.953  16.461  68.233  1.00  0.00    -0.355 C  
HETATM   10  H   UNL     1     -11.901  15.182  66.663  1.00  0.00     0.000 HD 
HETATM   11  C   UNL     1      -9.721  16.922  68.983  1.00  0.00    -0.231 C  
HETATM   12  O   UNL     1      -9.075  18.012  68.291  1.00  0.00    -0.265 OA 
HETATM   13  C   UNL     1      -8.680  15.798  69.146  1.00  0.00    -0.253 C  
HETATM   14  H   UNL     1      -8.302  18.302  68.762  1.00  0.00     0.000 HD 
HETATM   15  C   UNL     1      -9.358  14.421  69.299  1.00  0.00     0.170 C  
HETATM   16  C   UNL     1      -7.989  16.145  70.440  1.00  0.00     1.943 C  
HETATM   17  O   UNL     1     -10.363  14.170  68.361  1.00  0.00    -0.236 OA 
HETATM   18  C   UNL     1      -8.427  13.214  69.441  1.00  0.00     1.075 C  
HETATM   19  O   UNL     1      -8.550  16.143  71.550  1.00  0.00     5.374 OA 
HETATM   20  O   UNL     1      -6.700  16.381  70.331  1.00  0.00     0.391 OA 
HETATM   21  C   UNL     1      -9.170  11.928  69.914  1.00  0.00     2.429 C  
HETATM   22  O   UNL     1     -11.225   9.916  72.313  1.00  0.00     0.757 OA 
HETATM   23  C   UNL     1      -8.256  10.837  70.404  1.00  0.00     1.631 C  
HETATM   24  C   UNL     1      -8.640   9.578  70.661  1.00  0.00    -0.178 C  
HETATM   25  C   UNL     1     -11.057   9.364  73.559  1.00  0.00     5.712 C  
HETATM   26  C   UNL     1      -7.681   8.569  70.972  1.00  0.00    -0.104 C  
HETATM   27  C   UNL     1      -9.756   8.249  73.816  1.00  0.00     0.692 C  
HETATM   28  C   UNL     1      -7.970   7.263  71.067  1.00  0.00    -0.098 C  
HETATM   29  C   UNL     1      -9.355   6.881  74.007  1.00  0.00    -0.257 C  
HETATM   30  C   UNL     1      -6.916   6.337  71.364  1.00  0.00    -0.076 C  
HETATM   31  O   UNL     1     -10.661   4.655  74.500  1.00  0.00    -0.333 OA 
HETATM   32  C   UNL     1      -9.577   5.168  74.196  1.00  0.00    -0.138 C  
HETATM   33  O   UNL     1      -8.361   4.351  74.065  1.00  0.00    -0.098 OA 
HETATM   34  C   UNL     1      -7.080   5.015  71.421  1.00  0.00    -0.057 C  
HETATM   35  C   UNL     1      -8.637   1.542  73.795  1.00  0.00    -0.053 C  
HETATM   36  C   UNL     1      -7.887   2.804  74.355  1.00  0.00    -0.059 C  
HETATM   37  C   UNL     1      -6.075   4.196  72.055  1.00  0.00    -0.017 C  
HETATM   38  C   UNL     1      -6.403   2.591  73.819  1.00  0.00    -0.016 C  
HETATM   39  C   UNL     1      -6.418   2.943  72.344  1.00  0.00    -0.014 C  
ENDROOT
BRANCH  21  40
HETATM   40  O   UNL     1     -10.175  11.465  69.034  1.00  0.00    -0.193 OA 
BRANCH  40  41
HETATM   41  C   UNL     1      -9.835  10.646  67.912  1.00  0.00    -0.161 C  
HETATM   42  C   UNL     1     -10.646  11.246  66.742  1.00  0.00    -0.260 C  
HETATM   43  O   UNL     1     -10.269  12.619  66.562  1.00  0.00    -0.236 OA 
HETATM   44  H   UNL     1     -10.769  12.988  65.843  1.00  0.00     0.000 HD 
HETATM   45  N   UNL     1     -11.189  10.949  64.331  1.00  0.00    -0.062 NA 
HETATM   46  H   UNL     1      -8.998  10.158  63.231  1.00  0.00     0.000 HD 
HETATM   47  O   UNL     1      -8.527   9.823  63.986  1.00  0.00    -0.153 OA 
HETATM   48  C   UNL     1     -10.362  10.458  65.461  1.00  0.00    -0.195 C  
HETATM   49  C   UNL     1      -6.577  10.197  66.257  1.00  0.00    -0.094 C  
HETATM   50  C   UNL     1      -8.847  10.531  65.187  1.00  0.00    -0.190 C  
HETATM   51  C   UNL     1      -8.078   9.985  66.418  1.00  0.00    -0.120 C  
HETATM   52  O   UNL     1      -8.436  10.632  67.648  1.00  0.00    -0.118 OA 
HETATM   53  H2  UNL     1     -10.952  10.457  63.470  1.00  0.00     0.000 HD 
HETATM   54  H1  UNL     1     -12.191  10.901  64.512  1.00  0.00     0.000 HD 
ENDBRANCH  40  41
ENDBRANCH  21  40
TORSDOF 2
ENDMDL
MODEL       49
REMARK 921   NORMALIZED FREE ENERGY PREDICTED BY IDOCK:   28.35 KCAL/MOL
REMARK 922        TOTAL FREE ENERGY PREDICTED BY IDOCK:   31.09 KCAL/MOL
REMARK 923 INTER-LIGAND FREE ENERGY PREDICTED BY IDOCK:    5.69 KCAL/MOL
REMARK 924 INTRA-LIGAND FREE ENERGY PREDICTED BY IDOCK:   25.40 KCAL/MOL
REMARK 927      BINDING AFFINITY PREDICTED BY RF-SCORE:    0.00 PKD
ROOT
HETATM    1  C   UNL     1      -9.419  12.905  65.120  1.00  0.00     0.324 C  
HETATM    2  C   UNL     1      -8.715  14.538  65.084  1.00  0.00     3.063 C  
HETATM    3  C   UNL     1      -9.157  15.823  66.216  1.00  0.00    -0.338 C  
HETATM    4  O   UNL     1      -9.864  16.812  65.385  1.00  0.00    -0.547 OA 
HETATM    5  C   UNL     1      -8.159  16.905  67.160  1.00  0.00    -0.214 C  
HETATM    6  H   UNL     1     -10.101  17.502  65.993  1.00  0.00     0.000 HD 
HETATM    7  C   UNL     1      -8.099  17.149  68.824  1.00  0.00    -0.252 C  
HETATM    8  O   UNL     1      -6.771  17.587  69.180  1.00  0.00    -0.237 OA 
HETATM    9  C   UNL     1      -8.852  18.267  69.634  1.00  0.00     0.891 C  
HETATM   10  H   UNL     1      -6.737  17.725  70.119  1.00  0.00     0.000 HD 
HETATM   11  C   UNL     1     -10.338  18.066  69.841  1.00  0.00     0.845 C  
HETATM   12  O   UNL     1     -10.820  18.871  70.939  1.00  0.00     1.239 OA 
HETATM   13  C   UNL     1     -10.694  16.601  70.152  1.00  0.00    -0.090 C  
HETATM   14  H   UNL     1     -11.753  18.745  71.068  1.00  0.00     0.000 HD 
HETATM   15  C   UNL     1      -9.753  15.624  69.417  1.00  0.00    -0.292 C  
HETATM   16  C   UNL     1     -12.085  16.449  69.590  1.00  0.00     0.480 C  
HETATM   17  O   UNL     1      -8.396  15.945  69.527  1.00  0.00    -0.223 OA 
HETATM   18  C   UNL     1      -9.985  14.132  69.667  1.00  0.00     0.499 C  
HETATM   19  O   UNL     1     -12.357  16.532  68.379  1.00  0.00     0.667 OA 
HETATM   20  O   UNL     1     -13.006  16.139  70.474  1.00  0.00    -0.138 OA 
HETATM   21  C   UNL     1      -9.227  13.222  68.654  1.00  0.00     0.019 C  
HETATM   22  O   UNL     1      -8.412  11.947  65.229  1.00  0.00     0.496 OA 
HETATM   23  C   UNL     1      -9.703  11.794  68.637  1.00  0.00    -0.135 C  
HETATM   24  C   UNL     1      -9.075  10.788  68.012  1.00  0.00    -0.150 C  
HETATM   25  C   UNL     1      -9.044  11.212  64.256  1.00  0.00    -0.033 C  
HETATM   26  C   UNL     1      -9.508   9.440  68.176  1.00  0.00    -0.146 C  
HETATM   27  C   UNL     1      -9.638   9.632  64.649  1.00  0.00    -0.147 C  
HETATM   28  C   UNL     1      -8.830   8.373  67.727  1.00  0.00    -0.137 C  
HETATM   29  C   UNL     1      -9.469   8.210  64.522  1.00  0.00     1.650 C  
HETATM   30  C   UNL     1      -9.356   7.061  67.972  1.00  0.00    -0.127 C  
HETATM   31  O   UNL     1      -7.948   6.687  63.015  1.00  0.00    -0.111 OA 
HETATM   32  C   UNL     1      -8.726   6.737  63.976  1.00  0.00     0.641 C  
HETATM   33  O   UNL     1      -9.153   5.513  64.671  1.00  0.00     0.044 OA 
HETATM   34  C   UNL     1      -8.735   5.934  67.624  1.00  0.00    -0.104 C  
HETATM   35  C   UNL     1      -7.650   3.141  64.286  1.00  0.00    -0.076 C  
HETATM   36  C   UNL     1      -9.019   3.886  64.481  1.00  0.00    -0.132 C  
HETATM   37  C   UNL     1      -9.471   4.693  67.589  1.00  0.00    -0.186 C  
HETATM   38  C   UNL     1      -9.637   3.149  65.750  1.00  0.00     0.010 C  
HETATM   39  C   UNL     1      -8.892   3.670  66.963  1.00  0.00    -0.138 C  
ENDROOT
BRANCH  21  40
HETATM   40  O   UNL     1      -7.819  13.344  68.685  1.00  0.00    -0.132 OA 
BRANCH  40  41
HETATM   41  C   UNL     1      -6.991  12.334  68.099  1.00  0.00    -0.087 C  
HETATM   42  C   UNL     1      -6.630  11.405  69.280  1.00  0.00    -0.106 C  
HETATM   43  O   UNL     1      -7.837  10.874  69.848  1.00  0.00    -0.346 OA 
HETATM   44  H   UNL     1      -7.615  10.303  70.574  1.00  0.00     0.000 HD 
HETATM   45  N   UNL     1      -5.303   9.394  69.903  1.00  0.00    -0.032 NA 
HETATM   46  H   UNL     1      -5.497   7.799  67.889  1.00  0.00     0.000 HD 
HETATM   47  O   UNL     1      -5.742   8.406  67.200  1.00  0.00    -0.037 OA 
HETATM   48  C   UNL     1      -5.744  10.262  68.783  1.00  0.00    -0.041 C  
HETATM   49  C   UNL     1      -7.836   9.818  65.549  1.00  0.00    -0.120 C  
HETATM   50  C   UNL     1      -6.521   9.502  67.690  1.00  0.00    -0.062 C  
HETATM   51  C   UNL     1      -6.921  10.492  66.565  1.00  0.00    -0.115 C  
HETATM   52  O   UNL     1      -7.642  11.637  67.042  1.00  0.00    -0.144 OA 
HETATM   53  H2  UNL     1      -4.761   8.604  69.555  1.00  0.00     0.000 HD 
HETATM   54  H1  UNL     1      -4.789   9.896  70.626  1.00  0.00     0.000 HD 
ENDBRANCH  40  41
ENDBRANCH  21  40
TORSDOF 2
ENDMDL
MODEL       50
REMARK 921   NORMALIZED FREE ENERGY PREDICTED BY IDOCK:   28.50 KCAL/MOL
REMARK 922        TOTAL FREE ENERGY PREDICTED BY IDOCK:   31.26 KCAL/MOL
REMARK 923 INTER-LIGAND FREE ENERGY PREDICTED BY IDOCK:   14.79 KCAL/MOL
REMARK 924 INTRA-LIGAND FREE ENERGY PREDICTED BY IDOCK:   16.47 KCAL/MOL
REMARK 927      BINDING AFFINITY PREDICTED BY RF-SCORE:    0.00 PKD
ROOT
HETATM    1  C   UNL     1     -11.159  10.173  65.602  1.00  0.00     0.934 C  
HETATM    2  C   UNL     1     -11.863   8.723  66.352  1.00  0.00     5.891 C  
HETATM    3  C   UNL     1     -10.906   7.344  66.912  1.00  0.00    -0.153 C  
HETATM    4  O   UNL     1     -11.268   6.253  65.992  1.00  0.00    -0.140 OA 
HETATM    5  C   UNL     1     -10.944   6.467  68.425  1.00  0.00    -0.390 C  
HETATM    6  H   UNL     1     -10.754   5.513  66.292  1.00  0.00     0.000 HD 
HETATM    7  C   UNL     1      -9.723   6.196  69.551  1.00  0.00    -0.146 C  
HETATM    8  O   UNL     1     -10.324   6.032  70.853  1.00  0.00    -0.204 OA 
HETATM    9  C   UNL     1      -8.802   4.926  69.646  1.00  0.00    -0.117 C  
HETATM   10  H   UNL     1      -9.635   5.880  71.489  1.00  0.00     0.000 HD 
HETATM   11  C   UNL     1      -7.703   4.810  68.611  1.00  0.00    -0.076 C  
HETATM   12  O   UNL     1      -6.676   3.894  69.049  1.00  0.00    -0.043 OA 
HETATM   13  C   UNL     1      -7.024   6.161  68.323  1.00  0.00    -0.080 C  
HETATM   14  H   UNL     1      -5.987   3.821  68.399  1.00  0.00     0.000 HD 
HETATM   15  C   UNL     1      -8.024   7.331  68.440  1.00  0.00    -0.124 C  
HETATM   16  C   UNL     1      -6.588   6.037  66.885  1.00  0.00    -0.056 C  
HETATM   17  O   UNL     1      -8.815   7.294  69.592  1.00  0.00    -0.141 OA 
HETATM   18  C   UNL     1      -7.463   8.735  68.204  1.00  0.00    -0.092 C  
HETATM   19  O   UNL     1      -7.375   5.933  65.928  1.00  0.00    -0.074 OA 
HETATM   20  O   UNL     1      -5.291   6.127  66.692  1.00  0.00    -0.008 OA 
HETATM   21  C   UNL     1      -8.577   9.809  68.015  1.00  0.00    -0.122 C  
HETATM   22  O   UNL     1     -11.546  11.316  66.302  1.00  0.00    -0.259 OA 
HETATM   23  C   UNL     1      -8.086  11.108  67.435  1.00  0.00    -0.132 C  
HETATM   24  C   UNL     1      -8.804  12.238  67.377  1.00  0.00    -0.185 C  
HETATM   25  C   UNL     1     -11.806  11.930  65.101  1.00  0.00    -0.121 C  
HETATM   26  C   UNL     1      -8.210  13.463  66.954  1.00  0.00     0.040 C  
HETATM   27  C   UNL     1     -10.901  13.342  64.666  1.00  0.00    -0.396 C  
HETATM   28  C   UNL     1      -8.813  14.658  67.036  1.00  0.00    -0.262 C  
HETATM   29  C   UNL     1     -10.889  14.771  64.511  1.00  0.00    -0.181 C  
HETATM   30  C   UNL     1      -8.105  15.827  66.599  1.00  0.00    -0.282 C  
HETATM   31  O   UNL     1     -12.762  16.615  64.506  1.00  0.00     1.490 OA 
HETATM   32  C   UNL     1     -11.547  16.380  64.523  1.00  0.00     0.021 C  
HETATM   33  O   UNL     1     -10.562  17.470  64.457  1.00  0.00     0.110 OA 
HETATM   34  C   UNL     1      -8.585  17.066  66.693  1.00  0.00    -0.285 C  
HETATM   35  C   UNL     1     -11.424  20.111  65.021  1.00  0.00     1.418 C  
HETATM   36  C   UNL     1     -10.547  19.094  64.205  1.00  0.00     5.672 C  
HETATM   37  C   UNL     1      -7.976  18.129  65.929  1.00  0.00    -0.049 C  
HETATM   38  C   UNL     1      -9.072  19.654  64.424  1.00  0.00     5.280 C  
HETATM   39  C   UNL     1      -8.663  19.265  65.831  1.00  0.00     0.019 C  
ENDROOT
BRANCH  21  40
HETATM   40  O   UNL     1      -9.432   9.979  69.129  1.00  0.00    -0.183 OA 
BRANCH  40  41
HETATM   41  C   UNL     1      -9.028   9.533  70.427  1.00  0.00    -0.243 C  
HETATM   42  C   UNL     1     -10.341   9.070  71.097  1.00  0.00    -0.291 C  
HETATM   43  O   UNL     1     -10.929   8.025  70.308  1.00  0.00    -0.248 OA 
HETATM   44  H   UNL     1     -11.737   7.740  70.720  1.00  0.00     0.000 HD 
HETATM   45  N   UNL     1     -11.294   8.179  73.216  1.00  0.00    -0.243 NA 
HETATM   46  H   UNL     1      -9.519   6.551  74.130  1.00  0.00     0.000 HD 
HETATM   47  O   UNL     1      -8.742   6.856  73.675  1.00  0.00    -0.127 OA 
HETATM   48  C   UNL     1     -10.047   8.553  72.506  1.00  0.00    -0.249 C  
HETATM   49  C   UNL     1      -6.826   6.731  71.349  1.00  0.00    -0.062 C  
HETATM   50  C   UNL     1      -9.041   7.391  72.383  1.00  0.00    -0.132 C  
HETATM   51  C   UNL     1      -7.773   7.890  71.641  1.00  0.00    -0.092 C  
HETATM   52  O   UNL     1      -8.055   8.496  70.372  1.00  0.00    -0.097 OA 
HETATM   53  H2  UNL     1     -11.083   7.783  74.132  1.00  0.00     0.000 HD 
HETATM   54  H1  UNL     1     -11.959   8.947  73.298  1.00  0.00     0.000 HD 
ENDBRANCH  40  41
ENDBRANCH  21  40
TORSDOF 2
ENDMDL
MODEL       51
REMARK 921   NORMALIZED FREE ENERGY PREDICTED BY IDOCK:   34.62 KCAL/MOL
REMARK 922        TOTAL FREE ENERGY PREDICTED BY IDOCK:   38.09 KCAL/MOL
REMARK 923 INTER-LIGAND FREE ENERGY PREDICTED BY IDOCK:    9.96 KCAL/MOL
REMARK 924 INTRA-LIGAND FREE ENERGY PREDICTED BY IDOCK:   28.13 KCAL/MOL
REMARK 927      BINDING AFFINITY PREDICTED BY RF-SCORE:    0.00 PKD
ROOT
HETATM    1  C   UNL     1      -6.478   9.370  67.261  1.00  0.00    -0.070 C  
HETATM    2  C   UNL     1      -7.122   7.868  66.560  1.00  0.00    -0.075 C  
HETATM    3  C   UNL     1      -7.768   6.533  67.524  1.00  0.00    -0.106 C  
HETATM    4  O   UNL     1      -6.798   5.443  67.332  1.00  0.00    -0.057 OA 
HETATM    5  C   UNL     1      -9.254   5.624  67.363  1.00  0.00    -0.109 C  
HETATM    6  H   UNL     1      -7.144   4.726  67.849  1.00  0.00     0.000 HD 
HETATM    7  C   UNL     1     -10.510   5.398  68.460  1.00  0.00    -0.122 C  
HETATM    8  O   UNL     1     -11.731   5.174  67.725  1.00  0.00     2.054 OA 
HETATM    9  C   UNL     1     -10.693   4.178  69.436  1.00  0.00     1.923 C  
HETATM   10  H   UNL     1     -12.440   5.047  68.344  1.00  0.00     0.000 HD 
HETATM   11  C   UNL     1      -9.789   4.144  70.650  1.00  0.00    -0.179 C  
HETATM   12  O   UNL     1     -10.330   3.277  71.671  1.00  0.00     0.003 OA 
HETATM   13  C   UNL     1      -9.601   5.536  71.280  1.00  0.00    -0.198 C  
HETATM   14  H   UNL     1      -9.763   3.256  72.433  1.00  0.00     0.000 HD 
HETATM   15  C   UNL     1      -9.618   6.646  70.208  1.00  0.00    -0.161 C  
HETATM   16  C   UNL     1      -8.222   5.466  71.883  1.00  0.00    -0.119 C  
HETATM   17  O   UNL     1     -10.671   6.542  69.294  1.00  0.00    -0.228 OA 
HETATM   18  C   UNL     1      -9.468   8.084  70.711  1.00  0.00    -0.173 C  
HETATM   19  O   UNL     1      -7.178   5.338  71.218  1.00  0.00    -0.071 OA 
HETATM   20  O   UNL     1      -8.180   5.631  73.187  1.00  0.00    -0.117 OA 
HETATM   21  C   UNL     1      -9.168   9.099  69.567  1.00  0.00    -0.159 C  
HETATM   22  O   UNL     1      -7.145  10.475  66.733  1.00  0.00    -0.098 OA 
HETATM   23  C   UNL     1      -8.667  10.434  70.047  1.00  0.00     0.267 C  
HETATM   24  C   UNL     1      -8.542  11.524  69.276  1.00  0.00     0.390 C  
HETATM   25  C   UNL     1      -5.931  11.099  66.577  1.00  0.00    -0.143 C  
HETATM   26  C   UNL     1      -8.208  12.789  69.845  1.00  0.00     2.485 C  
HETATM   27  C   UNL     1      -5.623  12.567  67.444  1.00  0.00    -0.112 C  
HETATM   28  C   UNL     1      -8.237  13.947  69.169  1.00  0.00     0.277 C  
HETATM   29  C   UNL     1      -5.491  13.997  67.392  1.00  0.00     0.349 C  
HETATM   30  C   UNL     1      -7.901  15.161  69.855  1.00  0.00     0.078 C  
HETATM   31  O   UNL     1      -5.296  15.735  65.431  1.00  0.00     4.733 OA 
HETATM   32  C   UNL     1      -5.449  15.567  66.647  1.00  0.00     1.628 C  
HETATM   33  O   UNL     1      -5.513  16.711  67.570  1.00  0.00    -0.117 OA 
HETATM   34  C   UNL     1      -7.956  16.371  69.298  1.00  0.00    -0.136 C  
HETATM   35  C   UNL     1      -6.011  19.289  66.500  1.00  0.00    -0.175 C  
HETATM   36  C   UNL     1      -5.288  18.338  67.521  1.00  0.00    -0.139 C  
HETATM   37  C   UNL     1      -7.283  17.480  69.928  1.00  0.00     0.815 C  
HETATM   38  C   UNL     1      -5.683  18.974  68.927  1.00  0.00    -0.221 C  
HETATM   39  C   UNL     1      -7.122  18.579  69.193  1.00  0.00    -0.233 C  
ENDROOT
BRANCH  21  40
HETATM   40  O   UNL     1     -10.178   9.199  68.582  1.00  0.00    -0.192 OA 
BRANCH  40  41
HETATM   41  C   UNL     1      -9.916   8.800  67.233  1.00  0.00    -0.220 C  
HETATM   42  C   UNL     1     -10.361  10.012  66.384  1.00  0.00    -0.179 C  
HETATM   43  O   UNL     1      -9.607  11.167  66.778  1.00  0.00    -0.186 OA 
HETATM   44  H   UNL     1      -9.881  11.912  66.256  1.00  0.00     0.000 HD 
HETATM   45  N   UNL     1     -10.619  10.823  64.045  1.00  0.00    -0.466 NA 
HETATM   46  H   UNL     1      -8.591   9.878  62.769  1.00  0.00     0.000 HD 
HETATM   47  O   UNL     1      -8.339   9.158  63.337  1.00  0.00    -0.173 OA 
HETATM   48  C   UNL     1     -10.124   9.718  64.902  1.00  0.00     0.174 C  
HETATM   49  C   UNL     1      -6.701   8.039  65.609  1.00  0.00    -0.048 C  
HETATM   50  C   UNL     1      -8.622   9.424  64.714  1.00  0.00    -0.180 C  
HETATM   51  C   UNL     1      -8.211   8.249  65.639  1.00  0.00    -0.134 C  
HETATM   52  O   UNL     1      -8.550   8.462  67.016  1.00  0.00    -0.119 OA 
HETATM   53  H2  UNL     1     -10.405  10.644  63.065  1.00  0.00     0.000 HD 
HETATM   54  H1  UNL     1     -11.612  11.017  64.170  1.00  0.00     0.000 HD 
ENDBRANCH  40  41
ENDBRANCH  21  40
TORSDOF 2
ENDMDL
MODEL       52
REMARK 921   NORMALIZED FREE ENERGY PREDICTED BY IDOCK:   36.39 KCAL/MOL
REMARK 922        TOTAL FREE ENERGY PREDICTED BY IDOCK:   40.07 KCAL/MOL
REMARK 923 INTER-LIGAND FREE ENERGY PREDICTED BY IDOCK:   40.53 KCAL/MOL
REMARK 924 INTRA-LIGAND FREE ENERGY PREDICTED BY IDOCK:   -0.46 KCAL/MOL
REMARK 927      BINDING AFFINITY PREDICTED BY RF-SCORE:    0.00 PKD
ROOT
HETATM    1  C   UNL     1      -6.821  11.305  63.880  1.00  0.00     1.539 C  
HETATM    2  C   UNL     1      -5.755  12.591  64.490  1.00  0.00     7.863 C  
HETATM    3  C   UNL     1      -6.343  14.068  65.267  1.00  0.00    13.318 C  
HETATM    4  O   UNL     1      -6.011  15.137  64.312  1.00  0.00    16.117 OA 
HETATM    5  C   UNL     1      -5.851  14.849  66.753  1.00  0.00     1.869 C  
HETATM    6  H   UNL     1      -6.327  15.930  64.729  1.00  0.00     0.000 HD 
HETATM    7  C   UNL     1      -6.752  15.242  68.119  1.00  0.00    -0.129 C  
HETATM    8  O   UNL     1      -5.875  15.244  69.265  1.00  0.00    -0.096 OA 
HETATM    9  C   UNL     1      -7.419  16.630  68.433  1.00  0.00    -0.194 C  
HETATM   10  H   UNL     1      -6.383  15.466  70.037  1.00  0.00     0.000 HD 
HETATM   11  C   UNL     1      -8.677  16.966  67.659  1.00  0.00    -0.209 C  
HETATM   12  O   UNL     1      -9.430  18.002  68.324  1.00  0.00    -0.280 OA 
HETATM   13  C   UNL     1      -9.607  15.749  67.498  1.00  0.00    -0.224 C  
HETATM   14  H   UNL     1     -10.220  18.212  67.838  1.00  0.00     0.000 HD 
HETATM   15  C   UNL     1      -8.804  14.438  67.376  1.00  0.00    -0.203 C  
HETATM   16  C   UNL     1     -10.307  16.013  66.189  1.00  0.00    -0.328 C  
HETATM   17  O   UNL     1      -7.794  14.294  68.333  1.00  0.00    -0.125 OA 
HETATM   18  C   UNL     1      -9.618  13.149  67.239  1.00  0.00    -0.233 C  
HETATM   19  O   UNL     1      -9.730  16.047  65.088  1.00  0.00    -0.345 OA 
HETATM   20  O   UNL     1     -11.613  16.131  66.276  1.00  0.00     0.410 OA 
HETATM   21  C   UNL     1      -8.753  11.930  66.797  1.00  0.00    -0.193 C  
HETATM   22  O   UNL     1      -6.485  10.082  64.460  1.00  0.00    -0.118 OA 
HETATM   23  C   UNL     1      -9.555  10.753  66.310  1.00  0.00    -0.234 C  
HETATM   24  C   UNL     1      -9.053   9.531  66.079  1.00  0.00    -0.220 C  
HETATM   25  C   UNL     1      -6.581   9.499  63.220  1.00  0.00    -0.101 C  
HETATM   26  C   UNL     1      -9.910   8.434  65.770  1.00  0.00     0.211 C  
HETATM   27  C   UNL     1      -7.770   8.265  62.962  1.00  0.00    -0.134 C  
HETATM   28  C   UNL     1      -9.501   7.158  65.699  1.00  0.00     0.398 C  
HETATM   29  C   UNL     1      -8.041   6.864  62.786  1.00  0.00    -0.046 C  
HETATM   30  C   UNL     1     -10.462   6.135  65.401  1.00  0.00     1.765 C  
HETATM   31  O   UNL     1      -6.529   4.761  62.346  1.00  0.00    -0.024 OA 
HETATM   32  C   UNL     1      -7.660   5.176  62.627  1.00  0.00    -0.057 C  
HETATM   33  O   UNL     1      -8.798   4.253  62.753  1.00  0.00    -0.101 OA 
HETATM   34  C   UNL     1     -10.177   4.834  65.366  1.00  0.00    -0.104 C  
HETATM   35  C   UNL     1      -8.270   1.485  63.069  1.00  0.00    -0.057 C  
HETATM   36  C   UNL     1      -9.123   2.665  62.479  1.00  0.00    -0.084 C  
HETATM   37  C   UNL     1     -11.092   3.917  64.731  1.00  0.00     0.252 C  
HETATM   38  C   UNL     1     -10.590   2.325  62.997  1.00  0.00    -0.179 C  
HETATM   39  C   UNL     1     -10.630   2.697  64.466  1.00  0.00     0.498 C  
ENDROOT
BRANCH  21  40
HETATM   40  O   UNL     1      -7.723  11.574  67.698  1.00  0.00    -0.112 OA 
BRANCH  40  41
HETATM   41  C   UNL     1      -7.944  10.564  68.688  1.00  0.00    -0.124 C  
HETATM   42  C   UNL     1      -6.779  10.747  69.686  1.00  0.00    -0.122 C  
HETATM   43  O   UNL     1      -6.826  12.075  70.227  1.00  0.00    -0.413 OA 
HETATM   44  H   UNL     1      -6.110  12.187  70.841  1.00  0.00     0.000 HD 
HETATM   45  N   UNL     1      -5.753   9.807  71.749  1.00  0.00    -0.246 NA 
HETATM   46  H   UNL     1      -7.734   9.084  73.228  1.00  0.00     0.000 HD 
HETATM   47  O   UNL     1      -8.426   9.009  72.580  1.00  0.00    -0.326 OA 
HETATM   48  C   UNL     1      -6.901   9.721  70.814  1.00  0.00    -0.058 C  
HETATM   49  C   UNL     1     -10.744  10.183  71.047  1.00  0.00     0.080 C  
HETATM   50  C   UNL     1      -8.265   9.935  71.500  1.00  0.00     1.936 C  
HETATM   51  C   UNL     1      -9.394   9.812  70.444  1.00  0.00    -0.126 C  
HETATM   52  O   UNL     1      -9.216  10.679  69.315  1.00  0.00    -0.178 OA 
HETATM   53  H2  UNL     1      -5.872   9.159  72.528  1.00  0.00     0.000 HD 
HETATM   54  H1  UNL     1      -4.851   9.666  71.295  1.00  0.00     0.000 HD 
ENDBRANCH  40  41
ENDBRANCH  21  40
TORSDOF 2
ENDMDL
MODEL       53
REMARK 921   NORMALIZED FREE ENERGY PREDICTED BY IDOCK:   38.53 KCAL/MOL
REMARK 922        TOTAL FREE ENERGY PREDICTED BY IDOCK:   42.47 KCAL/MOL
REMARK 923 INTER-LIGAND FREE ENERGY PREDICTED BY IDOCK:   -2.29 KCAL/MOL
REMARK 924 INTRA-LIGAND FREE ENERGY PREDICTED BY IDOCK:   44.76 KCAL/MOL
REMARK 927      BINDING AFFINITY PREDICTED BY RF-SCORE:    0.00 PKD
ROOT
HETATM    1  C   UNL     1     -10.943  10.214  67.166  1.00  0.00    -0.134 C  
HETATM    2  C   UNL     1     -11.115   8.646  67.988  1.00  0.00     0.276 C  
HETATM    3  C   UNL     1     -10.138   7.223  67.603  1.00  0.00    -0.181 C  
HETATM    4  O   UNL     1     -11.092   6.280  66.998  1.00  0.00    -0.509 OA 
HETATM    5  C   UNL     1      -9.267   6.120  68.645  1.00  0.00    -0.123 C  
HETATM    6  H   UNL     1     -10.567   5.515  66.791  1.00  0.00     0.000 HD 
HETATM    7  C   UNL     1      -7.636   5.710  68.667  1.00  0.00    -0.088 C  
HETATM    8  O   UNL     1      -7.272   5.330  70.010  1.00  0.00    -0.059 OA 
HETATM    9  C   UNL     1      -6.974   4.465  67.971  1.00  0.00    -0.056 C  
HETATM   10  H   UNL     1      -6.351   5.098  70.023  1.00  0.00     0.000 HD 
HETATM   11  C   UNL     1      -6.809   4.540  66.467  1.00  0.00    -0.055 C  
HETATM   12  O   UNL     1      -5.818   3.595  66.010  1.00  0.00    -0.018 OA 
HETATM   13  C   UNL     1      -6.366   5.937  65.996  1.00  0.00    -0.042 C  
HETATM   14  H   UNL     1      -5.715   3.642  65.066  1.00  0.00     0.000 HD 
HETATM   15  C   UNL     1      -6.960   7.048  66.888  1.00  0.00    -0.070 C  
HETATM   16  C   UNL     1      -6.966   6.050  64.618  1.00  0.00    -0.052 C  
HETATM   17  O   UNL     1      -6.828   6.811  68.260  1.00  0.00    -0.071 OA 
HETATM   18  C   UNL     1      -6.570   8.486  66.539  1.00  0.00    -0.059 C  
HETATM   19  O   UNL     1      -8.189   6.075  64.392  1.00  0.00    -0.131 OA 
HETATM   20  O   UNL     1      -6.093   6.203  63.647  1.00  0.00    -0.022 OA 
HETATM   21  C   UNL     1      -7.454   9.546  67.262  1.00  0.00    -0.091 C  
HETATM   22  O   UNL     1     -10.696  11.223  68.096  1.00  0.00    -0.184 OA 
HETATM   23  C   UNL     1      -7.346  10.932  66.685  1.00  0.00    -0.139 C  
HETATM   24  C   UNL     1      -7.840  12.038  67.259  1.00  0.00    -0.170 C  
HETATM   25  C   UNL     1     -11.615  12.010  67.446  1.00  0.00    -0.318 C  
HETATM   26  C   UNL     1      -7.559  13.329  66.723  1.00  0.00     0.571 C  
HETATM   27  C   UNL     1     -11.090  13.495  66.725  1.00  0.00    -0.311 C  
HETATM   28  C   UNL     1      -7.870  14.481  67.336  1.00  0.00    -0.221 C  
HETATM   29  C   UNL     1     -11.064  14.931  66.795  1.00  0.00    -0.335 C  
HETATM   30  C   UNL     1      -7.515  15.721  66.709  1.00  0.00    -0.135 C  
HETATM   31  O   UNL     1     -12.347  16.703  68.251  1.00  0.00     0.873 OA 
HETATM   32  C   UNL     1     -11.429  16.500  67.447  1.00  0.00     0.354 C  
HETATM   33  O   UNL     1     -10.631  17.613  66.909  1.00  0.00    -0.317 OA 
HETATM   34  C   UNL     1      -7.721  16.919  67.257  1.00  0.00    -0.196 C  
HETATM   35  C   UNL     1     -10.713  20.111  68.247  1.00  0.00    -0.034 C  
HETATM   36  C   UNL     1     -10.650  19.256  66.931  1.00  0.00    -0.459 C  
HETATM   37  C   UNL     1      -7.661  18.102  66.435  1.00  0.00    -0.291 C  
HETATM   38  C   UNL     1      -9.339  19.814  66.218  1.00  0.00    -0.472 C  
HETATM   39  C   UNL     1      -8.156  19.222  66.958  1.00  0.00    -0.284 C  
ENDROOT
BRANCH  21  40
HETATM   40  O   UNL     1      -7.378   9.519  68.674  1.00  0.00    -0.073 OA 
BRANCH  40  41
HETATM   41  C   UNL     1      -8.503   9.909  69.468  1.00  0.00    -0.176 C  
HETATM   42  C   UNL     1      -8.787  11.365  69.036  1.00  0.00     0.092 C  
HETATM   43  O   UNL     1      -9.063  11.395  67.628  1.00  0.00    -0.150 OA 
HETATM   44  H   UNL     1      -9.237  12.291  67.363  1.00  0.00     0.000 HD 
HETATM   45  N   UNL     1     -10.241  13.334  69.490  1.00  0.00    -0.053 NA 
HETATM   46  H   UNL     1     -12.576  12.359  69.973  1.00  0.00     0.000 HD 
HETATM   47  O   UNL     1     -12.354  11.465  70.207  1.00  0.00    -0.314 OA 
HETATM   48  C   UNL     1      -9.989  11.908  69.812  1.00  0.00     1.370 C  
HETATM   49  C   UNL     1     -11.932   8.571  69.468  1.00  0.00     1.249 C  
HETATM   50  C   UNL     1     -11.193  10.992  69.518  1.00  0.00    -0.279 C  
HETATM   51  C   UNL     1     -10.832   9.533  69.901  1.00  0.00    -0.246 C  
HETATM   52  O   UNL     1      -9.630   9.060  69.277  1.00  0.00    -0.158 OA 
HETATM   53  H2  UNL     1     -11.077  13.669  69.968  1.00  0.00     0.000 HD 
HETATM   54  H1  UNL     1      -9.444  13.940  69.685  1.00  0.00     0.000 HD 
ENDBRANCH  40  41
ENDBRANCH  21  40
TORSDOF 2
ENDMDL
MODEL       54
REMARK 921   NORMALIZED FREE ENERGY PREDICTED BY IDOCK:   40.74 KCAL/MOL
REMARK 922        TOTAL FREE ENERGY PREDICTED BY IDOCK:   44.93 KCAL/MOL
REMARK 923 INTER-LIGAND FREE ENERGY PREDICTED BY IDOCK:   29.62 KCAL/MOL
REMARK 924 INTRA-LIGAND FREE ENERGY PREDICTED BY IDOCK:   15.31 KCAL/MOL
REMARK 927      BINDING AFFINITY PREDICTED BY RF-SCORE:    0.00 PKD
ROOT
HETATM    1  C   UNL     1      -7.509  13.160  67.245  1.00  0.00    -0.064 C  
HETATM    2  C   UNL     1      -6.164  14.291  66.972  1.00  0.00     1.121 C  
HETATM    3  C   UNL     1      -6.379  15.958  66.420  1.00  0.00     1.519 C  
HETATM    4  O   UNL     1      -5.810  15.967  65.062  1.00  0.00     6.194 OA 
HETATM    5  C   UNL     1      -5.705  17.455  67.022  1.00  0.00    -0.186 C  
HETATM    6  H   UNL     1      -5.925  16.862  64.765  1.00  0.00     0.000 HD 
HETATM    7  C   UNL     1      -6.476  18.843  67.580  1.00  0.00    -0.194 C  
HETATM    8  O   UNL     1      -5.615  19.498  68.535  1.00  0.00    -0.201 OA 
HETATM    9  C   UNL     1      -6.793  20.138  66.746  1.00  0.00    -0.265 C  
HETATM   10  H   UNL     1      -6.051  20.281  68.850  1.00  0.00     0.000 HD 
HETATM   11  C   UNL     1      -7.941  20.044  65.762  1.00  0.00    -0.158 C  
HETATM   12  O   UNL     1      -8.422  21.357  65.405  1.00  0.00     1.608 OA 
HETATM   13  C   UNL     1      -9.135  19.253  66.329  1.00  0.00    -0.354 C  
HETATM   14  H   UNL     1      -9.143  21.298  64.788  1.00  0.00     0.000 HD 
HETATM   15  C   UNL     1      -8.666  18.123  67.269  1.00  0.00    -0.244 C  
HETATM   16  C   UNL     1      -9.762  18.637  65.105  1.00  0.00     2.027 C  
HETATM   17  O   UNL     1      -7.712  18.520  68.211  1.00  0.00    -0.274 OA 
HETATM   18  C   UNL     1      -9.763  17.278  67.922  1.00  0.00    -0.273 C  
HETATM   19  O   UNL     1      -9.201  17.786  64.391  1.00  0.00     4.910 OA 
HETATM   20  O   UNL     1     -11.002  19.006  64.875  1.00  0.00    -0.349 OA 
HETATM   21  C   UNL     1      -9.216  15.976  68.581  1.00  0.00    -0.216 C  
HETATM   22  O   UNL     1      -7.468  12.665  68.548  1.00  0.00    -0.117 OA 
HETATM   23  C   UNL     1     -10.277  14.962  68.910  1.00  0.00    -0.238 C  
HETATM   24  C   UNL     1     -10.082  13.870  69.662  1.00  0.00     0.601 C  
HETATM   25  C   UNL     1      -7.709  11.409  68.049  1.00  0.00    -0.114 C  
HETATM   26  C   UNL     1     -11.177  13.044  70.054  1.00  0.00     0.202 C  
HETATM   27  C   UNL     1      -9.159  10.583  68.517  1.00  0.00    -0.154 C  
HETATM   28  C   UNL     1     -11.083  12.043  70.942  1.00  0.00     2.296 C  
HETATM   29  C   UNL     1      -9.756   9.540  69.306  1.00  0.00    -0.180 C  
HETATM   30  C   UNL     1     -12.261  11.295  71.275  1.00  0.00    -0.275 C  
HETATM   31  O   UNL     1      -8.789   7.517  70.677  1.00  0.00    -0.143 OA 
HETATM   32  C   UNL     1      -9.787   8.197  70.409  1.00  0.00    -0.186 C  
HETATM   33  O   UNL     1     -11.111   7.846  70.947  1.00  0.00    -0.246 OA 
HETATM   34  C   UNL     1     -12.292  10.323  72.186  1.00  0.00     0.124 C  
HETATM   35  C   UNL     1     -11.251   6.068  73.150  1.00  0.00    -0.177 C  
HETATM   36  C   UNL     1     -11.805   6.615  71.785  1.00  0.00    -0.335 C  
HETATM   37  C   UNL     1     -13.403   9.403  72.213  1.00  0.00    -0.539 C  
HETATM   38  C   UNL     1     -13.307   6.999  72.150  1.00  0.00    -0.026 C  
HETATM   39  C   UNL     1     -13.247   8.295  72.934  1.00  0.00     0.266 C  
ENDROOT
BRANCH  21  40
HETATM   40  O   UNL     1      -8.293  16.185  69.632  1.00  0.00    -0.060 OA 
BRANCH  40  41
HETATM   41  C   UNL     1      -8.244  17.442  70.314  1.00  0.00     3.016 C  
HETATM   42  C   UNL     1      -6.963  17.360  71.173  1.00  0.00     4.122 C  
HETATM   43  O   UNL     1      -5.832  17.150  70.315  1.00  0.00    -0.224 OA 
HETATM   44  H   UNL     1      -5.045  17.099  70.844  1.00  0.00     0.000 HD 
HETATM   45  N   UNL     1      -5.611  18.591  72.862  1.00  0.00     1.445 NA 
HETATM   46  H   UNL     1      -5.737  21.067  72.163  1.00  0.00     0.000 HD 
HETATM   47  O   UNL     1      -6.518  21.063  71.621  1.00  0.00     0.265 OA 
HETATM   48  C   UNL     1      -6.785  18.662  71.957  1.00  0.00     3.427 C  
HETATM   49  C   UNL     1      -7.861  20.832  68.930  1.00  0.00     1.057 C  
HETATM   50  C   UNL     1      -6.704  19.818  70.941  1.00  0.00     0.310 C  
HETATM   51  C   UNL     1      -7.978  19.812  70.057  1.00  0.00     0.794 C  
HETATM   52  O   UNL     1      -8.225  18.551  69.421  1.00  0.00     0.108 OA 
HETATM   53  H2  UNL     1      -5.467  19.482  73.337  1.00  0.00     0.000 HD 
HETATM   54  H1  UNL     1      -5.665  17.827  73.535  1.00  0.00     0.000 HD 
ENDBRANCH  40  41
ENDBRANCH  21  40
TORSDOF 2
ENDMDL
MODEL       55
REMARK 921   NORMALIZED FREE ENERGY PREDICTED BY IDOCK:   40.75 KCAL/MOL
REMARK 922        TOTAL FREE ENERGY PREDICTED BY IDOCK:   44.95 KCAL/MOL
REMARK 923 INTER-LIGAND FREE ENERGY PREDICTED BY IDOCK:    1.10 KCAL/MOL
REMARK 924 INTRA-LIGAND FREE ENERGY PREDICTED BY IDOCK:   43.85 KCAL/MOL
REMARK 927      BINDING AFFINITY PREDICTED BY RF-SCORE:    0.00 PKD
ROOT
HETATM    1  C   UNL     1      -7.262  10.894  67.767  1.00  0.00    -0.091 C  
HETATM    2  C   UNL     1      -7.296  12.670  67.856  1.00  0.00    -0.116 C  
HETATM    3  C   UNL     1      -8.412  13.678  66.924  1.00  0.00    -0.054 C  
HETATM    4  O   UNL     1      -7.548  14.389  65.968  1.00  0.00     1.309 OA 
HETATM    5  C   UNL     1      -9.439  15.005  67.421  1.00  0.00    -0.202 C  
HETATM    6  H   UNL     1      -8.146  14.930  65.467  1.00  0.00     0.000 HD 
HETATM    7  C   UNL     1     -11.106  15.192  67.290  1.00  0.00    -0.332 C  
HETATM    8  O   UNL     1     -11.559  16.052  68.356  1.00  0.00    -0.364 OA 
HETATM    9  C   UNL     1     -11.876  15.947  66.146  1.00  0.00     0.895 C  
HETATM   10  H   UNL     1     -12.500  16.158  68.283  1.00  0.00     0.000 HD 
HETATM   11  C   UNL     1     -11.976  15.233  64.814  1.00  0.00    -0.184 C  
HETATM   12  O   UNL     1     -13.048  15.778  64.016  1.00  0.00    -0.300 OA 
HETATM   13  C   UNL     1     -12.242  13.725  64.976  1.00  0.00    -0.448 C  
HETATM   14  H   UNL     1     -13.110  15.330  63.180  1.00  0.00     0.000 HD 
HETATM   15  C   UNL     1     -11.561  13.166  66.243  1.00  0.00    -0.356 C  
HETATM   16  C   UNL     1     -11.582  13.119  63.763  1.00  0.00    -0.425 C  
HETATM   17  O   UNL     1     -11.769  13.935  67.391  1.00  0.00    -0.345 OA 
HETATM   18  C   UNL     1     -11.774  11.678  66.532  1.00  0.00    -0.034 C  
HETATM   19  O   UNL     1     -10.356  13.147  63.553  1.00  0.00    -0.114 OA 
HETATM   20  O   UNL     1     -12.395  12.475  62.957  1.00  0.00    -0.358 OA 
HETATM   21  C   UNL     1     -10.804  11.127  67.621  1.00  0.00    -0.247 C  
HETATM   22  O   UNL     1      -7.428  10.343  69.037  1.00  0.00    -0.087 OA 
HETATM   23  C   UNL     1     -10.734   9.625  67.677  1.00  0.00    -0.324 C  
HETATM   24  C   UNL     1     -10.142   8.925  68.655  1.00  0.00    -0.206 C  
HETATM   25  C   UNL     1      -6.403   9.471  68.763  1.00  0.00    -0.047 C  
HETATM   26  C   UNL     1     -10.256   7.504  68.712  1.00  0.00    -0.206 C  
HETATM   27  C   UNL     1      -6.732   7.770  68.737  1.00  0.00    -0.054 C  
HETATM   28  C   UNL     1      -9.841   6.758  69.746  1.00  0.00    -0.175 C  
HETATM   29  C   UNL     1      -6.598   6.502  69.401  1.00  0.00    -0.044 C  
HETATM   30  C   UNL     1     -10.031   5.337  69.700  1.00  0.00    -0.302 C  
HETATM   31  O   UNL     1      -5.180   5.661  71.447  1.00  0.00    -0.009 OA 
HETATM   32  C   UNL     1      -6.085   5.401  70.644  1.00  0.00    -0.022 C  
HETATM   33  O   UNL     1      -6.733   4.081  70.631  1.00  0.00    -0.031 OA 
HETATM   34  C   UNL     1      -9.713   4.511  70.695  1.00  0.00    -0.282 C  
HETATM   35  C   UNL     1      -6.421   2.396  72.890  1.00  0.00    -0.014 C  
HETATM   36  C   UNL     1      -6.530   2.611  71.338  1.00  0.00    -0.019 C  
HETATM   37  C   UNL     1      -9.610   3.094  70.444  1.00  0.00    -0.192 C  
HETATM   38  C   UNL     1      -7.743   1.657  70.941  1.00  0.00    -0.032 C  
HETATM   39  C   UNL     1      -9.012   2.361  71.381  1.00  0.00    -0.144 C  
ENDROOT
BRANCH  21  40
HETATM   40  O   UNL     1     -10.935  11.731  68.893  1.00  0.00    -0.220 OA 
BRANCH  40  41
HETATM   41  C   UNL     1      -9.923  11.550  69.889  1.00  0.00     1.266 C  
HETATM   42  C   UNL     1      -9.741  10.018  69.972  1.00  0.00    -0.175 C  
HETATM   43  O   UNL     1      -9.351   9.518  68.685  1.00  0.00    -0.140 OA 
HETATM   44  H   UNL     1      -9.239   8.576  68.737  1.00  0.00     0.000 HD 
HETATM   45  N   UNL     1      -8.522   8.217  71.182  1.00  0.00    -0.120 NA 
HETATM   46  H   UNL     1      -6.156   9.149  71.588  1.00  0.00     0.000 HD 
HETATM   47  O   UNL     1      -6.312  10.083  71.503  1.00  0.00    -0.313 OA 
HETATM   48  C   UNL     1      -8.666   9.683  71.008  1.00  0.00     0.408 C  
HETATM   49  C   UNL     1      -6.396  12.603  69.847  1.00  0.00    -0.031 C  
HETATM   50  C   UNL     1      -7.361  10.378  70.575  1.00  0.00     0.425 C  
HETATM   51  C   UNL     1      -7.615  11.902  70.436  1.00  0.00     2.961 C  
HETATM   52  O   UNL     1      -8.710  12.221  69.566  1.00  0.00     0.990 OA 
HETATM   53  H2  UNL     1      -7.765   8.003  71.831  1.00  0.00     0.000 HD 
HETATM   54  H1  UNL     1      -9.386   7.756  71.468  1.00  0.00     0.000 HD 
ENDBRANCH  40  41
ENDBRANCH  21  40
TORSDOF 2
ENDMDL
MODEL       56
REMARK 921   NORMALIZED FREE ENERGY PREDICTED BY IDOCK:   41.82 KCAL/MOL
REMARK 922        TOTAL FREE ENERGY PREDICTED BY IDOCK:   46.14 KCAL/MOL
REMARK 923 INTER-LIGAND FREE ENERGY PREDICTED BY IDOCK:   39.91 KCAL/MOL
REMARK 924 INTRA-LIGAND FREE ENERGY PREDICTED BY IDOCK:    6.23 KCAL/MOL
REMARK 927      BINDING AFFINITY PREDICTED BY RF-SCORE:    0.00 PKD
ROOT
HETATM    1  C   UNL     1      -6.822  11.306  63.879  1.00  0.00     1.539 C  
HETATM    2  C   UNL     1      -5.748  12.587  64.484  1.00  0.00     7.863 C  
HETATM    3  C   UNL     1      -6.326  14.073  65.253  1.00  0.00    13.318 C  
HETATM    4  O   UNL     1      -5.984  15.135  64.293  1.00  0.00    16.117 OA 
HETATM    5  C   UNL     1      -5.831  14.857  66.735  1.00  0.00     1.869 C  
HETATM    6  H   UNL     1      -6.294  15.932  64.705  1.00  0.00     0.000 HD 
HETATM    7  C   UNL     1      -6.731  15.264  68.098  1.00  0.00    -0.129 C  
HETATM    8  O   UNL     1      -5.856  15.266  69.246  1.00  0.00    -0.096 OA 
HETATM    9  C   UNL     1      -7.388  16.659  68.404  1.00  0.00    -0.190 C  
HETATM   10  H   UNL     1      -6.363  15.495  70.015  1.00  0.00     0.000 HD 
HETATM   11  C   UNL     1      -8.642  17.000  67.626  1.00  0.00    -0.210 C  
HETATM   12  O   UNL     1      -9.389  18.045  68.284  1.00  0.00    -0.277 OA 
HETATM   13  C   UNL     1      -9.581  15.790  67.469  1.00  0.00    -0.224 C  
HETATM   14  H   UNL     1     -10.175  18.259  67.796  1.00  0.00     0.000 HD 
HETATM   15  C   UNL     1      -8.787  14.472  67.355  1.00  0.00    -0.198 C  
HETATM   16  C   UNL     1     -10.277  16.052  66.158  1.00  0.00    -0.324 C  
HETATM   17  O   UNL     1      -7.781  14.325  68.314  1.00  0.00    -0.117 OA 
HETATM   18  C   UNL     1      -9.610  13.188  67.223  1.00  0.00    -0.233 C  
HETATM   19  O   UNL     1      -9.698  16.076  65.057  1.00  0.00    -0.257 OA 
HETATM   20  O   UNL     1     -11.582  16.180  66.242  1.00  0.00     0.410 OA 
HETATM   21  C   UNL     1      -8.754  11.960  66.788  1.00  0.00    -0.193 C  
HETATM   22  O   UNL     1      -6.496  10.084  64.465  1.00  0.00    -0.118 OA 
HETATM   23  C   UNL     1      -9.564  10.787  66.306  1.00  0.00    -0.234 C  
HETATM   24  C   UNL     1      -9.071   9.561  66.082  1.00  0.00    -0.207 C  
HETATM   25  C   UNL     1      -6.595   9.496  63.228  1.00  0.00    -0.101 C  
HETATM   26  C   UNL     1      -9.936   8.468  65.777  1.00  0.00     0.296 C  
HETATM   27  C   UNL     1      -7.793   8.270  62.973  1.00  0.00    -0.148 C  
HETATM   28  C   UNL     1      -9.537   7.189  65.713  1.00  0.00     0.366 C  
HETATM   29  C   UNL     1      -8.074   6.870  62.804  1.00  0.00    -0.046 C  
HETATM   30  C   UNL     1     -10.504   6.172  65.419  1.00  0.00     1.765 C  
HETATM   31  O   UNL     1      -6.576   4.753  62.378  1.00  0.00    -0.025 OA 
HETATM   32  C   UNL     1      -7.705   5.178  62.654  1.00  0.00    -0.069 C  
HETATM   33  O   UNL     1      -8.850   4.264  62.782  1.00  0.00    -0.101 OA 
HETATM   34  C   UNL     1     -10.229   4.869  65.391  1.00  0.00    -0.022 C  
HETATM   35  C   UNL     1      -8.343   1.495  63.114  1.00  0.00    -0.065 C  
HETATM   36  C   UNL     1      -9.187   2.678  62.516  1.00  0.00    -0.087 C  
HETATM   37  C   UNL     1     -11.150   3.956  64.758  1.00  0.00     0.252 C  
HETATM   38  C   UNL     1     -10.657   2.351  63.034  1.00  0.00    -0.185 C  
HETATM   39  C   UNL     1     -10.697   2.730  64.500  1.00  0.00     0.556 C  
ENDROOT
BRANCH  21  40
HETATM   40  O   UNL     1      -7.729  11.601  67.694  1.00  0.00    -0.119 OA 
BRANCH  40  41
HETATM   41  C   UNL     1      -7.469  10.224  67.985  1.00  0.00    -0.087 C  
HETATM   42  C   UNL     1      -6.809   9.680  66.699  1.00  0.00    -0.084 C  
HETATM   43  O   UNL     1      -5.613  10.426  66.431  1.00  0.00    -0.050 OA 
HETATM   44  H   UNL     1      -5.207  10.092  65.640  1.00  0.00     0.000 HD 
HETATM   45  N   UNL     1      -5.910   7.617  65.637  1.00  0.00    -0.037 NA 
HETATM   46  H   UNL     1      -4.736   6.330  67.534  1.00  0.00     0.000 HD 
HETATM   47  O   UNL     1      -5.153   6.712  68.298  1.00  0.00    -0.007 OA 
HETATM   48  C   UNL     1      -6.468   8.200  66.881  1.00  0.00    -0.057 C  
HETATM   49  C   UNL     1      -5.231   8.758  70.513  1.00  0.00    -0.020 C  
HETATM   50  C   UNL     1      -5.520   8.080  68.091  1.00  0.00    -0.033 C  
HETATM   51  C   UNL     1      -6.200   8.704  69.338  1.00  0.00    -0.041 C  
HETATM   52  O   UNL     1      -6.642  10.053  69.131  1.00  0.00    -0.050 OA 
HETATM   53  H2  UNL     1      -5.633   6.647  65.785  1.00  0.00     0.000 HD 
HETATM   54  H1  UNL     1      -6.537   7.696  64.837  1.00  0.00     0.000 HD 
ENDBRANCH  40  41
ENDBRANCH  21  40
TORSDOF 2
ENDMDL
MODEL       57
REMARK 921   NORMALIZED FREE ENERGY PREDICTED BY IDOCK:   42.04 KCAL/MOL
REMARK 922        TOTAL FREE ENERGY PREDICTED BY IDOCK:   46.39 KCAL/MOL
REMARK 923 INTER-LIGAND FREE ENERGY PREDICTED BY IDOCK:    3.97 KCAL/MOL
REMARK 924 INTRA-LIGAND FREE ENERGY PREDICTED BY IDOCK:   42.42 KCAL/MOL
REMARK 927      BINDING AFFINITY PREDICTED BY RF-SCORE:    0.00 PKD
ROOT
HETATM    1  C   UNL     1     -10.993  13.422  70.733  1.00  0.00     2.015 C  
HETATM    2  C   UNL     1     -11.924  14.761  70.025  1.00  0.00    -0.369 C  
HETATM    3  C   UNL     1     -11.186  16.208  69.323  1.00  0.00    -0.337 C  
HETATM    4  O   UNL     1     -11.561  17.291  70.247  1.00  0.00     0.551 OA 
HETATM    5  C   UNL     1     -11.482  17.015  67.800  1.00  0.00     0.406 C  
HETATM    6  H   UNL     1     -11.164  18.068  69.870  1.00  0.00     0.000 HD 
HETATM    7  C   UNL     1     -10.426  17.364  66.537  1.00  0.00    -0.264 C  
HETATM    8  O   UNL     1     -11.179  17.413  65.306  1.00  0.00    -0.206 OA 
HETATM    9  C   UNL     1      -9.661  18.718  66.303  1.00  0.00    -0.316 C  
HETATM   10  H   UNL     1     -10.583  17.610  64.593  1.00  0.00     0.000 HD 
HETATM   11  C   UNL     1      -8.475  18.987  67.205  1.00  0.00    -0.280 C  
HETATM   12  O   UNL     1      -7.605  19.985  66.628  1.00  0.00    -0.265 OA 
HETATM   13  C   UNL     1      -7.628  17.725  67.452  1.00  0.00    -0.213 C  
HETATM   14  H   UNL     1      -6.861  20.154  67.194  1.00  0.00     0.000 HD 
HETATM   15  C   UNL     1      -8.505  16.456  67.482  1.00  0.00    -0.169 C  
HETATM   16  C   UNL     1      -7.055  17.950  68.828  1.00  0.00    -0.268 C  
HETATM   17  O   UNL     1      -9.416  16.365  66.425  1.00  0.00    -0.256 OA 
HETATM   18  C   UNL     1      -7.776  15.127  67.693  1.00  0.00    -0.186 C  
HETATM   19  O   UNL     1      -7.740  18.012  69.865  1.00  0.00     0.739 OA 
HETATM   20  O   UNL     1      -5.743  18.002  68.877  1.00  0.00    -0.184 OA 
HETATM   21  C   UNL     1      -8.742  13.952  68.036  1.00  0.00    -0.183 C  
HETATM   22  O   UNL     1     -11.329  12.218  70.114  1.00  0.00    -0.055 OA 
HETATM   23  C   UNL     1      -8.055  12.735  68.594  1.00  0.00    -0.007 C  
HETATM   24  C   UNL     1      -8.638  11.541  68.764  1.00  0.00    -0.055 C  
HETATM   25  C   UNL     1     -11.391  11.629  71.353  1.00  0.00     2.543 C  
HETATM   26  C   UNL     1      -7.874  10.401  69.152  1.00  0.00    -0.134 C  
HETATM   27  C   UNL     1     -10.299  10.337  71.724  1.00  0.00     2.827 C  
HETATM   28  C   UNL     1      -8.352   9.147  69.172  1.00  0.00    -0.123 C  
HETATM   29  C   UNL     1     -10.118   8.923  71.917  1.00  0.00    -0.393 C  
HETATM   30  C   UNL     1      -7.480   8.077  69.560  1.00  0.00    -0.092 C  
HETATM   31  O   UNL     1     -11.772   6.898  72.183  1.00  0.00    -0.279 OA 
HETATM   32  C   UNL     1     -10.598   7.256  72.024  1.00  0.00    -0.207 C  
HETATM   33  O   UNL     1      -9.501   6.276  72.010  1.00  0.00    -0.153 OA 
HETATM   34  C   UNL     1      -7.833   6.791  69.556  1.00  0.00    -0.113 C  
HETATM   35  C   UNL     1     -10.133   3.540  71.621  1.00  0.00    -0.118 C  
HETATM   36  C   UNL     1      -9.286   4.674  72.304  1.00  0.00    -0.128 C  
HETATM   37  C   UNL     1      -7.036   5.828  70.276  1.00  0.00    -0.058 C  
HETATM   38  C   UNL     1      -7.793   4.260  71.937  1.00  0.00    -0.084 C  
HETATM   39  C   UNL     1      -7.583   4.632  70.483  1.00  0.00    -0.054 C  
ENDROOT
BRANCH  21  40
HETATM   40  O   UNL     1      -9.690  13.651  67.030  1.00  0.00    -0.237 OA 
BRANCH  40  41
HETATM   41  C   UNL     1     -10.749  12.724  67.288  1.00  0.00    -0.237 C  
HETATM   42  C   UNL     1     -10.126  11.342  66.989  1.00  0.00    -0.206 C  
HETATM   43  O   UNL     1      -8.991  11.140  67.844  1.00  0.00    -0.136 OA 
HETATM   44  H   UNL     1      -8.609  10.290  67.660  1.00  0.00     0.000 HD 
HETATM   45  N   UNL     1     -10.633   8.907  66.878  1.00  0.00    -0.236 NA 
HETATM   46  H   UNL     1     -12.244   8.456  68.836  1.00  0.00     0.000 HD 
HETATM   47  O   UNL     1     -12.580   9.330  68.999  1.00  0.00     2.169 OA 
HETATM   48  C   UNL     1     -11.164  10.245  67.237  1.00  0.00    -0.011 C  
HETATM   49  C   UNL     1     -12.469  11.970  70.454  1.00  0.00    -0.235 C  
HETATM   50  C   UNL     1     -11.618  10.348  68.706  1.00  0.00    -0.119 C  
HETATM   51  C   UNL     1     -12.167  11.774  68.973  1.00  0.00    -0.071 C  
HETATM   52  O   UNL     1     -11.246  12.815  68.619  1.00  0.00    -0.247 OA 
HETATM   53  H2  UNL     1     -11.310   8.178  67.100  1.00  0.00     0.000 HD 
HETATM   54  H1  UNL     1     -10.332   8.839  65.906  1.00  0.00     0.000 HD 
ENDBRANCH  40  41
ENDBRANCH  21  40
TORSDOF 2
ENDMDL
MODEL       58
REMARK 921   NORMALIZED FREE ENERGY PREDICTED BY IDOCK:   45.76 KCAL/MOL
REMARK 922        TOTAL FREE ENERGY PREDICTED BY IDOCK:   50.53 KCAL/MOL
REMARK 923 INTER-LIGAND FREE ENERGY PREDICTED BY IDOCK:    7.47 KCAL/MOL
REMARK 924 INTRA-LIGAND FREE ENERGY PREDICTED BY IDOCK:   43.06 KCAL/MOL
REMARK 927      BINDING AFFINITY PREDICTED BY RF-SCORE:    0.00 PKD
ROOT
HETATM    1  C   UNL     1      -6.699  13.992  67.269  1.00  0.00     0.252 C  
HETATM    2  C   UNL     1      -6.193  15.457  68.141  1.00  0.00    -0.135 C  
HETATM    3  C   UNL     1      -7.032  17.010  68.021  1.00  0.00    -0.165 C  
HETATM    4  O   UNL     1      -6.080  17.883  67.316  1.00  0.00    -0.142 OA 
HETATM    5  C   UNL     1      -7.568  18.117  69.265  1.00  0.00     0.054 C  
HETATM    6  H   UNL     1      -6.531  18.718  67.251  1.00  0.00     0.000 HD 
HETATM    7  C   UNL     1      -9.108  18.709  69.598  1.00  0.00     0.720 C  
HETATM    8  O   UNL     1      -9.189  19.017  71.006  1.00  0.00     3.109 OA 
HETATM    9  C   UNL     1      -9.713  20.074  69.106  1.00  0.00    -0.150 C  
HETATM   10  H   UNL     1     -10.058  19.352  71.194  1.00  0.00     0.000 HD 
HETATM   11  C   UNL     1     -10.135  20.141  67.654  1.00  0.00    -0.402 C  
HETATM   12  O   UNL     1     -11.060  21.228  67.435  1.00  0.00     2.746 OA 
HETATM   13  C   UNL     1     -10.825  18.847  67.184  1.00  0.00    -0.425 C  
HETATM   14  H   UNL     1     -11.325  21.270  66.524  1.00  0.00     0.000 HD 
HETATM   15  C   UNL     1     -10.236  17.607  67.889  1.00  0.00    -0.357 C  
HETATM   16  C   UNL     1     -10.484  18.779  65.717  1.00  0.00    -0.271 C  
HETATM   17  O   UNL     1     -10.106  17.744  69.274  1.00  0.00    -0.281 OA 
HETATM   18  C   UNL     1     -10.859  16.256  67.528  1.00  0.00    -0.268 C  
HETATM   19  O   UNL     1      -9.329  18.632  65.279  1.00  0.00     0.549 OA 
HETATM   20  O   UNL     1     -11.519  18.807  64.908  1.00  0.00     0.453 OA 
HETATM   21  C   UNL     1     -10.009  15.046  68.019  1.00  0.00    -0.219 C  
HETATM   22  O   UNL     1      -6.912  12.945  68.166  1.00  0.00    -0.081 OA 
HETATM   23  C   UNL     1     -10.387  13.733  67.387  1.00  0.00    -0.252 C  
HETATM   24  C   UNL     1      -9.949  12.535  67.797  1.00  0.00    -0.210 C  
HETATM   25  C   UNL     1      -6.223  12.114  67.317  1.00  0.00    -0.152 C  
HETATM   26  C   UNL     1     -10.478  11.332  67.242  1.00  0.00    -0.249 C  
HETATM   27  C   UNL     1      -7.047  10.763  66.612  1.00  0.00    -0.133 C  
HETATM   28  C   UNL     1     -10.218  10.106  67.720  1.00  0.00    -0.232 C  
HETATM   29  C   UNL     1      -7.242   9.338  66.598  1.00  0.00    -0.082 C  
HETATM   30  C   UNL     1     -10.827   8.970  67.091  1.00  0.00    -0.079 C  
HETATM   31  O   UNL     1      -5.970   7.317  67.696  1.00  0.00    -0.031 OA 
HETATM   32  C   UNL     1      -6.977   7.689  67.080  1.00  0.00    -0.080 C  
HETATM   33  O   UNL     1      -7.988   6.723  66.625  1.00  0.00    -0.105 OA 
HETATM   34  C   UNL     1     -10.686   7.717  67.521  1.00  0.00    -0.280 C  
HETATM   35  C   UNL     1      -8.001   4.132  67.774  1.00  0.00    -0.090 C  
HETATM   36  C   UNL     1      -8.175   5.093  66.543  1.00  0.00    -0.108 C  
HETATM   37  C   UNL     1     -11.034   6.619  66.652  1.00  0.00    -0.121 C  
HETATM   38  C   UNL     1      -9.647   4.749  66.040  1.00  0.00    -0.187 C  
HETATM   39  C   UNL     1     -10.604   5.411  67.012  1.00  0.00    -0.298 C  
ENDROOT
BRANCH  21  40
HETATM   40  O   UNL     1      -9.843  14.967  69.421  1.00  0.00    -0.196 OA 
BRANCH  40  41
HETATM   41  C   UNL     1      -8.675  14.356  69.979  1.00  0.00     1.175 C  
HETATM   42  C   UNL     1      -8.888  12.844  69.747  1.00  0.00     2.491 C  
HETATM   43  O   UNL     1      -9.026  12.597  68.340  1.00  0.00    -0.258 OA 
HETATM   44  H   UNL     1      -9.158  11.666  68.198  1.00  0.00     0.000 HD 
HETATM   45  N   UNL     1      -7.897  10.601  70.171  1.00  0.00    -0.373 NA 
HETATM   46  H   UNL     1      -5.354  10.920  69.911  1.00  0.00     0.000 HD 
HETATM   47  O   UNL     1      -5.275  11.859  70.036  1.00  0.00    -0.073 OA 
HETATM   48  C   UNL     1      -7.692  12.064  70.296  1.00  0.00     2.881 C  
HETATM   49  C   UNL     1      -5.158  14.665  68.936  1.00  0.00    -0.089 C  
HETATM   50  C   UNL     1      -6.428  12.569  69.572  1.00  0.00    -0.083 C  
HETATM   51  C   UNL     1      -6.299  14.101  69.775  1.00  0.00    -0.141 C  
HETATM   52  O   UNL     1      -7.471  14.829  69.384  1.00  0.00    -0.163 OA 
HETATM   53  H2  UNL     1      -7.071  10.092  70.486  1.00  0.00     0.000 HD 
HETATM   54  H1  UNL     1      -8.733  10.267  70.650  1.00  0.00     0.000 HD 
ENDBRANCH  40  41
ENDBRANCH  21  40
TORSDOF 2
ENDMDL
MODEL       59
REMARK 921   NORMALIZED FREE ENERGY PREDICTED BY IDOCK:   47.06 KCAL/MOL
REMARK 922        TOTAL FREE ENERGY PREDICTED BY IDOCK:   51.99 KCAL/MOL
REMARK 923 INTER-LIGAND FREE ENERGY PREDICTED BY IDOCK:   50.67 KCAL/MOL
REMARK 924 INTRA-LIGAND FREE ENERGY PREDICTED BY IDOCK:    1.33 KCAL/MOL
REMARK 927      BINDING AFFINITY PREDICTED BY RF-SCORE:    0.00 PKD
ROOT
HETATM    1  C   UNL     1     -11.346  15.354  68.718  1.00  0.00    -0.320 C  
HETATM    2  C   UNL     1     -10.700  16.494  67.515  1.00  0.00    -0.283 C  
HETATM    3  C   UNL     1      -9.545  17.778  67.899  1.00  0.00    -0.280 C  
HETATM    4  O   UNL     1     -10.310  19.021  67.714  1.00  0.00    -0.373 OA 
HETATM    5  C   UNL     1      -8.051  18.241  67.116  1.00  0.00    -0.232 C  
HETATM    6  H   UNL     1      -9.690  19.711  67.920  1.00  0.00     0.000 HD 
HETATM    7  C   UNL     1      -6.490  18.342  67.735  1.00  0.00    -0.205 C  
HETATM    8  O   UNL     1      -5.552  18.115  66.662  1.00  0.00    -0.135 OA 
HETATM    9  C   UNL     1      -5.782  19.634  68.286  1.00  0.00    -0.231 C  
HETATM   10  H   UNL     1      -4.670  18.172  67.011  1.00  0.00     0.000 HD 
HETATM   11  C   UNL     1      -6.223  20.114  69.653  1.00  0.00    -0.342 C  
HETATM   12  O   UNL     1      -5.234  20.989  70.236  1.00  0.00    -0.483 OA 
HETATM   13  C   UNL     1      -6.449  18.952  70.637  1.00  0.00     0.532 C  
HETATM   14  H   UNL     1      -5.511  21.290  71.093  1.00  0.00     0.000 HD 
HETATM   15  C   UNL     1      -6.982  17.697  69.915  1.00  0.00     0.539 C  
HETATM   16  C   UNL     1      -7.523  19.474  71.557  1.00  0.00     2.561 C  
HETATM   17  O   UNL     1      -6.280  17.366  68.752  1.00  0.00    -0.168 OA 
HETATM   18  C   UNL     1      -7.221  16.459  70.783  1.00  0.00     2.661 C  
HETATM   19  O   UNL     1      -8.683  19.736  71.193  1.00  0.00     1.904 OA 
HETATM   20  O   UNL     1      -7.171  19.565  72.820  1.00  0.00     1.958 OA 
HETATM   21  C   UNL     1      -8.054  15.361  70.056  1.00  0.00     0.322 C  
HETATM   22  O   UNL     1     -11.098  14.041  68.321  1.00  0.00    -0.239 OA 
HETATM   23  C   UNL     1      -8.608  14.304  70.973  1.00  0.00     4.314 C  
HETATM   24  C   UNL     1      -9.171  13.158  70.564  1.00  0.00     5.989 C  
HETATM   25  C   UNL     1     -12.390  13.723  68.665  1.00  0.00     0.021 C  
HETATM   26  C   UNL     1      -9.529  12.143  71.500  1.00  0.00    14.438 C  
HETATM   27  C   UNL     1     -12.664  12.562  69.922  1.00  0.00     0.369 C  
HETATM   28  C   UNL     1      -9.931  10.911  71.154  1.00  0.00     4.060 C  
HETATM   29  C   UNL     1     -13.064  11.226  70.267  1.00  0.00     0.233 C  
HETATM   30  C   UNL     1     -10.243   9.966  72.187  1.00  0.00     2.634 C  
HETATM   31  O   UNL     1     -14.195   9.264  68.933  1.00  0.00     6.259 OA 
HETATM   32  C   UNL     1     -13.630   9.608  69.979  1.00  0.00     1.383 C  
HETATM   33  O   UNL     1     -13.481   8.672  71.105  1.00  0.00    -0.174 OA 
HETATM   34  C   UNL     1     -10.593   8.700  71.956  1.00  0.00    -0.421 C  
HETATM   35  C   UNL     1     -13.834   5.901  70.620  1.00  0.00     4.831 C  
HETATM   36  C   UNL     1     -14.003   7.172  71.528  1.00  0.00    -0.312 C  
HETATM   37  C   UNL     1     -11.217   7.928  73.003  1.00  0.00    -0.346 C  
HETATM   38  C   UNL     1     -13.299   6.726  72.884  1.00  0.00     1.482 C  
HETATM   39  C   UNL     1     -11.804   6.790  72.640  1.00  0.00    -0.054 C  
ENDROOT
BRANCH  21  40
HETATM   40  O   UNL     1      -7.452  14.833  68.890  1.00  0.00    -0.121 OA 
BRANCH  40  41
HETATM   41  C   UNL     1      -7.836  13.546  68.396  1.00  0.00    -0.143 C  
HETATM   42  C   UNL     1      -8.773  13.858  67.208  1.00  0.00    -0.217 C  
HETATM   43  O   UNL     1      -8.060  14.637  66.236  1.00  0.00    -0.081 OA 
HETATM   44  H   UNL     1      -8.637  14.829  65.506  1.00  0.00     0.000 HD 
HETATM   45  N   UNL     1     -10.227  12.807  65.483  1.00  0.00    -0.279 NA 
HETATM   46  H   UNL     1      -8.983  10.672  64.753  1.00  0.00     0.000 HD 
HETATM   47  O   UNL     1      -8.406  10.536  65.496  1.00  0.00    -0.163 OA 
HETATM   48  C   UNL     1      -9.255  12.552  66.574  1.00  0.00    -0.210 C  
HETATM   49  C   UNL     1      -5.754  10.914  66.882  1.00  0.00    -0.067 C  
HETATM   50  C   UNL     1      -8.012  11.764  66.114  1.00  0.00     0.260 C  
HETATM   51  C   UNL     1      -7.071  11.540  67.327  1.00  0.00    -0.128 C  
HETATM   52  O   UNL     1      -6.720  12.752  68.008  1.00  0.00    -0.076 OA 
HETATM   53  H2  UNL     1     -10.498  11.934  65.030  1.00  0.00     0.000 HD 
HETATM   54  H1  UNL     1     -11.049  13.328  65.787  1.00  0.00     0.000 HD 
ENDBRANCH  40  41
ENDBRANCH  21  40
TORSDOF 2
ENDMDL
MODEL       60
REMARK 921   NORMALIZED FREE ENERGY PREDICTED BY IDOCK:   47.17 KCAL/MOL
REMARK 922        TOTAL FREE ENERGY PREDICTED BY IDOCK:   52.11 KCAL/MOL
REMARK 923 INTER-LIGAND FREE ENERGY PREDICTED BY IDOCK:   43.07 KCAL/MOL
REMARK 924 INTRA-LIGAND FREE ENERGY PREDICTED BY IDOCK:    9.04 KCAL/MOL
REMARK 927      BINDING AFFINITY PREDICTED BY RF-SCORE:    0.00 PKD
ROOT
HETATM    1  C   UNL     1      -9.485  15.421  70.469  1.00  0.00     0.952 C  
HETATM    2  C   UNL     1     -10.585  16.810  70.321  1.00  0.00     0.191 C  
HETATM    3  C   UNL     1     -10.411  18.075  69.097  1.00  0.00    -0.062 C  
HETATM    4  O   UNL     1     -10.041  19.275  69.865  1.00  0.00    -0.256 OA 
HETATM    5  C   UNL     1     -11.586  18.782  68.011  1.00  0.00     1.483 C  
HETATM    6  H   UNL     1      -9.947  19.955  69.208  1.00  0.00     0.000 HD 
HETATM    7  C   UNL     1     -11.590  18.873  66.330  1.00  0.00     1.622 C  
HETATM    8  O   UNL     1     -12.958  18.919  65.874  1.00  0.00     8.680 OA 
HETATM    9  C   UNL     1     -11.096  20.082  65.456  1.00  0.00     0.095 C  
HETATM   10  H   UNL     1     -12.961  18.970  64.926  1.00  0.00     0.000 HD 
HETATM   11  C   UNL     1      -9.597  20.262  65.339  1.00  0.00     0.454 C  
HETATM   12  O   UNL     1      -9.263  21.078  64.195  1.00  0.00     1.194 OA 
HETATM   13  C   UNL     1      -8.856  18.922  65.182  1.00  0.00     2.290 C  
HETATM   14  H   UNL     1      -8.323  21.191  64.122  1.00  0.00     0.000 HD 
HETATM   15  C   UNL     1      -9.564  17.792  65.960  1.00  0.00    -0.093 C  
HETATM   16  C   UNL     1      -7.516  19.183  65.820  1.00  0.00    -0.177 C  
HETATM   17  O   UNL     1     -10.946  17.738  65.757  1.00  0.00    -0.110 OA 
HETATM   18  C   UNL     1      -8.939  16.399  65.860  1.00  0.00    -0.194 C  
HETATM   19  O   UNL     1      -7.358  19.427  67.029  1.00  0.00    -0.212 OA 
HETATM   20  O   UNL     1      -6.486  19.057  65.012  1.00  0.00    -0.414 OA 
HETATM   21  C   UNL     1      -9.507  15.403  66.916  1.00  0.00    -0.230 C  
HETATM   22  O   UNL     1     -10.202  14.227  70.402  1.00  0.00     0.763 OA 
HETATM   23  C   UNL     1      -8.683  14.155  67.087  1.00  0.00    -0.239 C  
HETATM   24  C   UNL     1      -9.073  13.071  67.772  1.00  0.00    -0.200 C  
HETATM   25  C   UNL     1      -9.471  13.760  71.467  1.00  0.00     8.930 C  
HETATM   26  C   UNL     1      -8.298  11.874  67.755  1.00  0.00    -0.149 C  
HETATM   27  C   UNL     1      -8.466  12.366  71.251  1.00  0.00    12.577 C  
HETATM   28  C   UNL     1      -8.709  10.705  68.268  1.00  0.00    -0.135 C  
HETATM   29  C   UNL     1      -8.273  10.963  71.500  1.00  0.00     6.929 C  
HETATM   30  C   UNL     1      -7.848   9.562  68.171  1.00  0.00    -0.083 C  
HETATM   31  O   UNL     1      -9.453   9.216  73.069  1.00  0.00     0.422 OA 
HETATM   32  C   UNL     1      -8.649   9.394  72.145  1.00  0.00     1.282 C  
HETATM   33  O   UNL     1      -7.875   8.274  71.587  1.00  0.00    -0.095 OA 
HETATM   34  C   UNL     1      -8.181   8.342  68.591  1.00  0.00    -0.120 C  
HETATM   35  C   UNL     1      -8.742   5.628  72.120  1.00  0.00    -0.133 C  
HETATM   36  C   UNL     1      -7.600   6.689  71.920  1.00  0.00    -0.096 C  
HETATM   37  C   UNL     1      -7.156   7.344  68.776  1.00  0.00    -0.081 C  
HETATM   38  C   UNL     1      -6.727   6.043  70.755  1.00  0.00    -0.057 C  
HETATM   39  C   UNL     1      -7.495   6.256  69.466  1.00  0.00    -0.093 C  
ENDROOT
BRANCH  21  40
HETATM   40  O   UNL     1     -10.894  15.149  66.808  1.00  0.00    -0.314 OA 
BRANCH  40  41
HETATM   41  C   UNL     1     -11.366  13.975  66.140  1.00  0.00    -0.321 C  
HETATM   42  C   UNL     1     -11.196  14.297  64.638  1.00  0.00    -0.366 C  
HETATM   43  O   UNL     1      -9.814  14.572  64.368  1.00  0.00    -0.478 OA 
HETATM   44  H   UNL     1      -9.709  14.770  63.445  1.00  0.00     0.000 HD 
HETATM   45  N   UNL     1     -11.595  13.405  62.349  1.00  0.00     1.204 NA 
HETATM   46  H   UNL     1     -11.109  10.881  62.506  1.00  0.00     0.000 HD 
HETATM   47  O   UNL     1     -11.200  10.737  63.441  1.00  0.00     0.321 OA 
HETATM   48  C   UNL     1     -11.661  13.104  63.800  1.00  0.00    -0.461 C  
HETATM   49  C   UNL     1     -10.016  10.551  66.209  1.00  0.00    -0.276 C  
HETATM   50  C   UNL     1     -10.817  11.881  64.210  1.00  0.00    -0.344 C  
HETATM   51  C   UNL     1     -10.966  11.646  65.736  1.00  0.00    -0.274 C  
HETATM   52  O   UNL     1     -10.656  12.803  66.525  1.00  0.00    -0.251 OA 
HETATM   53  H2  UNL     1     -11.853  12.587  61.798  1.00  0.00     0.000 HD 
HETATM   54  H1  UNL     1     -12.154  14.214  62.078  1.00  0.00     0.000 HD 
ENDBRANCH  40  41
ENDBRANCH  21  40
TORSDOF 2
ENDMDL
MODEL       61
REMARK 921   NORMALIZED FREE ENERGY PREDICTED BY IDOCK:   48.23 KCAL/MOL
REMARK 922        TOTAL FREE ENERGY PREDICTED BY IDOCK:   53.29 KCAL/MOL
REMARK 923 INTER-LIGAND FREE ENERGY PREDICTED BY IDOCK:   17.19 KCAL/MOL
REMARK 924 INTRA-LIGAND FREE ENERGY PREDICTED BY IDOCK:   36.11 KCAL/MOL
REMARK 927      BINDING AFFINITY PREDICTED BY RF-SCORE:    0.00 PKD
ROOT
HETATM    1  C   UNL     1      -7.430  11.774  67.335  1.00  0.00    -0.143 C  
HETATM    2  C   UNL     1      -7.922  12.893  68.627  1.00  0.00    -0.024 C  
HETATM    3  C   UNL     1      -8.860  14.367  68.344  1.00  0.00    -0.182 C  
HETATM    4  O   UNL     1      -7.919  15.459  68.645  1.00  0.00    -0.133 OA 
HETATM    5  C   UNL     1     -10.283  14.986  69.150  1.00  0.00    -0.241 C  
HETATM    6  H   UNL     1      -8.422  16.250  68.494  1.00  0.00     0.000 HD 
HETATM    7  C   UNL     1     -11.797  15.378  68.526  1.00  0.00    -0.272 C  
HETATM    8  O   UNL     1     -12.783  15.208  69.566  1.00  0.00    -0.590 OA 
HETATM    9  C   UNL     1     -12.286  16.805  68.083  1.00  0.00     1.539 C  
HETATM   10  H   UNL     1     -13.637  15.428  69.214  1.00  0.00     0.000 HD 
HETATM   11  C   UNL     1     -11.745  17.326  66.768  1.00  0.00     1.839 C  
HETATM   12  O   UNL     1     -12.577  18.389  66.254  1.00  0.00     5.791 OA 
HETATM   13  C   UNL     1     -11.676  16.231  65.688  1.00  0.00     0.922 C  
HETATM   14  H   UNL     1     -12.237  18.715  65.428  1.00  0.00     0.000 HD 
HETATM   15  C   UNL     1     -11.357  14.852  66.304  1.00  0.00    -0.306 C  
HETATM   16  C   UNL     1     -10.514  16.657  64.828  1.00  0.00     0.430 C  
HETATM   17  O   UNL     1     -12.128  14.535  67.426  1.00  0.00    -0.380 OA 
HETATM   18  C   UNL     1     -11.289  13.670  65.334  1.00  0.00    -0.311 C  
HETATM   19  O   UNL     1      -9.337  16.706  65.225  1.00  0.00    -0.148 OA 
HETATM   20  O   UNL     1     -10.819  16.908  63.574  1.00  0.00     1.823 OA 
HETATM   21  C   UNL     1     -10.650  12.399  65.970  1.00  0.00    -0.256 C  
HETATM   22  O   UNL     1      -7.883  10.485  67.613  1.00  0.00    -0.104 OA 
HETATM   23  C   UNL     1     -10.242  11.351  64.970  1.00  0.00    -0.333 C  
HETATM   24  C   UNL     1      -9.869  10.102  65.283  1.00  0.00    -0.388 C  
HETATM   25  C   UNL     1      -6.648  10.003  67.257  1.00  0.00    -0.069 C  
HETATM   26  C   UNL     1      -9.648   9.127  64.266  1.00  0.00     0.748 C  
HETATM   27  C   UNL     1      -6.524   8.925  65.906  1.00  0.00    -0.057 C  
HETATM   28  C   UNL     1      -9.446   7.823  64.507  1.00  0.00     2.006 C  
HETATM   29  C   UNL     1      -6.323   7.577  65.449  1.00  0.00    -0.038 C  
HETATM   30  C   UNL     1      -9.258   6.932  63.399  1.00  0.00     1.959 C  
HETATM   31  O   UNL     1      -5.536   5.359  66.618  1.00  0.00    -0.012 OA 
HETATM   32  C   UNL     1      -6.017   5.873  65.601  1.00  0.00    -0.028 C  
HETATM   33  O   UNL     1      -6.280   5.070  64.396  1.00  0.00    -0.022 OA 
HETATM   34  C   UNL     1      -9.110   5.613  63.521  1.00  0.00     0.573 C  
HETATM   35  C   UNL     1      -6.364   2.247  64.641  1.00  0.00    -0.019 C  
HETATM   36  C   UNL     1      -5.982   3.549  63.849  1.00  0.00    -0.014 C  
HETATM   37  C   UNL     1      -8.586   4.846  62.417  1.00  0.00    -0.117 C  
HETATM   38  C   UNL     1      -6.715   3.332  62.452  1.00  0.00    -0.026 C  
HETATM   39  C   UNL     1      -8.188   3.604  62.686  1.00  0.00    -0.072 C  
ENDROOT
BRANCH  21  40
HETATM   40  O   UNL     1     -11.352  11.873  67.079  1.00  0.00    -0.302 OA 
BRANCH  40  41
HETATM   41  C   UNL     1     -10.877  10.701  67.748  1.00  0.00    -0.286 C  
HETATM   42  C   UNL     1     -11.603   9.536  67.038  1.00  0.00     2.120 C  
HETATM   43  O   UNL     1     -11.269   9.554  65.642  1.00  0.00     1.432 OA 
HETATM   44  H   UNL     1     -11.716   8.838  65.206  1.00  0.00     0.000 HD 
HETATM   45  N   UNL     1     -11.911   7.067  67.062  1.00  0.00     0.857 NA 
HETATM   46  H   UNL     1      -9.599   6.096  67.648  1.00  0.00     0.000 HD 
HETATM   47  O   UNL     1      -9.184   6.849  68.056  1.00  0.00    -0.124 OA 
HETATM   48  C   UNL     1     -11.171   8.206  67.658  1.00  0.00     0.658 C  
HETATM   49  C   UNL     1      -7.467   9.323  67.896  1.00  0.00    -0.084 C  
HETATM   50  C   UNL     1      -9.642   8.088  67.506  1.00  0.00    -0.153 C  
HETATM   51  C   UNL     1      -8.966   9.315  68.172  1.00  0.00    -0.128 C  
HETATM   52  O   UNL     1      -9.461  10.571  67.687  1.00  0.00    -0.148 OA 
HETATM   53  H2  UNL     1     -11.577   6.181  67.440  1.00  0.00     0.000 HD 
HETATM   54  H1  UNL     1     -12.923   7.145  67.162  1.00  0.00     0.000 HD 
ENDBRANCH  40  41
ENDBRANCH  21  40
TORSDOF 2
ENDMDL
MODEL       62
REMARK 921   NORMALIZED FREE ENERGY PREDICTED BY IDOCK:   51.84 KCAL/MOL
REMARK 922        TOTAL FREE ENERGY PREDICTED BY IDOCK:   57.33 KCAL/MOL
REMARK 923 INTER-LIGAND FREE ENERGY PREDICTED BY IDOCK:   27.87 KCAL/MOL
REMARK 924 INTRA-LIGAND FREE ENERGY PREDICTED BY IDOCK:   29.46 KCAL/MOL
REMARK 927      BINDING AFFINITY PREDICTED BY RF-SCORE:    0.00 PKD
ROOT
HETATM    1  C   UNL     1      -8.991  12.582  70.312  1.00  0.00     5.035 C  
HETATM    2  C   UNL     1      -9.691  14.123  70.857  1.00  0.00     3.654 C  
HETATM    3  C   UNL     1      -9.863  15.546  69.819  1.00  0.00    -0.262 C  
HETATM    4  O   UNL     1      -8.915  16.522  70.381  1.00  0.00     1.661 OA 
HETATM    5  C   UNL     1     -11.231  16.601  69.546  1.00  0.00    -0.060 C  
HETATM    6  H   UNL     1      -9.006  17.286  69.824  1.00  0.00     0.000 HD 
HETATM    7  C   UNL     1     -12.031  16.989  68.118  1.00  0.00     1.258 C  
HETATM    8  O   UNL     1     -13.401  17.318  68.431  1.00  0.00     3.480 OA 
HETATM    9  C   UNL     1     -11.774  18.248  67.212  1.00  0.00     1.808 C  
HETATM   10  H   UNL     1     -13.853  17.537  67.625  1.00  0.00     0.000 HD 
HETATM   11  C   UNL     1     -10.523  18.221  66.359  1.00  0.00    -0.366 C  
HETATM   12  O   UNL     1     -10.619  19.168  65.273  1.00  0.00    -0.414 OA 
HETATM   13  C   UNL     1     -10.265  16.835  65.740  1.00  0.00    -0.311 C  
HETATM   14  H   UNL     1      -9.834  19.151  64.738  1.00  0.00     0.000 HD 
HETATM   15  C   UNL     1     -10.732  15.703  66.680  1.00  0.00    -0.296 C  
HETATM   16  C   UNL     1      -8.763  16.777  65.621  1.00  0.00     0.458 C  
HETATM   17  O   UNL     1     -12.012  15.891  67.209  1.00  0.00     0.363 OA 
HETATM   18  C   UNL     1     -10.556  14.272  66.165  1.00  0.00    -0.293 C  
HETATM   19  O   UNL     1      -7.989  16.776  66.594  1.00  0.00    -0.211 OA 
HETATM   20  O   UNL     1      -8.312  16.645  64.394  1.00  0.00     5.558 OA 
HETATM   21  C   UNL     1     -10.740  13.200  67.281  1.00  0.00    -0.254 C  
HETATM   22  O   UNL     1      -9.890  11.539  70.528  1.00  0.00     2.528 OA 
HETATM   23  C   UNL     1     -10.231  11.833  66.909  1.00  0.00    -0.236 C  
HETATM   24  C   UNL     1     -10.465  10.715  67.610  1.00  0.00    -0.267 C  
HETATM   25  C   UNL     1      -8.856  10.787  71.029  1.00  0.00     4.407 C  
HETATM   26  C   UNL     1     -10.078   9.439  67.104  1.00  0.00    -0.292 C  
HETATM   27  C   UNL     1      -8.414   9.320  70.221  1.00  0.00    -0.224 C  
HETATM   28  C   UNL     1     -10.431   8.271  67.662  1.00  0.00    -0.303 C  
HETATM   29  C   UNL     1      -8.436   7.883  70.225  1.00  0.00    -0.128 C  
HETATM   30  C   UNL     1     -10.000   7.048  67.049  1.00  0.00    -0.273 C  
HETATM   31  O   UNL     1      -9.053   6.079  72.035  1.00  0.00    -0.144 OA 
HETATM   32  C   UNL     1      -8.783   6.297  70.847  1.00  0.00    -0.136 C  
HETATM   33  O   UNL     1      -8.643   5.193  69.885  1.00  0.00    -0.097 OA 
HETATM   34  C   UNL     1     -10.343   5.836  67.484  1.00  0.00    -0.274 C  
HETATM   35  C   UNL     1      -9.694   2.652  70.577  1.00  0.00    -0.054 C  
HETATM   36  C   UNL     1      -8.594   3.550  69.905  1.00  0.00    -0.058 C  
HETATM   37  C   UNL     1      -9.604   4.680  67.039  1.00  0.00    -0.198 C  
HETATM   38  C   UNL     1      -8.562   2.999  68.411  1.00  0.00    -0.116 C  
HETATM   39  C   UNL     1      -9.792   3.550  67.718  1.00  0.00     0.071 C  
ENDROOT
BRANCH  21  40
HETATM   40  O   UNL     1     -12.022  13.178  67.878  1.00  0.00    -0.349 OA 
BRANCH  40  41
HETATM   41  C   UNL     1     -12.269  13.900  69.089  1.00  0.00    -0.267 C  
HETATM   42  C   UNL     1     -13.135  12.941  69.935  1.00  0.00     1.111 C  
HETATM   43  O   UNL     1     -12.411  11.721  70.154  1.00  0.00    -0.205 OA 
HETATM   44  H   UNL     1     -12.945  11.131  70.674  1.00  0.00     0.000 HD 
HETATM   45  N   UNL     1     -14.371  12.741  72.086  1.00  0.00     0.206 NA 
HETATM   46  H   UNL     1     -12.918  13.967  73.824  1.00  0.00     0.000 HD 
HETATM   47  O   UNL     1     -12.390  14.521  73.260  1.00  0.00    -0.276 OA 
HETATM   48  C   UNL     1     -13.467  13.595  71.277  1.00  0.00    -0.126 C  
HETATM   49  C   UNL     1      -9.886  15.031  71.657  1.00  0.00     2.730 C  
HETATM   50  C   UNL     1     -12.138  13.921  71.986  1.00  0.00     0.331 C  
HETATM   51  C   UNL     1     -11.277  14.826  71.066  1.00  0.00    -0.073 C  
HETATM   52  O   UNL     1     -11.070  14.277  69.757  1.00  0.00    -0.221 OA 
HETATM   53  H2  UNL     1     -14.540  13.158  73.000  1.00  0.00     0.000 HD 
HETATM   54  H1  UNL     1     -15.250  12.525  71.617  1.00  0.00     0.000 HD 
ENDBRANCH  40  41
ENDBRANCH  21  40
TORSDOF 2
ENDMDL
MODEL       63
REMARK 921   NORMALIZED FREE ENERGY PREDICTED BY IDOCK:   61.97 KCAL/MOL
REMARK 922        TOTAL FREE ENERGY PREDICTED BY IDOCK:   68.65 KCAL/MOL
REMARK 923 INTER-LIGAND FREE ENERGY PREDICTED BY IDOCK:   51.08 KCAL/MOL
REMARK 924 INTRA-LIGAND FREE ENERGY PREDICTED BY IDOCK:   17.56 KCAL/MOL
REMARK 927      BINDING AFFINITY PREDICTED BY RF-SCORE:    0.00 PKD
ROOT
HETATM    1  C   UNL     1      -9.490   8.398  69.702  1.00  0.00    -0.166 C  
HETATM    2  C   UNL     1      -8.237   7.285  69.109  1.00  0.00    -0.122 C  
HETATM    3  C   UNL     1      -8.482   6.150  67.774  1.00  0.00    -0.115 C  
HETATM    4  O   UNL     1      -8.442   4.825  68.413  1.00  0.00    -0.094 OA 
HETATM    5  C   UNL     1      -7.502   5.818  66.364  1.00  0.00    -0.086 C  
HETATM    6  H   UNL     1      -8.574   4.215  67.696  1.00  0.00     0.000 HD 
HETATM    7  C   UNL     1      -7.889   5.911  64.729  1.00  0.00    -0.113 C  
HETATM    8  O   UNL     1      -6.686   6.193  63.984  1.00  0.00    -0.036 OA 
HETATM    9  C   UNL     1      -8.365   4.728  63.810  1.00  0.00    -0.124 C  
HETATM   10  H   UNL     1      -6.904   6.246  63.062  1.00  0.00     0.000 HD 
HETATM   11  C   UNL     1      -9.793   4.261  63.996  1.00  0.00    -0.050 C  
HETATM   12  O   UNL     1     -10.248   3.523  62.841  1.00  0.00    -0.145 OA 
HETATM   13  C   UNL     1     -10.770   5.432  64.209  1.00  0.00     2.490 C  
HETATM   14  H   UNL     1     -11.145   3.230  62.958  1.00  0.00     0.000 HD 
HETATM   15  C   UNL     1     -10.100   6.591  64.977  1.00  0.00     2.624 C  
HETATM   16  C   UNL     1     -11.849   4.837  65.076  1.00  0.00     1.951 C  
HETATM   17  O   UNL     1      -8.839   6.947  64.489  1.00  0.00     0.361 OA 
HETATM   18  C   UNL     1     -10.961   7.831  65.228  1.00  0.00     6.488 C  
HETATM   19  O   UNL     1     -11.665   4.437  66.239  1.00  0.00     2.664 OA 
HETATM   20  O   UNL     1     -13.050   4.837  64.540  1.00  0.00     5.048 OA 
HETATM   21  C   UNL     1     -10.335   8.802  66.274  1.00  0.00     0.041 C  
HETATM   22  O   UNL     1      -9.028   9.712  69.663  1.00  0.00    -0.171 OA 
HETATM   23  C   UNL     1     -11.294   9.831  66.809  1.00  0.00     0.898 C  
HETATM   24  C   UNL     1     -10.942  10.891  67.549  1.00  0.00    -0.352 C  
HETATM   25  C   UNL     1      -9.547   9.904  70.920  1.00  0.00     0.396 C  
HETATM   26  C   UNL     1     -11.893  11.900  67.883  1.00  0.00    -0.308 C  
HETATM   27  C   UNL     1     -10.800  11.079  71.142  1.00  0.00     2.035 C  
HETATM   28  C   UNL     1     -11.578  13.066  68.466  1.00  0.00    -0.363 C  
HETATM   29  C   UNL     1     -11.166  12.379  71.638  1.00  0.00     4.557 C  
HETATM   30  C   UNL     1     -12.620  14.015  68.733  1.00  0.00     0.431 C  
HETATM   31  O   UNL     1      -9.960  14.150  73.160  1.00  0.00     5.519 OA 
HETATM   32  C   UNL     1     -10.921  13.913  72.417  1.00  0.00     4.217 C  
HETATM   33  O   UNL     1     -11.988  14.905  72.217  1.00  0.00    -0.352 OA 
HETATM   34  C   UNL     1     -12.411  15.225  69.252  1.00  0.00    -0.128 C  
HETATM   35  C   UNL     1     -11.488  17.599  72.944  1.00  0.00     1.649 C  
HETATM   36  C   UNL     1     -12.443  16.356  72.839  1.00  0.00    -0.303 C  
HETATM   37  C   UNL     1     -13.517  15.968  69.804  1.00  0.00     2.181 C  
HETATM   38  C   UNL     1     -13.671  16.933  72.004  1.00  0.00     4.871 C  
HETATM   39  C   UNL     1     -13.213  17.020  70.561  1.00  0.00     7.556 C  
ENDROOT
BRANCH  21  40
HETATM   40  O   UNL     1      -9.080   9.342  65.907  1.00  0.00    -0.166 OA 
BRANCH  40  41
HETATM   41  C   UNL     1      -8.967  10.717  65.527  1.00  0.00    -0.193 C  
HETATM   42  C   UNL     1     -10.402  11.121  65.126  1.00  0.00    -0.293 C  
HETATM   43  O   UNL     1     -11.278  10.925  66.245  1.00  0.00    -0.062 OA 
HETATM   44  H   UNL     1     -12.162  11.173  65.998  1.00  0.00     0.000 HD 
HETATM   45  N   UNL     1     -11.770  12.996  64.225  1.00  0.00    -0.365 NA 
HETATM   46  H   UNL     1     -10.799  15.126  65.301  1.00  0.00     0.000 HD 
HETATM   47  O   UNL     1      -9.933  14.824  65.552  1.00  0.00    -0.342 OA 
HETATM   48  C   UNL     1     -10.424  12.591  64.701  1.00  0.00    -0.319 C  
HETATM   49  C   UNL     1      -8.039  13.633  67.574  1.00  0.00    -0.190 C  
HETATM   50  C   UNL     1      -9.917  13.433  65.889  1.00  0.00    -0.277 C  
HETATM   51  C   UNL     1      -8.505  12.940  66.298  1.00  0.00     0.511 C  
HETATM   52  O   UNL     1      -8.448  11.534  66.571  1.00  0.00    -0.170 OA 
HETATM   53  H2  UNL     1     -11.789  13.990  63.999  1.00  0.00     0.000 HD 
HETATM   54  H1  UNL     1     -12.105  12.439  63.440  1.00  0.00     0.000 HD 
ENDBRANCH  40  41
ENDBRANCH  21  40
TORSDOF 2
ENDMDL
MODEL       64
REMARK 921   NORMALIZED FREE ENERGY PREDICTED BY IDOCK:   64.79 KCAL/MOL
REMARK 922        TOTAL FREE ENERGY PREDICTED BY IDOCK:   71.79 KCAL/MOL
REMARK 923 INTER-LIGAND FREE ENERGY PREDICTED BY IDOCK:   62.22 KCAL/MOL
REMARK 924 INTRA-LIGAND FREE ENERGY PREDICTED BY IDOCK:    9.57 KCAL/MOL
REMARK 927      BINDING AFFINITY PREDICTED BY RF-SCORE:    0.00 PKD
ROOT
HETATM    1  C   UNL     1      -7.730  15.099  65.777  1.00  0.00     3.582 C  
HETATM    2  C   UNL     1      -6.779  16.392  66.542  1.00  0.00     0.134 C  
HETATM    3  C   UNL     1      -7.495  17.743  67.432  1.00  0.00    -0.196 C  
HETATM    4  O   UNL     1      -7.213  18.919  66.593  1.00  0.00    -0.206 OA 
HETATM    5  C   UNL     1      -7.106  18.411  69.001  1.00  0.00    -0.262 C  
HETATM    6  H   UNL     1      -7.597  19.646  67.070  1.00  0.00     0.000 HD 
HETATM    7  C   UNL     1      -8.073  18.608  70.364  1.00  0.00     2.710 C  
HETATM    8  O   UNL     1      -7.234  18.562  71.536  1.00  0.00     3.850 OA 
HETATM    9  C   UNL     1      -8.848  19.911  70.781  1.00  0.00     1.936 C  
HETATM   10  H   UNL     1      -7.779  18.674  72.306  1.00  0.00     0.000 HD 
HETATM   11  C   UNL     1     -10.103  20.231  69.996  1.00  0.00     0.604 C  
HETATM   12  O   UNL     1     -10.950  21.144  70.726  1.00  0.00     1.505 OA 
HETATM   13  C   UNL     1     -10.938  18.974  69.688  1.00  0.00     2.126 C  
HETATM   14  H   UNL     1     -11.737  21.345  70.233  1.00  0.00     0.000 HD 
HETATM   15  C   UNL     1     -10.038  17.739  69.474  1.00  0.00     0.127 C  
HETATM   16  C   UNL     1     -11.615  19.312  68.385  1.00  0.00     2.196 C  
HETATM   17  O   UNL     1      -9.050  17.574  70.449  1.00  0.00     2.497 OA 
HETATM   18  C   UNL     1     -10.752  16.415  69.187  1.00  0.00    -0.317 C  
HETATM   19  O   UNL     1     -11.010  19.491  67.313  1.00  0.00    -0.499 OA 
HETATM   20  O   UNL     1     -12.929  19.330  68.434  1.00  0.00     5.969 OA 
HETATM   21  C   UNL     1      -9.788  15.307  68.665  1.00  0.00    -0.211 C  
HETATM   22  O   UNL     1      -7.323  13.853  66.251  1.00  0.00     1.539 OA 
HETATM   23  C   UNL     1     -10.488  14.129  68.043  1.00  0.00    -0.240 C  
HETATM   24  C   UNL     1      -9.892  12.973  67.717  1.00  0.00    -0.224 C  
HETATM   25  C   UNL     1      -7.340  13.385  64.960  1.00  0.00    10.158 C  
HETATM   26  C   UNL     1     -10.658  11.854  67.276  1.00  0.00    -0.261 C  
HETATM   27  C   UNL     1      -8.428  12.103  64.544  1.00  0.00     1.933 C  
HETATM   28  C   UNL     1     -10.156  10.622  67.101  1.00  0.00    -0.248 C  
HETATM   29  C   UNL     1      -8.591  10.710  64.229  1.00  0.00    -0.104 C  
HETATM   30  C   UNL     1     -11.030   9.568  66.675  1.00  0.00     0.192 C  
HETATM   31  O   UNL     1      -6.918   8.768  63.651  1.00  0.00    -0.088 OA 
HETATM   32  C   UNL     1      -8.084   9.075  63.927  1.00  0.00    -0.159 C  
HETATM   33  O   UNL     1      -9.156   8.067  63.925  1.00  0.00     0.772 OA 
HETATM   34  C   UNL     1     -10.650   8.299  66.529  1.00  0.00     0.111 C  
HETATM   35  C   UNL     1      -8.438   5.326  64.002  1.00  0.00    -0.102 C  
HETATM   36  C   UNL     1      -9.357   6.494  63.493  1.00  0.00     2.110 C  
HETATM   37  C   UNL     1     -11.477   7.386  65.778  1.00  0.00     5.450 C  
HETATM   38  C   UNL     1     -10.810   6.005  63.923  1.00  0.00     6.421 C  
HETATM   39  C   UNL     1     -10.921   6.231  65.418  1.00  0.00     3.067 C  
ENDROOT
BRANCH  21  40
HETATM   40  O   UNL     1      -8.763  14.939  69.567  1.00  0.00    -0.109 OA 
BRANCH  40  41
HETATM   41  C   UNL     1      -7.757  13.999  69.176  1.00  0.00     0.068 C  
HETATM   42  C   UNL     1      -7.027  13.652  70.493  1.00  0.00     1.011 C  
HETATM   43  O   UNL     1      -7.970  13.101  71.424  1.00  0.00     6.256 OA 
HETATM   44  H   UNL     1      -7.521  12.888  72.233  1.00  0.00     0.000 HD 
HETATM   45  N   UNL     1      -5.136  12.340  71.439  1.00  0.00    -0.249 NA 
HETATM   46  H   UNL     1      -5.099  10.137  70.105  1.00  0.00     0.000 HD 
HETATM   47  O   UNL     1      -5.577  10.390  69.323  1.00  0.00    -0.038 OA 
HETATM   48  C   UNL     1      -5.919  12.635  70.214  1.00  0.00    -0.122 C  
HETATM   49  C   UNL     1      -8.146  10.623  67.760  1.00  0.00    -0.111 C  
HETATM   50  C   UNL     1      -6.570  11.385  69.589  1.00  0.00    -0.128 C  
HETATM   51  C   UNL     1      -7.348  11.799  68.313  1.00  0.00    -0.095 C  
HETATM   52  O   UNL     1      -8.301  12.847  68.540  1.00  0.00    -0.137 OA 
HETATM   53  H2  UNL     1      -4.438  11.620  71.257  1.00  0.00     0.000 HD 
HETATM   54  H1  UNL     1      -4.705  13.166  71.853  1.00  0.00     0.000 HD 
ENDBRANCH  40  41
ENDBRANCH  21  40
TORSDOF 2
ENDMDL
MODEL       65
REMARK 921   NORMALIZED FREE ENERGY PREDICTED BY IDOCK:   67.21 KCAL/MOL
REMARK 922        TOTAL FREE ENERGY PREDICTED BY IDOCK:   74.49 KCAL/MOL
REMARK 923 INTER-LIGAND FREE ENERGY PREDICTED BY IDOCK:   74.95 KCAL/MOL
REMARK 924 INTRA-LIGAND FREE ENERGY PREDICTED BY IDOCK:   -0.46 KCAL/MOL
REMARK 927      BINDING AFFINITY PREDICTED BY RF-SCORE:    0.00 PKD
ROOT
HETATM    1  C   UNL     1      -7.005   9.441  72.606  1.00  0.00     0.910 C  
HETATM    2  C   UNL     1      -5.913   8.101  72.190  1.00  0.00    -0.046 C  
HETATM    3  C   UNL     1      -6.442   6.422  72.010  1.00  0.00    -0.054 C  
HETATM    4  O   UNL     1      -5.819   5.721  73.144  1.00  0.00    -0.034 OA 
HETATM    5  C   UNL     1      -6.127   5.255  70.745  1.00  0.00    -0.022 C  
HETATM    6  H   UNL     1      -6.103   4.820  73.048  1.00  0.00     0.000 HD 
HETATM    7  C   UNL     1      -7.198   4.404  69.765  1.00  0.00    -0.050 C  
HETATM    8  O   UNL     1      -6.542   4.105  68.515  1.00  0.00    -0.043 OA 
HETATM    9  C   UNL     1      -7.735   2.947  70.009  1.00  0.00    -0.045 C  
HETATM   10  H   UNL     1      -7.146   3.625  67.961  1.00  0.00     0.000 HD 
HETATM   11  C   UNL     1      -8.786   2.786  71.087  1.00  0.00    -0.067 C  
HETATM   12  O   UNL     1      -9.512   1.549  70.918  1.00  0.00    -0.099 OA 
HETATM   13  C   UNL     1      -9.816   3.930  71.076  1.00  0.00    -0.219 C  
HETATM   14  H   UNL     1     -10.172   1.448  71.595  1.00  0.00     0.000 HD 
HETATM   15  C   UNL     1      -9.171   5.265  70.647  1.00  0.00    -0.148 C  
HETATM   16  C   UNL     1     -10.238   4.038  72.519  1.00  0.00    -0.166 C  
HETATM   17  O   UNL     1      -8.370   5.172  69.505  1.00  0.00    -0.091 OA 
HETATM   18  C   UNL     1     -10.100   6.479  70.569  1.00  0.00    -0.213 C  
HETATM   19  O   UNL     1      -9.477   4.381  73.442  1.00  0.00    -0.117 OA 
HETATM   20  O   UNL     1     -11.514   3.815  72.739  1.00  0.00     0.196 OA 
HETATM   21  C   UNL     1      -9.327   7.827  70.454  1.00  0.00    -0.160 C  
HETATM   22  O   UNL     1      -6.928  10.445  71.642  1.00  0.00     0.759 OA 
HETATM   23  C   UNL     1     -10.169   9.043  70.732  1.00  0.00    -0.305 C  
HETATM   24  C   UNL     1      -9.789  10.306  70.493  1.00  0.00     0.398 C  
HETATM   25  C   UNL     1      -6.877  11.374  72.653  1.00  0.00     7.100 C  
HETATM   26  C   UNL     1     -10.706  11.388  70.640  1.00  0.00     1.754 C  
HETATM   27  C   UNL     1      -8.144  12.548  72.781  1.00  0.00    18.821 C  
HETATM   28  C   UNL     1     -10.451  12.647  70.255  1.00  0.00     2.393 C  
HETATM   29  C   UNL     1      -8.550  13.915  72.595  1.00  0.00    11.276 C  
HETATM   30  C   UNL     1     -11.463  13.648  70.433  1.00  0.00     0.020 C  
HETATM   31  O   UNL     1      -7.253  16.144  72.090  1.00  0.00     5.793 OA 
HETATM   32  C   UNL     1      -8.357  15.591  72.179  1.00  0.00     7.701 C  
HETATM   33  O   UNL     1      -9.604  16.356  72.027  1.00  0.00     5.660 OA 
HETATM   34  C   UNL     1     -11.337  14.912  70.031  1.00  0.00    -0.310 C  
HETATM   35  C   UNL     1      -9.483  18.920  70.823  1.00  0.00     2.965 C  
HETATM   36  C   UNL     1     -10.068  17.926  71.890  1.00  0.00     5.893 C  
HETATM   37  C   UNL     1     -12.232  15.919  70.548  1.00  0.00    -0.314 C  
HETATM   38  C   UNL     1     -11.634  17.997  71.606  1.00  0.00     4.196 C  
HETATM   39  C   UNL     1     -11.885  17.189  70.348  1.00  0.00     2.325 C  
ENDROOT
BRANCH  21  40
HETATM   40  O   UNL     1      -8.523   7.954  69.297  1.00  0.00    -0.134 OA 
BRANCH  40  41
HETATM   41  C   UNL     1      -9.122   7.982  67.998  1.00  0.00    -0.129 C  
HETATM   42  C   UNL     1      -8.928   9.439  67.520  1.00  0.00    -0.121 C  
HETATM   43  O   UNL     1      -7.526   9.743  67.492  1.00  0.00    -0.090 OA 
HETATM   44  H   UNL     1      -7.408  10.639  67.199  1.00  0.00     0.000 HD 
HETATM   45  N   UNL     1      -9.436  11.013  65.661  1.00  0.00    -0.208 NA 
HETATM   46  H   UNL     1      -9.221   9.616  63.507  1.00  0.00     0.000 HD 
HETATM   47  O   UNL     1      -9.320   8.736  63.852  1.00  0.00     0.555 OA 
HETATM   48  C   UNL     1      -9.524   9.606  66.121  1.00  0.00    -0.217 C  
HETATM   49  C   UNL     1      -8.145   6.180  64.940  1.00  0.00    -0.132 C  
HETATM   50  C   UNL     1      -8.813   8.610  65.183  1.00  0.00    -0.103 C  
HETATM   51  C   UNL     1      -8.975   7.173  65.745  1.00  0.00    -0.008 C  
HETATM   52  O   UNL     1      -8.539   7.039  67.105  1.00  0.00    -0.119 OA 
HETATM   53  H2  UNL     1      -9.783  11.103  64.706  1.00  0.00     0.000 HD 
HETATM   54  H1  UNL     1      -9.906  11.672  66.281  1.00  0.00     0.000 HD 
ENDBRANCH  40  41
ENDBRANCH  21  40
TORSDOF 2
ENDMDL
MODEL       66
REMARK 921   NORMALIZED FREE ENERGY PREDICTED BY IDOCK:   67.87 KCAL/MOL
REMARK 922        TOTAL FREE ENERGY PREDICTED BY IDOCK:   75.24 KCAL/MOL
REMARK 923 INTER-LIGAND FREE ENERGY PREDICTED BY IDOCK:   33.38 KCAL/MOL
REMARK 924 INTRA-LIGAND FREE ENERGY PREDICTED BY IDOCK:   41.85 KCAL/MOL
REMARK 927      BINDING AFFINITY PREDICTED BY RF-SCORE:    0.00 PKD
ROOT
HETATM    1  C   UNL     1      -7.931  12.153  67.763  1.00  0.00    -0.151 C  
HETATM    2  C   UNL     1      -7.818  13.647  68.720  1.00  0.00    -0.043 C  
HETATM    3  C   UNL     1      -9.077  14.891  68.754  1.00  0.00    -0.189 C  
HETATM    4  O   UNL     1      -8.465  16.045  68.077  1.00  0.00    -0.161 OA 
HETATM    5  C   UNL     1      -9.831  15.715  70.100  1.00  0.00     0.039 C  
HETATM    6  H   UNL     1      -9.140  16.713  68.095  1.00  0.00     0.000 HD 
HETATM    7  C   UNL     1     -11.453  15.808  70.541  1.00  0.00    -0.381 C  
HETATM    8  O   UNL     1     -11.532  15.994  71.970  1.00  0.00    -0.395 OA 
HETATM    9  C   UNL     1     -12.456  16.963  70.180  1.00  0.00     3.477 C  
HETATM   10  H   UNL     1     -12.447  16.047  72.220  1.00  0.00     0.000 HD 
HETATM   11  C   UNL     1     -12.970  16.990  68.756  1.00  0.00     4.947 C  
HETATM   12  O   UNL     1     -14.182  17.769  68.660  1.00  0.00     7.286 OA 
HETATM   13  C   UNL     1     -13.284  15.581  68.219  1.00  0.00     3.236 C  
HETATM   14  H   UNL     1     -14.504  17.786  67.766  1.00  0.00     0.000 HD 
HETATM   15  C   UNL     1     -12.318  14.528  68.803  1.00  0.00    -0.029 C  
HETATM   16  C   UNL     1     -13.030  15.704  66.739  1.00  0.00     3.180 C  
HETATM   17  O   UNL     1     -12.147  14.615  70.188  1.00  0.00    -0.289 OA 
HETATM   18  C   UNL     1     -12.544  13.079  68.367  1.00  0.00     0.772 C  
HETATM   19  O   UNL     1     -11.912  15.929  66.242  1.00  0.00     0.706 OA 
HETATM   20  O   UNL     1     -14.077  15.476  65.978  1.00  0.00     3.444 OA 
HETATM   21  C   UNL     1     -11.351  12.144  68.729  1.00  0.00    -0.288 C  
HETATM   22  O   UNL     1      -7.776  11.039  68.586  1.00  0.00    -0.115 OA 
HETATM   23  C   UNL     1     -11.372  10.818  68.016  1.00  0.00    -0.378 C  
HETATM   24  C   UNL     1     -10.580   9.779  68.315  1.00  0.00    -0.271 C  
HETATM   25  C   UNL     1      -6.930  10.498  67.648  1.00  0.00    -0.079 C  
HETATM   26  C   UNL     1     -10.772   8.509  67.694  1.00  0.00    -0.189 C  
HETATM   27  C   UNL     1      -7.369   9.010  66.879  1.00  0.00    -0.086 C  
HETATM   28  C   UNL     1     -10.139   7.387  68.067  1.00  0.00    -0.216 C  
HETATM   29  C   UNL     1      -7.144   7.594  66.766  1.00  0.00    -0.083 C  
HETATM   30  C   UNL     1     -10.431   6.162  67.380  1.00  0.00    -0.309 C  
HETATM   31  O   UNL     1      -5.275   5.973  67.652  1.00  0.00    -0.004 OA 
HETATM   32  C   UNL     1      -6.383   6.070  67.109  1.00  0.00    -0.041 C  
HETATM   33  O   UNL     1      -7.098   4.879  66.625  1.00  0.00    -0.066 OA 
HETATM   34  C   UNL     1      -9.907   4.982  67.708  1.00  0.00    -0.199 C  
HETATM   35  C   UNL     1      -6.288   2.333  67.575  1.00  0.00    -0.031 C  
HETATM   36  C   UNL     1      -6.809   3.273  66.429  1.00  0.00    -0.053 C  
HETATM   37  C   UNL     1      -9.975   3.884  66.774  1.00  0.00     0.009 C  
HETATM   38  C   UNL     1      -8.147   2.544  65.964  1.00  0.00    -0.084 C  
HETATM   39  C   UNL     1      -9.192   2.836  67.022  1.00  0.00    -0.158 C  
ENDROOT
BRANCH  21  40
HETATM   40  O   UNL     1     -11.082  12.033  70.113  1.00  0.00     0.138 OA 
BRANCH  40  41
HETATM   41  C   UNL     1      -9.740  11.860  70.578  1.00  0.00     4.907 C  
HETATM   42  C   UNL     1      -9.479  10.344  70.435  1.00  0.00     0.741 C  
HETATM   43  O   UNL     1      -9.644   9.965  69.061  1.00  0.00    -0.169 OA 
HETATM   44  H   UNL     1      -9.484   9.032  68.973  1.00  0.00     0.000 HD 
HETATM   45  N   UNL     1      -7.795   8.560  70.856  1.00  0.00    -0.096 NA 
HETATM   46  H   UNL     1      -5.515   9.638  70.332  1.00  0.00     0.000 HD 
HETATM   47  O   UNL     1      -5.730  10.561  70.407  1.00  0.00    -0.065 OA 
HETATM   48  C   UNL     1      -8.057  10.020  70.896  1.00  0.00     0.972 C  
HETATM   49  C   UNL     1      -6.600  13.176  69.179  1.00  0.00    -0.104 C  
HETATM   50  C   UNL     1      -7.081  10.840  70.029  1.00  0.00    -0.026 C  
HETATM   51  C   UNL     1      -7.431  12.346  70.151  1.00  0.00     2.038 C  
HETATM   52  O   UNL     1      -8.801  12.641  69.847  1.00  0.00     2.241 OA 
HETATM   53  H2  UNL     1      -6.828   8.360  71.110  1.00  0.00     0.000 HD 
HETATM   54  H1  UNL     1      -8.440   8.018  71.429  1.00  0.00     0.000 HD 
ENDBRANCH  40  41
ENDBRANCH  21  40
TORSDOF 2
ENDMDL
MODEL       67
REMARK 921   NORMALIZED FREE ENERGY PREDICTED BY IDOCK:   69.04 KCAL/MOL
REMARK 922        TOTAL FREE ENERGY PREDICTED BY IDOCK:   76.54 KCAL/MOL
REMARK 923 INTER-LIGAND FREE ENERGY PREDICTED BY IDOCK:   39.06 KCAL/MOL
REMARK 924 INTRA-LIGAND FREE ENERGY PREDICTED BY IDOCK:   37.48 KCAL/MOL
REMARK 927      BINDING AFFINITY PREDICTED BY RF-SCORE:    0.00 PKD
ROOT
HETATM    1  C   UNL     1      -7.461   9.721  70.705  1.00  0.00     0.076 C  
HETATM    2  C   UNL     1      -6.301   8.388  70.504  1.00  0.00    -0.035 C  
HETATM    3  C   UNL     1      -6.549   6.763  71.159  1.00  0.00    -0.053 C  
HETATM    4  O   UNL     1      -5.525   6.635  72.208  1.00  0.00    -0.035 OA 
HETATM    5  C   UNL     1      -6.386   5.192  70.407  1.00  0.00    -0.030 C  
HETATM    6  H   UNL     1      -5.658   5.762  72.560  1.00  0.00     0.000 HD 
HETATM    7  C   UNL     1      -7.513   3.955  70.227  1.00  0.00    -0.045 C  
HETATM    8  O   UNL     1      -7.180   3.195  69.046  1.00  0.00    -0.048 OA 
HETATM    9  C   UNL     1      -7.691   2.708  71.167  1.00  0.00    -0.043 C  
HETATM   10  H   UNL     1      -7.816   2.497  68.945  1.00  0.00     0.000 HD 
HETATM   11  C   UNL     1      -8.362   2.959  72.501  1.00  0.00    -0.070 C  
HETATM   12  O   UNL     1      -8.872   1.729  73.061  1.00  0.00    -0.061 OA 
HETATM   13  C   UNL     1      -9.545   3.939  72.387  1.00  0.00    -0.195 C  
HETATM   14  H   UNL     1      -9.293   1.887  73.898  1.00  0.00     0.000 HD 
HETATM   15  C   UNL     1      -9.291   5.003  71.299  1.00  0.00    -0.149 C  
HETATM   16  C   UNL     1      -9.569   4.618  73.733  1.00  0.00    -0.124 C  
HETATM   17  O   UNL     1      -8.829   4.482  70.086  1.00  0.00    -0.082 OA 
HETATM   18  C   UNL     1     -10.409   6.023  71.068  1.00  0.00    -0.270 C  
HETATM   19  O   UNL     1      -8.660   5.354  74.156  1.00  0.00    -0.114 OA 
HETATM   20  O   UNL     1     -10.676   4.443  74.420  1.00  0.00    -0.253 OA 
HETATM   21  C   UNL     1      -9.952   7.237  70.204  1.00  0.00    -0.184 C  
HETATM   22  O   UNL     1      -7.831  10.232  69.462  1.00  0.00    -0.144 OA 
HETATM   23  C   UNL     1     -10.891   8.412  70.253  1.00  0.00    -0.244 C  
HETATM   24  C   UNL     1     -10.823   9.477  69.442  1.00  0.00    -0.226 C  
HETATM   25  C   UNL     1      -7.674  11.500  69.967  1.00  0.00     1.394 C  
HETATM   26  C   UNL     1     -11.845  10.472  69.452  1.00  0.00    -0.271 C  
HETATM   27  C   UNL     1      -9.048  12.553  70.039  1.00  0.00     3.547 C  
HETATM   28  C   UNL     1     -11.935  11.466  68.556  1.00  0.00    -0.295 C  
HETATM   29  C   UNL     1      -9.727  13.694  69.488  1.00  0.00     0.879 C  
HETATM   30  C   UNL     1     -13.022  12.396  68.655  1.00  0.00     2.426 C  
HETATM   31  O   UNL     1      -9.040  15.570  67.782  1.00  0.00    -0.177 OA 
HETATM   32  C   UNL     1      -9.960  15.049  68.425  1.00  0.00    -0.225 C  
HETATM   33  O   UNL     1     -11.317  15.615  68.404  1.00  0.00    -0.330 OA 
HETATM   34  C   UNL     1     -13.240  13.381  67.784  1.00  0.00     3.746 C  
HETATM   35  C   UNL     1     -11.992  17.442  66.344  1.00  0.00     3.171 C  
HETATM   36  C   UNL     1     -12.076  16.958  67.836  1.00  0.00     1.512 C  
HETATM   37  C   UNL     1     -14.126  14.464  68.136  1.00  0.00    10.359 C  
HETATM   38  C   UNL     1     -13.645  16.822  68.068  1.00  0.00     6.951 C  
HETATM   39  C   UNL     1     -14.081  15.550  67.367  1.00  0.00     9.804 C  
ENDROOT
BRANCH  21  40
HETATM   40  O   UNL     1      -9.530   6.910  68.895  1.00  0.00    -0.138 OA 
BRANCH  40  41
HETATM   41  C   UNL     1      -8.376   7.538  68.327  1.00  0.00    -0.125 C  
HETATM   42  C   UNL     1      -8.953   8.652  67.427  1.00  0.00    -0.133 C  
HETATM   43  O   UNL     1      -9.736   9.549  68.228  1.00  0.00    -0.143 OA 
HETATM   44  H   UNL     1     -10.091  10.234  67.674  1.00  0.00     0.000 HD 
HETATM   45  N   UNL     1      -8.323  10.442  65.816  1.00  0.00    -0.152 NA 
HETATM   46  H   UNL     1      -6.140  11.451  66.738  1.00  0.00     0.000 HD 
HETATM   47  O   UNL     1      -5.838  10.747  67.300  1.00  0.00    -0.044 OA 
HETATM   48  C   UNL     1      -7.809   9.418  66.758  1.00  0.00    -0.105 C  
HETATM   49  C   UNL     1      -5.681   9.407  69.998  1.00  0.00    -0.035 C  
HETATM   50  C   UNL     1      -6.918  10.003  67.871  1.00  0.00    -0.084 C  
HETATM   51  C   UNL     1      -6.425   8.853  68.788  1.00  0.00    -0.053 C  
HETATM   52  O   UNL     1      -7.488   8.048  69.316  1.00  0.00    -0.089 OA 
HETATM   53  H2  UNL     1      -7.556  10.984  65.419  1.00  0.00     0.000 HD 
HETATM   54  H1  UNL     1      -8.913  10.055  65.079  1.00  0.00     0.000 HD 
ENDBRANCH  40  41
ENDBRANCH  21  40
TORSDOF 2
ENDMDL
MODEL       68
REMARK 921   NORMALIZED FREE ENERGY PREDICTED BY IDOCK:   70.95 KCAL/MOL
REMARK 922        TOTAL FREE ENERGY PREDICTED BY IDOCK:   78.67 KCAL/MOL
REMARK 923 INTER-LIGAND FREE ENERGY PREDICTED BY IDOCK:   77.10 KCAL/MOL
REMARK 924 INTRA-LIGAND FREE ENERGY PREDICTED BY IDOCK:    1.57 KCAL/MOL
REMARK 927      BINDING AFFINITY PREDICTED BY RF-SCORE:    0.00 PKD
ROOT
HETATM    1  C   UNL     1      -7.734  10.004  70.856  1.00  0.00     0.745 C  
HETATM    2  C   UNL     1      -6.468   8.938  70.204  1.00  0.00    -0.039 C  
HETATM    3  C   UNL     1      -6.670   7.194  69.985  1.00  0.00    -0.051 C  
HETATM    4  O   UNL     1      -5.757   6.596  70.973  1.00  0.00    -0.026 OA 
HETATM    5  C   UNL     1      -6.317   6.168  68.613  1.00  0.00    -0.041 C  
HETATM    6  H   UNL     1      -5.865   5.660  70.856  1.00  0.00     0.000 HD 
HETATM    7  C   UNL     1      -7.328   5.150  67.733  1.00  0.00    -0.075 C  
HETATM    8  O   UNL     1      -6.819   5.043  66.387  1.00  0.00    -0.059 OA 
HETATM    9  C   UNL     1      -7.519   3.604  67.949  1.00  0.00    -0.062 C  
HETATM   10  H   UNL     1      -7.389   4.469  65.890  1.00  0.00     0.000 HD 
HETATM   11  C   UNL     1      -8.344   3.187  69.147  1.00  0.00    -0.060 C  
HETATM   12  O   UNL     1      -8.824   1.833  68.996  1.00  0.00    -0.065 OA 
HETATM   13  C   UNL     1      -9.574   4.090  69.356  1.00  0.00    -0.257 C  
HETATM   14  H   UNL     1      -9.342   1.571  69.749  1.00  0.00     0.000 HD 
HETATM   15  C   UNL     1      -9.281   5.546  68.934  1.00  0.00    -0.119 C  
HETATM   16  C   UNL     1      -9.790   4.052  70.847  1.00  0.00    -0.159 C  
HETATM   17  O   UNL     1      -8.656   5.666  67.688  1.00  0.00    -0.110 OA 
HETATM   18  C   UNL     1     -10.436   6.541  69.066  1.00  0.00    -0.252 C  
HETATM   19  O   UNL     1      -8.985   4.511  71.677  1.00  0.00    -0.120 OA 
HETATM   20  O   UNL     1     -10.948   3.560  71.224  1.00  0.00     1.302 OA 
HETATM   21  C   UNL     1      -9.976   8.024  68.938  1.00  0.00    -0.195 C  
HETATM   22  O   UNL     1      -8.004  11.038  69.961  1.00  0.00     0.353 OA 
HETATM   23  C   UNL     1     -10.995   9.026  69.411  1.00  0.00    -0.082 C  
HETATM   24  C   UNL     1     -10.916  10.348  69.208  1.00  0.00    -0.287 C  
HETATM   25  C   UNL     1      -7.991  11.918  71.016  1.00  0.00     7.496 C  
HETATM   26  C   UNL     1     -12.000  11.208  69.553  1.00  0.00    -0.425 C  
HETATM   27  C   UNL     1      -9.435  12.796  71.396  1.00  0.00    13.910 C  
HETATM   28  C   UNL     1     -12.063  12.507  69.223  1.00  0.00    -0.214 C  
HETATM   29  C   UNL     1     -10.131  14.054  71.361  1.00  0.00     4.881 C  
HETATM   30  C   UNL     1     -13.218  13.267  69.606  1.00  0.00     1.625 C  
HETATM   31  O   UNL     1      -9.399  16.522  70.835  1.00  0.00     2.778 OA 
HETATM   32  C   UNL     1     -10.343  15.748  71.037  1.00  0.00     0.683 C  
HETATM   33  O   UNL     1     -11.727  16.241  71.109  1.00  0.00    -0.416 OA 
HETATM   34  C   UNL     1     -13.411  14.544  69.277  1.00  0.00     2.139 C  
HETATM   35  C   UNL     1     -12.303  18.817  70.077  1.00  0.00    13.535 C  
HETATM   36  C   UNL     1     -12.512  17.684  71.145  1.00  0.00     8.349 C  
HETATM   37  C   UNL     1     -14.403  15.322  69.979  1.00  0.00     2.379 C  
HETATM   38  C   UNL     1     -14.085  17.436  71.084  1.00  0.00    13.556 C  
HETATM   39  C   UNL     1     -14.352  16.643  69.820  1.00  0.00     7.437 C  
ENDROOT
BRANCH  21  40
HETATM   40  O   UNL     1      -9.395   8.360  67.693  1.00  0.00    -0.136 OA 
BRANCH  40  41
HETATM   41  C   UNL     1      -8.249   9.215  67.637  1.00  0.00    -0.108 C  
HETATM   42  C   UNL     1      -7.520   8.791  66.342  1.00  0.00    -0.087 C  
HETATM   43  O   UNL     1      -8.402   8.968  65.224  1.00  0.00    -0.132 OA 
HETATM   44  H   UNL     1      -7.954   8.707  64.428  1.00  0.00     0.000 HD 
HETATM   45  N   UNL     1      -5.489   9.210  64.967  1.00  0.00    -0.045 NA 
HETATM   46  H   UNL     1      -5.082  11.749  65.108  1.00  0.00     0.000 HD 
HETATM   47  O   UNL     1      -5.565  11.967  65.897  1.00  0.00     0.051 OA 
HETATM   48  C   UNL     1      -6.264   9.644  66.154  1.00  0.00    -0.068 C  
HETATM   49  C   UNL     1      -8.087  12.876  67.280  1.00  0.00    -0.164 C  
HETATM   50  C   UNL     1      -6.703  11.121  66.091  1.00  0.00    -0.015 C  
HETATM   51  C   UNL     1      -7.491  11.476  67.379  1.00  0.00    -0.127 C  
HETATM   52  O   UNL     1      -8.595  10.596  67.633  1.00  0.00    -0.118 OA 
HETATM   53  H2  UNL     1      -4.685   9.820  64.817  1.00  0.00     0.000 HD 
HETATM   54  H1  UNL     1      -5.199   8.233  65.009  1.00  0.00     0.000 HD 
ENDBRANCH  40  41
ENDBRANCH  21  40
TORSDOF 2
ENDMDL
MODEL       69
REMARK 921   NORMALIZED FREE ENERGY PREDICTED BY IDOCK:   85.91 KCAL/MOL
REMARK 922        TOTAL FREE ENERGY PREDICTED BY IDOCK:   95.39 KCAL/MOL
REMARK 923 INTER-LIGAND FREE ENERGY PREDICTED BY IDOCK:   95.22 KCAL/MOL
REMARK 924 INTRA-LIGAND FREE ENERGY PREDICTED BY IDOCK:    0.17 KCAL/MOL
REMARK 927      BINDING AFFINITY PREDICTED BY RF-SCORE:    0.00 PKD
ROOT
HETATM    1  C   UNL     1      -8.574  13.089  71.747  1.00  0.00    16.211 C  
HETATM    2  C   UNL     1      -7.325  11.901  72.185  1.00  0.00    10.307 C  
HETATM    3  C   UNL     1      -7.680  10.245  72.697  1.00  0.00     5.797 C  
HETATM    4  O   UNL     1      -7.290  10.213  74.116  1.00  0.00     2.015 OA 
HETATM    5  C   UNL     1      -7.000   8.720  72.179  1.00  0.00    -0.019 C  
HETATM    6  H   UNL     1      -7.481   9.324  74.391  1.00  0.00     0.000 HD 
HETATM    7  C   UNL     1      -7.752   7.366  71.520  1.00  0.00    -0.086 C  
HETATM    8  O   UNL     1      -6.805   6.674  70.680  1.00  0.00    -0.059 OA 
HETATM    9  C   UNL     1      -8.228   6.087  72.300  1.00  0.00    -0.110 C  
HETATM   10  H   UNL     1      -7.229   5.910  70.308  1.00  0.00     0.000 HD 
HETATM   11  C   UNL     1      -9.487   6.231  73.129  1.00  0.00    -0.138 C  
HETATM   12  O   UNL     1     -10.067   4.940  73.416  1.00  0.00    -0.154 OA 
HETATM   13  C   UNL     1     -10.564   7.072  72.418  1.00  0.00    -0.252 C  
HETATM   14  H   UNL     1     -10.857   5.031  73.936  1.00  0.00     0.000 HD 
HETATM   15  C   UNL     1      -9.930   8.181  71.551  1.00  0.00    -0.182 C  
HETATM   16  C   UNL     1     -11.315   7.716  73.555  1.00  0.00     0.572 C  
HETATM   17  O   UNL     1      -8.882   7.742  70.737  1.00  0.00    -0.137 OA 
HETATM   18  C   UNL     1     -10.898   9.071  70.767  1.00  0.00    -0.310 C  
HETATM   19  O   UNL     1     -10.815   8.542  74.339  1.00  0.00     4.199 OA 
HETATM   20  O   UNL     1     -12.589   7.401  73.623  1.00  0.00     1.982 OA 
HETATM   21  C   UNL     1     -10.215  10.348  70.191  1.00  0.00     0.008 C  
HETATM   22  O   UNL     1      -8.345  13.581  70.463  1.00  0.00     3.296 OA 
HETATM   23  C   UNL     1     -11.181  11.407  69.733  1.00  0.00    -0.266 C  
HETATM   24  C   UNL     1     -10.844  12.490  69.017  1.00  0.00    -0.183 C  
HETATM   25  C   UNL     1      -8.594  14.847  70.932  1.00  0.00     2.592 C  
HETATM   26  C   UNL     1     -11.843  13.361  68.492  1.00  0.00    -0.401 C  
HETATM   27  C   UNL     1      -9.934  15.734  70.287  1.00  0.00     0.138 C  
HETATM   28  C   UNL     1     -11.593  14.357  67.629  1.00  0.00    -0.396 C  
HETATM   29  C   UNL     1     -10.380  16.801  69.433  1.00  0.00    -0.276 C  
HETATM   30  C   UNL     1     -12.685  15.154  67.152  1.00  0.00     1.532 C  
HETATM   31  O   UNL     1      -9.159  18.780  68.207  1.00  0.00    -0.303 OA 
HETATM   32  C   UNL     1     -10.212  18.144  68.342  1.00  0.00    -0.387 C  
HETATM   33  O   UNL     1     -11.439  18.551  67.641  1.00  0.00     0.278 OA 
HETATM   34  C   UNL     1     -12.558  16.126  66.248  1.00  0.00     3.094 C  
HETATM   35  C   UNL     1     -11.220  20.332  65.446  1.00  0.00     0.542 C  
HETATM   36  C   UNL     1     -11.967  19.810  66.726  1.00  0.00     2.270 C  
HETATM   37  C   UNL     1     -13.616  17.093  66.084  1.00  0.00    12.331 C  
HETATM   38  C   UNL     1     -13.425  19.491  66.170  1.00  0.00    11.955 C  
HETATM   39  C   UNL     1     -13.321  18.193  65.394  1.00  0.00    15.341 C  
ENDROOT
BRANCH  21  40
HETATM   40  O   UNL     1      -9.175  10.098  69.265  1.00  0.00    -0.185 OA 
BRANCH  40  41
HETATM   41  C   UNL     1      -8.955  10.987  68.165  1.00  0.00    -0.152 C  
HETATM   42  C   UNL     1      -7.483  11.428  68.319  1.00  0.00    -0.101 C  
HETATM   43  O   UNL     1      -6.637  10.270  68.275  1.00  0.00    -0.056 OA 
HETATM   44  H   UNL     1      -5.731  10.541  68.370  1.00  0.00     0.000 HD 
HETATM   45  N   UNL     1      -5.728  12.901  67.347  1.00  0.00    -0.314 NA 
HETATM   46  H   UNL     1      -6.085  12.794  64.798  1.00  0.00     0.000 HD 
HETATM   47  O   UNL     1      -6.986  12.498  64.753  1.00  0.00     5.245 OA 
HETATM   48  C   UNL     1      -7.110  12.386  67.187  1.00  0.00    -0.077 C  
HETATM   49  C   UNL     1      -9.030  10.288  64.552  1.00  0.00    -0.247 C  
HETATM   50  C   UNL     1      -7.337  11.650  65.852  1.00  0.00     0.623 C  
HETATM   51  C   UNL     1      -8.809  11.167  65.778  1.00  0.00    -0.174 C  
HETATM   52  O   UNL     1      -9.206  10.374  66.905  1.00  0.00    -0.149 OA 
HETATM   53  H2  UNL     1      -5.470  13.493  66.558  1.00  0.00     0.000 HD 
HETATM   54  H1  UNL     1      -5.578  13.388  68.230  1.00  0.00     0.000 HD 
ENDBRANCH  40  41
ENDBRANCH  21  40
TORSDOF 2
ENDMDL
MODEL       70
REMARK 921   NORMALIZED FREE ENERGY PREDICTED BY IDOCK:   94.62 KCAL/MOL
REMARK 922        TOTAL FREE ENERGY PREDICTED BY IDOCK:  105.11 KCAL/MOL
REMARK 923 INTER-LIGAND FREE ENERGY PREDICTED BY IDOCK:   43.51 KCAL/MOL
REMARK 924 INTRA-LIGAND FREE ENERGY PREDICTED BY IDOCK:   61.60 KCAL/MOL
REMARK 927      BINDING AFFINITY PREDICTED BY RF-SCORE:    0.00 PKD
ROOT
HETATM    1  C   UNL     1     -10.936  13.774  72.018  1.00  0.00     4.181 C  
HETATM    2  C   UNL     1     -11.802  15.278  71.631  1.00  0.00    -0.451 C  
HETATM    3  C   UNL     1     -11.079  16.628  70.745  1.00  0.00     0.157 C  
HETATM    4  O   UNL     1     -10.979  17.705  71.743  1.00  0.00     0.793 OA 
HETATM    5  C   UNL     1     -11.678  17.552  69.386  1.00  0.00     2.539 C  
HETATM    6  H   UNL     1     -10.591  18.430  71.268  1.00  0.00     0.000 HD 
HETATM    7  C   UNL     1     -11.003  17.802  67.865  1.00  0.00    -0.088 C  
HETATM    8  O   UNL     1     -12.069  18.033  66.919  1.00  0.00     2.631 OA 
HETATM    9  C   UNL     1     -10.131  19.030  67.417  1.00  0.00    -0.443 C  
HETATM   10  H   UNL     1     -11.689  18.174  66.060  1.00  0.00     0.000 HD 
HETATM   11  C   UNL     1      -8.703  19.064  67.919  1.00  0.00    -0.301 C  
HETATM   12  O   UNL     1      -7.893  19.944  67.111  1.00  0.00    -0.267 OA 
HETATM   13  C   UNL     1      -8.040  17.674  67.893  1.00  0.00    -0.233 C  
HETATM   14  H   UNL     1      -6.997  19.965  67.427  1.00  0.00     0.000 HD 
HETATM   15  C   UNL     1      -9.065  16.556  68.181  1.00  0.00    -0.207 C  
HETATM   16  C   UNL     1      -7.055  17.733  69.033  1.00  0.00    -0.229 C  
HETATM   17  O   UNL     1     -10.251  16.665  67.449  1.00  0.00    -0.273 OA 
HETATM   18  C   UNL     1      -8.534  15.121  68.156  1.00  0.00    -0.152 C  
HETATM   19  O   UNL     1      -7.381  17.844  70.228  1.00  0.00     1.276 OA 
HETATM   20  O   UNL     1      -5.798  17.578  68.683  1.00  0.00    -0.164 OA 
HETATM   21  C   UNL     1      -9.533  14.094  68.768  1.00  0.00    -0.102 C  
HETATM   22  O   UNL     1     -11.634  12.673  71.523  1.00  0.00     1.483 OA 
HETATM   23  C   UNL     1      -8.921  12.757  69.087  1.00  0.00     0.717 C  
HETATM   24  C   UNL     1      -9.616  11.659  69.420  1.00  0.00     0.581 C  
HETATM   25  C   UNL     1     -11.420  12.034  72.720  1.00  0.00     8.490 C  
HETATM   26  C   UNL     1      -8.969  10.396  69.554  1.00  0.00    -0.127 C  
HETATM   27  C   UNL     1     -10.494  10.569  72.738  1.00  0.00     8.952 C  
HETATM   28  C   UNL     1      -9.618   9.232  69.711  1.00  0.00    -0.203 C  
HETATM   29  C   UNL     1     -10.499   9.137  72.860  1.00  0.00     1.631 C  
HETATM   30  C   UNL     1      -8.858   8.020  69.812  1.00  0.00    -0.144 C  
HETATM   31  O   UNL     1     -12.308   7.382  73.605  1.00  0.00     1.530 OA 
HETATM   32  C   UNL     1     -11.192   7.561  73.100  1.00  0.00    -0.267 C  
HETATM   33  O   UNL     1     -10.325   6.425  72.750  1.00  0.00    -0.188 OA 
HETATM   34  C   UNL     1      -9.402   6.807  69.909  1.00  0.00    -0.157 C  
HETATM   35  C   UNL     1     -11.484   3.845  72.558  1.00  0.00     0.614 C  
HETATM   36  C   UNL     1     -10.299   4.795  72.959  1.00  0.00    -0.184 C  
HETATM   37  C   UNL     1      -8.596   5.694  70.350  1.00  0.00    -0.132 C  
HETATM   38  C   UNL     1      -9.071   4.175  72.156  1.00  0.00    -0.156 C  
HETATM   39  C   UNL     1      -9.245   4.588  70.708  1.00  0.00    -0.202 C  
ENDROOT
BRANCH  21  40
HETATM   40  O   UNL     1     -10.774  13.998  68.095  1.00  0.00    -0.237 OA 
BRANCH  40  41
HETATM   41  C   UNL     1     -11.978  14.439  68.729  1.00  0.00    -0.295 C  
HETATM   42  C   UNL     1     -11.991  13.696  70.083  1.00  0.00    -0.337 C  
HETATM   43  O   UNL     1     -10.812  14.046  70.824  1.00  0.00     0.079 OA 
HETATM   44  H   UNL     1     -10.820  13.588  71.657  1.00  0.00     0.000 HD 
HETATM   45  N   UNL     1     -13.333  13.332  72.147  1.00  0.00    -0.504 NA 
HETATM   46  H   UNL     1     -14.400  15.615  72.678  1.00  0.00     0.000 HD 
HETATM   47  O   UNL     1     -14.347  16.041  71.830  1.00  0.00    -0.197 OA 
HETATM   48  C   UNL     1     -13.239  14.090  70.876  1.00  0.00    -0.180 C  
HETATM   49  C   UNL     1     -12.919  17.816  69.853  1.00  0.00    12.749 C  
HETATM   50  C   UNL     1     -13.207  15.618  71.076  1.00  0.00    -0.372 C  
HETATM   51  C   UNL     1     -13.122  16.314  69.692  1.00  0.00     2.271 C  
HETATM   52  O   UNL     1     -12.028  15.853  68.888  1.00  0.00    -0.370 OA 
HETATM   53  H2  UNL     1     -14.136  13.642  72.694  1.00  0.00     0.000 HD 
HETATM   54  H1  UNL     1     -13.354  12.321  72.015  1.00  0.00     0.000 HD 
ENDBRANCH  40  41
ENDBRANCH  21  40
TORSDOF 2
ENDMDL
MODEL       71
REMARK 921   NORMALIZED FREE ENERGY PREDICTED BY IDOCK:   97.30 KCAL/MOL
REMARK 922        TOTAL FREE ENERGY PREDICTED BY IDOCK:  108.11 KCAL/MOL
REMARK 923 INTER-LIGAND FREE ENERGY PREDICTED BY IDOCK:   35.53 KCAL/MOL
REMARK 924 INTRA-LIGAND FREE ENERGY PREDICTED BY IDOCK:   72.58 KCAL/MOL
REMARK 927      BINDING AFFINITY PREDICTED BY RF-SCORE:    0.00 PKD
ROOT
HETATM    1  C   UNL     1     -11.778  10.200  65.139  1.00  0.00     3.949 C  
HETATM    2  C   UNL     1     -12.495   8.615  65.509  1.00  0.00    15.484 C  
HETATM    3  C   UNL     1     -11.622   7.083  65.359  1.00  0.00     7.441 C  
HETATM    4  O   UNL     1     -12.283   6.397  64.238  1.00  0.00     8.093 OA 
HETATM    5  C   UNL     1     -11.474   5.740  66.470  1.00  0.00     0.732 C  
HETATM    6  H   UNL     1     -11.814   5.574  64.157  1.00  0.00     0.000 HD 
HETATM    7  C   UNL     1     -10.102   5.039  67.146  1.00  0.00    -0.199 C  
HETATM    8  O   UNL     1     -10.457   4.464  68.421  1.00  0.00     0.242 OA 
HETATM    9  C   UNL     1      -9.339   3.771  66.613  1.00  0.00    -0.207 C  
HETATM   10  H   UNL     1      -9.682   4.068  68.802  1.00  0.00     0.000 HD 
HETATM   11  C   UNL     1      -8.482   3.967  65.380  1.00  0.00    -0.109 C  
HETATM   12  O   UNL     1      -7.509   2.909  65.255  1.00  0.00    -0.070 OA 
HETATM   13  C   UNL     1      -7.713   5.301  65.408  1.00  0.00    -0.088 C  
HETATM   14  H   UNL     1      -6.971   3.032  64.482  1.00  0.00     0.000 HD 
HETATM   15  C   UNL     1      -8.523   6.404  66.119  1.00  0.00    -0.140 C  
HETATM   16  C   UNL     1      -7.580   5.661  63.950  1.00  0.00    -0.074 C  
HETATM   17  O   UNL     1      -9.077   6.010  67.341  1.00  0.00    -0.109 OA 
HETATM   18  C   UNL     1      -7.853   7.775  66.238  1.00  0.00    -0.091 C  
HETATM   19  O   UNL     1      -8.543   5.931  63.211  1.00  0.00     0.016 OA 
HETATM   20  O   UNL     1      -6.343   5.749  63.514  1.00  0.00    -0.024 OA 
HETATM   21  C   UNL     1      -8.844   8.900  66.664  1.00  0.00    -0.129 C  
HETATM   22  O   UNL     1     -11.882  11.047  66.241  1.00  0.00     0.134 OA 
HETATM   23  C   UNL     1      -8.320  10.294  66.447  1.00  0.00    -0.132 C  
HETATM   24  C   UNL     1      -8.894  11.408  66.923  1.00  0.00    -0.173 C  
HETATM   25  C   UNL     1     -12.292  12.050  65.397  1.00  0.00     0.281 C  
HETATM   26  C   UNL     1      -8.248  12.674  66.804  1.00  0.00     0.029 C  
HETATM   27  C   UNL     1     -11.324  13.480  65.259  1.00  0.00    -0.304 C  
HETATM   28  C   UNL     1      -8.676  13.795  67.404  1.00  0.00    -0.210 C  
HETATM   29  C   UNL     1     -11.169  14.873  65.582  1.00  0.00    -0.347 C  
HETATM   30  C   UNL     1      -7.928  15.006  67.228  1.00  0.00    -0.234 C  
HETATM   31  O   UNL     1     -12.771  16.692  66.596  1.00  0.00     3.712 OA 
HETATM   32  C   UNL     1     -11.613  16.408  66.265  1.00  0.00     0.959 C  
HETATM   33  O   UNL     1     -10.534  17.405  66.343  1.00  0.00    -0.326 OA 
HETATM   34  C   UNL     1      -8.228  16.159  67.826  1.00  0.00    -0.162 C  
HETATM   35  C   UNL     1     -10.946  19.727  67.917  1.00  0.00    -0.063 C  
HETATM   36  C   UNL     1     -10.372  19.013  66.640  1.00  0.00    -0.428 C  
HETATM   37  C   UNL     1      -7.654  17.389  67.338  1.00  0.00    -0.209 C  
HETATM   38  C   UNL     1      -8.826  19.391  66.697  1.00  0.00    -0.372 C  
HETATM   39  C   UNL     1      -8.205  18.521  67.772  1.00  0.00    -0.265 C  
ENDROOT
BRANCH  21  40
HETATM   40  O   UNL     1      -9.442   8.716  67.932  1.00  0.00    -0.138 OA 
BRANCH  40  41
HETATM   41  C   UNL     1      -9.074   7.603  68.752  1.00  0.00    -0.139 C  
HETATM   42  C   UNL     1      -9.364   6.368  67.870  1.00  0.00    -0.114 C  
HETATM   43  O   UNL     1      -8.586   6.454  66.667  1.00  0.00    -0.115 OA 
HETATM   44  H   UNL     1      -8.764   5.694  66.125  1.00  0.00     0.000 HD 
HETATM   45  N   UNL     1      -9.346   3.879  67.853  1.00  0.00    -0.165 NA 
HETATM   46  H   UNL     1      -7.262   3.203  69.207  1.00  0.00     0.000 HD 
HETATM   47  O   UNL     1      -7.108   3.995  69.710  1.00  0.00    -0.041 OA 
HETATM   48  C   UNL     1      -9.001   5.092  68.633  1.00  0.00    -0.105 C  
HETATM   49  C   UNL     1      -5.766   6.672  70.073  1.00  0.00    -0.019 C  
HETATM   50  C   UNL     1      -7.508   5.175  69.007  1.00  0.00    -0.069 C  
HETATM   51  C   UNL     1      -7.257   6.467  69.828  1.00  0.00    -0.074 C  
HETATM   52  O   UNL     1      -7.716   7.658  69.174  1.00  0.00    -0.104 OA 
HETATM   53  H2  UNL     1      -9.048   3.037  68.344  1.00  0.00     0.000 HD 
HETATM   54  H1  UNL     1     -10.333   3.824  67.605  1.00  0.00     0.000 HD 
ENDBRANCH  40  41
ENDBRANCH  21  40
TORSDOF 2
ENDMDL
MODEL       72
REMARK 921   NORMALIZED FREE ENERGY PREDICTED BY IDOCK:  109.44 KCAL/MOL
REMARK 922        TOTAL FREE ENERGY PREDICTED BY IDOCK:  121.67 KCAL/MOL
REMARK 923 INTER-LIGAND FREE ENERGY PREDICTED BY IDOCK:  121.48 KCAL/MOL
REMARK 924 INTRA-LIGAND FREE ENERGY PREDICTED BY IDOCK:    0.19 KCAL/MOL
REMARK 927      BINDING AFFINITY PREDICTED BY RF-SCORE:    0.00 PKD
ROOT
HETATM    1  C   UNL     1     -10.231  11.575  69.302  1.00  0.00     0.078 C  
HETATM    2  C   UNL     1      -8.994  10.298  69.293  1.00  0.00    -0.190 C  
HETATM    3  C   UNL     1      -8.811   9.116  67.990  1.00  0.00    -0.129 C  
HETATM    4  O   UNL     1      -9.201   7.836  68.603  1.00  0.00    -0.139 OA 
HETATM    5  C   UNL     1      -7.389   8.593  67.115  1.00  0.00    -0.088 C  
HETATM    6  H   UNL     1      -9.102   7.201  67.903  1.00  0.00     0.000 HD 
HETATM    7  C   UNL     1      -7.059   8.626  65.465  1.00  0.00    -0.083 C  
HETATM    8  O   UNL     1      -5.632   8.729  65.281  1.00  0.00    -0.045 OA 
HETATM    9  C   UNL     1      -7.261   7.447  64.445  1.00  0.00    -0.078 C  
HETATM   10  H   UNL     1      -5.445   8.748  64.350  1.00  0.00     0.000 HD 
HETATM   11  C   UNL     1      -8.686   7.150  64.029  1.00  0.00     0.681 C  
HETATM   12  O   UNL     1      -8.717   6.395  62.799  1.00  0.00    -0.336 OA 
HETATM   13  C   UNL     1      -9.510   8.431  63.806  1.00  0.00     2.078 C  
HETATM   14  H   UNL     1      -9.612   6.209  62.538  1.00  0.00     0.000 HD 
HETATM   15  C   UNL     1      -9.075   9.556  64.769  1.00  0.00    -0.218 C  
HETATM   16  C   UNL     1     -10.915   8.011  64.156  1.00  0.00    12.994 C  
HETATM   17  O   UNL     1      -7.691   9.742  64.842  1.00  0.00    -0.116 OA 
HETATM   18  C   UNL     1      -9.801  10.895  64.627  1.00  0.00    -0.350 C  
HETATM   19  O   UNL     1     -11.274   7.666  65.296  1.00  0.00     5.914 OA 
HETATM   20  O   UNL     1     -11.781   8.108  63.172  1.00  0.00    17.435 OA 
HETATM   21  C   UNL     1      -9.542  11.855  65.827  1.00  0.00    -0.224 C  
HETATM   22  O   UNL     1      -9.634  12.827  69.442  1.00  0.00     0.668 OA 
HETATM   23  C   UNL     1     -10.501  13.013  65.905  1.00  0.00    -0.293 C  
HETATM   24  C   UNL     1     -10.353  14.073  66.712  1.00  0.00    -0.271 C  
HETATM   25  C   UNL     1     -10.594  13.151  70.370  1.00  0.00     2.285 C  
HETATM   26  C   UNL     1     -11.224  15.198  66.611  1.00  0.00    -0.274 C  
HETATM   27  C   UNL     1     -11.671  14.467  70.040  1.00  0.00    -0.360 C  
HETATM   28  C   UNL     1     -11.033  16.357  67.259  1.00  0.00    -0.118 C  
HETATM   29  C   UNL     1     -12.042  15.826  70.325  1.00  0.00    -0.371 C  
HETATM   30  C   UNL     1     -11.966  17.427  67.060  1.00  0.00     2.601 C  
HETATM   31  O   UNL     1     -11.354  17.547  72.189  1.00  0.00     0.798 OA 
HETATM   32  C   UNL     1     -11.949  17.370  71.118  1.00  0.00     3.662 C  
HETATM   33  O   UNL     1     -12.708  18.458  70.483  1.00  0.00    13.483 OA 
HETATM   34  C   UNL     1     -11.838  18.637  67.605  1.00  0.00     2.106 C  
HETATM   35  C   UNL     1     -12.219  21.122  71.321  1.00  0.00    15.183 C  
HETATM   36  C   UNL     1     -13.194  19.986  70.844  1.00  0.00    22.917 C  
HETATM   37  C   UNL     1     -12.972  19.529  67.642  1.00  0.00     5.984 C  
HETATM   38  C   UNL     1     -13.891  20.639  69.569  1.00  0.00    10.360 C  
HETATM   39  C   UNL     1     -12.876  20.587  68.444  1.00  0.00     6.119 C  
ENDROOT
BRANCH  21  40
HETATM   40  O   UNL     1      -8.191  12.232  66.005  1.00  0.00     0.341 OA 
BRANCH  40  41
HETATM   41  C   UNL     1      -7.814  13.084  67.091  1.00  0.00    -0.063 C  
HETATM   42  C   UNL     1      -6.751  12.270  67.862  1.00  0.00    -0.093 C  
HETATM   43  O   UNL     1      -5.656  11.972  66.984  1.00  0.00    -0.132 OA 
HETATM   44  H   UNL     1      -5.003  11.471  67.458  1.00  0.00     0.000 HD 
HETATM   45  N   UNL     1      -5.290  12.299  69.877  1.00  0.00    -0.082 NA 
HETATM   46  H   UNL     1      -4.498  14.739  70.110  1.00  0.00     0.000 HD 
HETATM   47  O   UNL     1      -5.162  15.194  69.604  1.00  0.00    -0.090 OA 
HETATM   48  C   UNL     1      -6.250  13.080  69.060  1.00  0.00    -0.094 C  
HETATM   49  C   UNL     1      -6.157  16.370  67.011  1.00  0.00    -0.129 C  
HETATM   50  C   UNL     1      -5.663  14.401  68.524  1.00  0.00    -0.096 C  
HETATM   51  C   UNL     1      -6.746  15.144  67.698  1.00  0.00    -0.176 C  
HETATM   52  O   UNL     1      -7.316  14.344  66.653  1.00  0.00     0.431 OA 
HETATM   53  H2  UNL     1      -4.919  12.866  70.639  1.00  0.00     0.000 HD 
HETATM   54  H1  UNL     1      -5.678  11.425  70.232  1.00  0.00     0.000 HD 
ENDBRANCH  40  41
ENDBRANCH  21  40
TORSDOF 2
ENDMDL
MODEL       73
REMARK 921   NORMALIZED FREE ENERGY PREDICTED BY IDOCK:  117.31 KCAL/MOL
REMARK 922        TOTAL FREE ENERGY PREDICTED BY IDOCK:  130.46 KCAL/MOL
REMARK 923 INTER-LIGAND FREE ENERGY PREDICTED BY IDOCK:  127.19 KCAL/MOL
REMARK 924 INTRA-LIGAND FREE ENERGY PREDICTED BY IDOCK:    3.27 KCAL/MOL
REMARK 927      BINDING AFFINITY PREDICTED BY RF-SCORE:    0.00 PKD
ROOT
HETATM    1  C   UNL     1      -7.783  12.163  68.746  1.00  0.00    -0.034 C  
HETATM    2  C   UNL     1      -7.652  13.661  69.694  1.00  0.00     0.621 C  
HETATM    3  C   UNL     1      -8.903  14.913  69.733  1.00  0.00     0.231 C  
HETATM    4  O   UNL     1      -8.290  16.060  69.044  1.00  0.00    -0.217 OA 
HETATM    5  C   UNL     1      -9.640  15.748  71.081  1.00  0.00     2.425 C  
HETATM    6  H   UNL     1      -8.961  16.732  69.065  1.00  0.00     0.000 HD 
HETATM    7  C   UNL     1     -11.256  15.854  71.537  1.00  0.00    -0.180 C  
HETATM    8  O   UNL     1     -11.322  16.048  72.965  1.00  0.00    -0.014 OA 
HETATM    9  C   UNL     1     -12.256  17.013  71.179  1.00  0.00     2.730 C  
HETATM   10  H   UNL     1     -12.234  16.108  73.223  1.00  0.00     0.000 HD 
HETATM   11  C   UNL     1     -12.783  17.036  69.759  1.00  0.00     5.014 C  
HETATM   12  O   UNL     1     -13.990  17.822  69.670  1.00  0.00    12.341 OA 
HETATM   13  C   UNL     1     -13.110  15.627  69.233  1.00  0.00     1.225 C  
HETATM   14  H   UNL     1     -14.321  17.837  68.779  1.00  0.00     0.000 HD 
HETATM   15  C   UNL     1     -12.146  14.571  69.813  1.00  0.00    -0.331 C  
HETATM   16  C   UNL     1     -12.869  15.740  67.749  1.00  0.00     2.548 C  
HETATM   17  O   UNL     1     -11.961  14.663  71.196  1.00  0.00    -0.322 OA 
HETATM   18  C   UNL     1     -12.385  13.120  69.387  1.00  0.00    -0.053 C  
HETATM   19  O   UNL     1     -11.754  15.956  67.241  1.00  0.00     0.100 OA 
HETATM   20  O   UNL     1     -13.924  15.515  66.999  1.00  0.00     5.773 OA 
HETATM   21  C   UNL     1     -11.194  12.180  69.743  1.00  0.00     0.002 C  
HETATM   22  O   UNL     1      -7.628  11.051  69.573  1.00  0.00    -0.102 OA 
HETATM   23  C   UNL     1     -11.229  10.851  69.037  1.00  0.00    -0.327 C  
HETATM   24  C   UNL     1     -10.442   9.808  69.335  1.00  0.00    -0.241 C  
HETATM   25  C   UNL     1      -6.794  10.501  68.631  1.00  0.00    -0.054 C  
HETATM   26  C   UNL     1     -10.647   8.537  68.722  1.00  0.00    -0.162 C  
HETATM   27  C   UNL     1      -7.249   9.011  67.873  1.00  0.00    -0.080 C  
HETATM   28  C   UNL     1     -10.017   7.412  69.095  1.00  0.00    -0.173 C  
HETATM   29  C   UNL     1      -7.034   7.594  67.765  1.00  0.00    -0.077 C  
HETATM   30  C   UNL     1     -10.324   6.186  68.417  1.00  0.00    -0.240 C  
HETATM   31  O   UNL     1      -5.167   5.966  68.644  1.00  0.00    -0.006 OA 
HETATM   32  C   UNL     1      -6.279   6.067  68.110  1.00  0.00    -0.029 C  
HETATM   33  O   UNL     1      -7.006   4.877  67.639  1.00  0.00    -0.059 OA 
HETATM   34  C   UNL     1      -9.803   5.004  68.746  1.00  0.00    -0.236 C  
HETATM   35  C   UNL     1      -6.203   2.332  68.595  1.00  0.00    -0.025 C  
HETATM   36  C   UNL     1      -6.729   3.269  67.448  1.00  0.00    -0.045 C  
HETATM   37  C   UNL     1      -9.887   3.902  67.819  1.00  0.00    -0.060 C  
HETATM   38  C   UNL     1      -8.075   2.546  67.000  1.00  0.00    -0.076 C  
HETATM   39  C   UNL     1      -9.109   2.850  68.066  1.00  0.00    -0.225 C  
ENDROOT
BRANCH  21  40
HETATM   40  O   UNL     1     -10.913  12.074  71.125  1.00  0.00     2.566 OA 
BRANCH  40  41
HETATM   41  C   UNL     1      -9.568  11.895  71.579  1.00  0.00    12.933 C  
HETATM   42  C   UNL     1      -9.158  13.286  72.112  1.00  0.00    16.722 C  
HETATM   43  O   UNL     1     -10.053  13.670  73.166  1.00  0.00     7.369 OA 
HETATM   44  H   UNL     1      -9.801  14.526  73.493  1.00  0.00     0.000 HD 
HETATM   45  N   UNL     1      -7.261  14.569  73.086  1.00  0.00     2.591 NA 
HETATM   46  H   UNL     1      -6.054  12.919  74.653  1.00  0.00     0.000 HD 
HETATM   47  O   UNL     1      -6.354  12.087  74.305  1.00  0.00     1.804 OA 
HETATM   48  C   UNL     1      -7.724  13.232  72.644  1.00  0.00    11.164 C  
HETATM   49  C   UNL     1      -8.289   9.773  74.301  1.00  0.00     4.440 C  
HETATM   50  C   UNL     1      -7.674  12.168  73.758  1.00  0.00    15.032 C  
HETATM   51  C   UNL     1      -8.163  10.809  73.191  1.00  0.00    12.896 C  
HETATM   52  O   UNL     1      -9.455  10.881  72.572  1.00  0.00    10.027 OA 
HETATM   53  H2  UNL     1      -6.327  14.512  73.491  1.00  0.00     0.000 HD 
HETATM   54  H1  UNL     1      -7.294  15.273  72.349  1.00  0.00     0.000 HD 
ENDBRANCH  40  41
ENDBRANCH  21  40
TORSDOF 2
ENDMDL
