MODEL        1
REMARK 921   NORMALIZED FREE ENERGY PREDICTED BY IDOCK:   -6.72 KCAL/MOL
REMARK 922        TOTAL FREE ENERGY PREDICTED BY IDOCK:   -9.32 KCAL/MOL
REMARK 923 INTER-LIGAND FREE ENERGY PREDICTED BY IDOCK:   -8.29 KCAL/MOL
REMARK 924 INTRA-LIGAND FREE ENERGY PREDICTED BY IDOCK:   -1.03 KCAL/MOL
REMARK 927      BINDING AFFINITY PREDICTED BY RF-SCORE:    0.00 PKD
ROOT
HETATM    1  C   UNK A   0     -11.734   7.400  72.090  1.00  0.00    -0.328 C  
HETATM    2  C   UNK A   0     -12.455   8.625  71.513  1.00  0.00    -0.364 C  
HETATM    3  C   UNK A   0     -13.706   8.879  72.372  1.00  0.00    -0.512 C  
HETATM    4  C   UNK A   0     -11.540   9.886  71.438  1.00  0.00    -0.428 C  
HETATM    5  C   UNK A   0     -10.287   9.738  70.544  1.00  0.00    -0.348 C  
HETATM    6  C   UNK A   0     -10.564   9.801  69.034  1.00  0.00    -0.238 C  
HETATM    7  C   UNK A   0     -11.486  10.957  68.596  1.00  0.00    -0.380 C  
HETATM    8  C   UNK A   0     -12.720  11.025  69.501  1.00  0.00     0.176 C  
HETATM    9  C   UNK A   0     -12.299  11.138  70.965  1.00  0.00    -0.487 C  
ENDROOT
BRANCH   7  10
HETATM   10  C   UNK A   0     -10.772  12.319  68.519  1.00  0.00    -0.237 C  
HETATM   11  O   UNK A   0      -9.556  12.447  68.448  1.00  0.00    -0.216 OA 
ATOM     12  N   PHE A   1     -11.622  13.404  68.498  1.00  0.00    -0.309 N  
ATOM     13  H   PHE A   1     -12.622  13.239  68.619  1.00  0.00     0.000 HD 
BRANCH  12  14
ATOM     14  CA  PHE A   1     -11.161  14.783  68.311  1.00  0.00    -0.286 C  
ATOM     15  OXT PHE A   1     -11.690  14.375  65.966  1.00  0.00    -0.364 OA 
ATOM     16  C   PHE A   1     -11.194  15.110  66.812  1.00  0.00    -0.285 C  
ATOM     17  O   PHE A   1     -10.569  16.264  66.477  1.00  0.00    -0.308 OA 
BRANCH  14  18
ATOM     18  CB  PHE A   1     -11.903  15.836  69.157  1.00  0.00    -0.367 C  
BRANCH  18  19
ATOM     19  CG  PHE A   1     -12.299  15.444  70.564  1.00  0.00    -0.452 A  
ATOM     20  CD1 PHE A   1     -11.428  15.691  71.632  1.00  0.00    -0.506 A  
ATOM     21  CE1 PHE A   1     -11.789  15.371  72.941  1.00  0.00    -0.547 A  
ATOM     22  CZ  PHE A   1     -13.038  14.816  73.203  1.00  0.00    -0.598 A  
ATOM     23  CE2 PHE A   1     -13.922  14.575  72.153  1.00  0.00    -0.597 A  
ATOM     24  CD2 PHE A   1     -13.554  14.882  70.839  1.00  0.00    -0.313 A  
ENDBRANCH  18  19
ENDBRANCH  14  18
ENDBRANCH  12  14
ENDBRANCH   7  10
TORSDOF 4
ENDMDL
MODEL        2
REMARK 921   NORMALIZED FREE ENERGY PREDICTED BY IDOCK:   -6.41 KCAL/MOL
REMARK 922        TOTAL FREE ENERGY PREDICTED BY IDOCK:   -8.94 KCAL/MOL
REMARK 923 INTER-LIGAND FREE ENERGY PREDICTED BY IDOCK:   -7.74 KCAL/MOL
REMARK 924 INTRA-LIGAND FREE ENERGY PREDICTED BY IDOCK:   -1.20 KCAL/MOL
REMARK 927      BINDING AFFINITY PREDICTED BY RF-SCORE:    0.00 PKD
ROOT
HETATM    1  C   UNK A   0     -10.125  17.487  65.977  1.00  0.00    -0.270 C  
HETATM    2  C   UNK A   0     -10.160  16.842  67.367  1.00  0.00    -0.276 C  
HETATM    3  C   UNK A   0     -10.222  17.974  68.407  1.00  0.00    -0.399 C  
HETATM    4  C   UNK A   0     -11.340  15.836  67.539  1.00  0.00    -0.150 C  
HETATM    5  C   UNK A   0     -11.322  14.630  66.571  1.00  0.00    -0.353 C  
HETATM    6  C   UNK A   0     -10.294  13.543  66.919  1.00  0.00    -0.265 C  
HETATM    7  C   UNK A   0     -10.273  13.127  68.404  1.00  0.00    -0.247 C  
HETATM    8  C   UNK A   0     -10.258  14.367  69.303  1.00  0.00    -0.077 C  
HETATM    9  C   UNK A   0     -11.437  15.279  68.969  1.00  0.00    -0.338 C  
ENDROOT
BRANCH   7  10
HETATM   10  C   UNK A   0     -11.413  12.167  68.792  1.00  0.00    -0.307 C  
HETATM   11  O   UNK A   0     -12.064  11.522  67.980  1.00  0.00    -0.617 OA 
ATOM     12  N   PHE A   1     -11.626  12.060  70.149  1.00  0.00    -0.531 N  
ATOM     13  H   PHE A   1     -11.093  12.666  70.773  1.00  0.00     0.000 HD 
BRANCH  12  14
ATOM     14  CA  PHE A   1     -12.581  11.118  70.741  1.00  0.00    -0.352 C  
ATOM     15  OXT PHE A   1     -10.627   9.680  70.983  1.00  0.00    -0.311 OA 
ATOM     16  C   PHE A   1     -11.843   9.813  71.063  1.00  0.00    -0.356 C  
ATOM     17  O   PHE A   1     -12.654   8.778  71.391  1.00  0.00    -0.310 OA 
BRANCH  14  18
ATOM     18  CB  PHE A   1     -13.365  11.663  71.951  1.00  0.00    -0.403 C  
BRANCH  18  19
ATOM     19  CG  PHE A   1     -13.406  13.164  72.135  1.00  0.00    -0.621 A  
ATOM     20  CD1 PHE A   1     -12.565  13.779  73.069  1.00  0.00     0.197 A  
ATOM     21  CE1 PHE A   1     -12.561  15.165  73.229  1.00  0.00    -0.615 A  
ATOM     22  CZ  PHE A   1     -13.388  15.959  72.440  1.00  0.00    -0.456 A  
ATOM     23  CE2 PHE A   1     -14.223  15.364  71.497  1.00  0.00    -0.584 A  
ATOM     24  CD2 PHE A   1     -14.238  13.973  71.347  1.00  0.00    -0.098 A  
ENDBRANCH  18  19
ENDBRANCH  14  18
ENDBRANCH  12  14
ENDBRANCH   7  10
TORSDOF 4
ENDMDL
MODEL        3
REMARK 921   NORMALIZED FREE ENERGY PREDICTED BY IDOCK:   -6.32 KCAL/MOL
REMARK 922        TOTAL FREE ENERGY PREDICTED BY IDOCK:   -8.83 KCAL/MOL
REMARK 923 INTER-LIGAND FREE ENERGY PREDICTED BY IDOCK:   -8.10 KCAL/MOL
REMARK 924 INTRA-LIGAND FREE ENERGY PREDICTED BY IDOCK:   -0.73 KCAL/MOL
REMARK 927      BINDING AFFINITY PREDICTED BY RF-SCORE:    0.00 PKD
ROOT
HETATM    1  C   UNK A   0      -7.680  19.467  65.913  1.00  0.00    -0.264 C  
HETATM    2  C   UNK A   0      -8.742  19.173  66.979  1.00  0.00    -0.313 C  
HETATM    3  C   UNK A   0      -9.440  20.501  67.321  1.00  0.00    -0.559 C  
HETATM    4  C   UNK A   0      -9.764  18.083  66.533  1.00  0.00    -0.338 C  
HETATM    5  C   UNK A   0      -9.153  16.695  66.226  1.00  0.00    -0.333 C  
HETATM    6  C   UNK A   0      -8.763  15.877  67.467  1.00  0.00    -0.189 C  
HETATM    7  C   UNK A   0      -9.835  15.835  68.574  1.00  0.00    -0.209 C  
HETATM    8  C   UNK A   0     -10.372  17.243  68.849  1.00  0.00    -0.352 C  
HETATM    9  C   UNK A   0     -10.891  17.874  67.558  1.00  0.00    -0.239 C  
ENDROOT
BRANCH   7  10
HETATM   10  C   UNK A   0     -10.980  14.845  68.286  1.00  0.00    -0.264 C  
HETATM   11  O   UNK A   0     -12.071  14.888  68.839  1.00  0.00    -0.273 OA 
ATOM     12  N   PHE A   1     -10.690  13.913  67.313  1.00  0.00    -0.282 N  
ATOM     13  H   PHE A   1      -9.745  13.889  66.930  1.00  0.00     0.000 HD 
BRANCH  12  14
ATOM     14  CA  PHE A   1     -11.673  12.953  66.801  1.00  0.00    -0.383 C  
ATOM     15  OXT PHE A   1     -11.468  14.228  64.733  1.00  0.00    -0.359 OA 
ATOM     16  C   PHE A   1     -12.045  13.351  65.367  1.00  0.00    -0.421 C  
ATOM     17  O   PHE A   1     -13.117  12.694  64.863  1.00  0.00    -0.850 OA 
BRANCH  14  18
ATOM     18  CB  PHE A   1     -11.253  11.474  66.909  1.00  0.00    -0.363 C  
BRANCH  18  19
ATOM     19  CG  PHE A   1     -11.325  10.828  68.275  1.00  0.00    -0.376 A  
ATOM     20  CD1 PHE A   1     -10.534   9.710  68.565  1.00  0.00    -0.241 A  
ATOM     21  CE1 PHE A   1     -10.558   9.122  69.830  1.00  0.00    -0.246 A  
ATOM     22  CZ  PHE A   1     -11.362   9.657  70.832  1.00  0.00    -0.431 A  
ATOM     23  CE2 PHE A   1     -12.147  10.778  70.564  1.00  0.00    -0.459 A  
ATOM     24  CD2 PHE A   1     -12.134  11.358  69.292  1.00  0.00    -0.356 A  
ENDBRANCH  18  19
ENDBRANCH  14  18
ENDBRANCH  12  14
ENDBRANCH   7  10
TORSDOF 4
ENDMDL
MODEL        4
REMARK 921   NORMALIZED FREE ENERGY PREDICTED BY IDOCK:   -6.32 KCAL/MOL
REMARK 922        TOTAL FREE ENERGY PREDICTED BY IDOCK:   -8.83 KCAL/MOL
REMARK 923 INTER-LIGAND FREE ENERGY PREDICTED BY IDOCK:   -8.20 KCAL/MOL
REMARK 924 INTRA-LIGAND FREE ENERGY PREDICTED BY IDOCK:   -0.63 KCAL/MOL
REMARK 927      BINDING AFFINITY PREDICTED BY RF-SCORE:    0.00 PKD
ROOT
HETATM    1  C   UNK A   0      -9.618  20.699  67.300  1.00  0.00    -0.558 C  
HETATM    2  C   UNK A   0      -8.595  19.557  67.310  1.00  0.00    -0.341 C  
HETATM    3  C   UNK A   0      -7.293  20.100  67.927  1.00  0.00    -0.326 C  
HETATM    4  C   UNK A   0      -9.107  18.292  68.066  1.00  0.00    -0.300 C  
HETATM    5  C   UNK A   0     -10.381  17.644  67.475  1.00  0.00    -0.365 C  
HETATM    6  C   UNK A   0     -10.151  16.832  66.191  1.00  0.00    -0.360 C  
HETATM    7  C   UNK A   0      -8.950  15.866  66.245  1.00  0.00    -0.381 C  
HETATM    8  C   UNK A   0      -7.718  16.581  66.808  1.00  0.00    -0.294 C  
HETATM    9  C   UNK A   0      -8.036  17.193  68.171  1.00  0.00    -0.216 C  
ENDROOT
BRANCH   7  10
HETATM   10  C   UNK A   0      -9.242  14.563  67.013  1.00  0.00    -0.240 C  
HETATM   11  O   UNK A   0      -8.404  13.694  67.222  1.00  0.00    -0.179 OA 
ATOM     12  N   PHE A   1     -10.531  14.463  67.490  1.00  0.00    -0.252 N  
ATOM     13  H   PHE A   1     -11.200  15.190  67.235  1.00  0.00     0.000 HD 
BRANCH  12  14
ATOM     14  CA  PHE A   1     -10.989  13.364  68.344  1.00  0.00    -0.267 C  
ATOM     15  OXT PHE A   1     -12.127  15.131  69.580  1.00  0.00    -0.310 OA 
ATOM     16  C   PHE A   1     -11.798  13.953  69.507  1.00  0.00    -0.329 C  
ATOM     17  O   PHE A   1     -12.076  13.073  70.499  1.00  0.00    -0.355 OA 
BRANCH  14  18
ATOM     18  CB  PHE A   1     -11.751  12.244  67.609  1.00  0.00    -0.403 C  
BRANCH  18  19
ATOM     19  CG  PHE A   1     -11.499  12.090  66.125  1.00  0.00    -0.401 A  
ATOM     20  CD1 PHE A   1     -10.500  11.223  65.669  1.00  0.00    -0.317 A  
ATOM     21  CE1 PHE A   1     -10.276  11.040  64.304  1.00  0.00    -0.414 A  
ATOM     22  CZ  PHE A   1     -11.065  11.709  63.373  1.00  0.00    -0.422 A  
ATOM     23  CE2 PHE A   1     -12.073  12.567  63.809  1.00  0.00    -0.615 A  
ATOM     24  CD2 PHE A   1     -12.287  12.762  65.178  1.00  0.00    -0.555 A  
ENDBRANCH  18  19
ENDBRANCH  14  18
ENDBRANCH  12  14
ENDBRANCH   7  10
TORSDOF 4
ENDMDL
MODEL        5
REMARK 921   NORMALIZED FREE ENERGY PREDICTED BY IDOCK:   -6.29 KCAL/MOL
REMARK 922        TOTAL FREE ENERGY PREDICTED BY IDOCK:   -8.79 KCAL/MOL
REMARK 923 INTER-LIGAND FREE ENERGY PREDICTED BY IDOCK:   -8.06 KCAL/MOL
REMARK 924 INTRA-LIGAND FREE ENERGY PREDICTED BY IDOCK:   -0.73 KCAL/MOL
REMARK 927      BINDING AFFINITY PREDICTED BY RF-SCORE:    0.00 PKD
ROOT
HETATM    1  C   UNK A   0      -9.257   9.732  62.397  1.00  0.00    -0.294 C  
HETATM    2  C   UNK A   0      -9.485   9.999  63.890  1.00  0.00    -0.280 C  
HETATM    3  C   UNK A   0      -8.426   9.205  64.675  1.00  0.00    -0.197 C  
HETATM    4  C   UNK A   0      -9.449  11.517  64.247  1.00  0.00    -0.106 C  
HETATM    5  C   UNK A   0     -10.523  12.382  63.547  1.00  0.00    -0.430 C  
HETATM    6  C   UNK A   0     -11.940  12.239  64.126  1.00  0.00    -0.518 C  
HETATM    7  C   UNK A   0     -12.017  12.307  65.664  1.00  0.00    -0.373 C  
HETATM    8  C   UNK A   0     -10.950  11.403  66.290  1.00  0.00    -0.303 C  
HETATM    9  C   UNK A   0      -9.566  11.771  65.760  1.00  0.00    -0.253 C  
ENDROOT
BRANCH   7  10
HETATM   10  C   UNK A   0     -11.936  13.740  66.224  1.00  0.00    -0.429 C  
HETATM   11  O   UNK A   0     -12.197  14.741  65.569  1.00  0.00    -0.239 OA 
ATOM     12  N   PHE A   1     -11.578  13.809  67.553  1.00  0.00    -0.334 N  
ATOM     13  H   PHE A   1     -11.316  12.947  68.030  1.00  0.00     0.000 HD 
BRANCH  12  14
ATOM     14  CA  PHE A   1     -11.554  15.062  68.314  1.00  0.00    -0.334 C  
ATOM     15  OXT PHE A   1     -12.285  13.657  70.167  1.00  0.00    -0.330 OA 
ATOM     16  C   PHE A   1     -12.066  14.782  69.732  1.00  0.00    -0.319 C  
ATOM     17  O   PHE A   1     -12.321  15.892  70.465  1.00  0.00    -0.381 OA 
BRANCH  14  18
ATOM     18  CB  PHE A   1     -10.198  15.795  68.314  1.00  0.00    -0.225 C  
BRANCH  18  19
ATOM     19  CG  PHE A   1     -10.191  17.244  67.878  1.00  0.00    -0.332 A  
ATOM     20  CD1 PHE A   1     -10.385  17.572  66.531  1.00  0.00    -0.325 A  
ATOM     21  CE1 PHE A   1     -10.418  18.903  66.114  1.00  0.00    -0.521 A  
ATOM     22  CZ  PHE A   1     -10.276  19.929  67.044  1.00  0.00    -0.588 A  
ATOM     23  CE2 PHE A   1     -10.094  19.620  68.391  1.00  0.00    -0.557 A  
ATOM     24  CD2 PHE A   1     -10.046  18.285  68.807  1.00  0.00    -0.393 A  
ENDBRANCH  18  19
ENDBRANCH  14  18
ENDBRANCH  12  14
ENDBRANCH   7  10
TORSDOF 4
ENDMDL
MODEL        6
REMARK 921   NORMALIZED FREE ENERGY PREDICTED BY IDOCK:   -6.29 KCAL/MOL
REMARK 922        TOTAL FREE ENERGY PREDICTED BY IDOCK:   -8.79 KCAL/MOL
REMARK 923 INTER-LIGAND FREE ENERGY PREDICTED BY IDOCK:   -8.06 KCAL/MOL
REMARK 924 INTRA-LIGAND FREE ENERGY PREDICTED BY IDOCK:   -0.72 KCAL/MOL
REMARK 927      BINDING AFFINITY PREDICTED BY RF-SCORE:    0.00 PKD
ROOT
HETATM    1  C   UNK A   0      -7.359  19.570  68.957  1.00  0.00    -0.392 C  
HETATM    2  C   UNK A   0      -7.296  18.316  68.077  1.00  0.00    -0.244 C  
HETATM    3  C   UNK A   0      -5.853  17.784  68.122  1.00  0.00    -0.161 C  
HETATM    4  C   UNK A   0      -8.326  17.224  68.502  1.00  0.00    -0.267 C  
HETATM    5  C   UNK A   0      -9.810  17.656  68.428  1.00  0.00    -0.334 C  
HETATM    6  C   UNK A   0     -10.393  17.708  67.007  1.00  0.00    -0.330 C  
HETATM    7  C   UNK A   0     -10.077  16.476  66.135  1.00  0.00    -0.365 C  
HETATM    8  C   UNK A   0      -8.589  16.126  66.230  1.00  0.00    -0.373 C  
HETATM    9  C   UNK A   0      -8.182  15.927  67.688  1.00  0.00    -0.164 C  
ENDROOT
BRANCH   7  10
HETATM   10  C   UNK A   0     -10.962  15.255  66.450  1.00  0.00    -0.299 C  
HETATM   11  O   UNK A   0     -11.706  15.186  67.420  1.00  0.00    -0.306 OA 
ATOM     12  N   PHE A   1     -10.878  14.241  65.521  1.00  0.00    -0.307 N  
ATOM     13  H   PHE A   1     -10.197  14.329  64.766  1.00  0.00     0.000 HD 
BRANCH  12  14
ATOM     14  CA  PHE A   1     -11.718  13.040  65.563  1.00  0.00    -0.368 C  
ATOM     15  OXT PHE A   1     -12.335  13.698  63.298  1.00  0.00    -0.743 OA 
ATOM     16  C   PHE A   1     -12.520  12.959  64.258  1.00  0.00    -0.349 C  
ATOM     17  O   PHE A   1     -13.510  12.034  64.266  1.00  0.00    -0.654 OA 
BRANCH  14  18
ATOM     18  CB  PHE A   1     -10.966  11.731  65.871  1.00  0.00    -0.354 C  
BRANCH  18  19
ATOM     19  CG  PHE A   1     -11.097  11.165  67.268  1.00  0.00    -0.366 A  
ATOM     20  CD1 PHE A   1     -10.502   9.939  67.587  1.00  0.00    -0.296 A  
ATOM     21  CE1 PHE A   1     -10.580   9.417  68.879  1.00  0.00    -0.231 A  
ATOM     22  CZ  PHE A   1     -11.241  10.126  69.878  1.00  0.00    -0.343 A  
ATOM     23  CE2 PHE A   1     -11.829  11.354  69.580  1.00  0.00    -0.431 A  
ATOM     24  CD2 PHE A   1     -11.763  11.870  68.282  1.00  0.00    -0.385 A  
ENDBRANCH  18  19
ENDBRANCH  14  18
ENDBRANCH  12  14
ENDBRANCH   7  10
TORSDOF 4
ENDMDL
MODEL        7
REMARK 921   NORMALIZED FREE ENERGY PREDICTED BY IDOCK:   -6.27 KCAL/MOL
REMARK 922        TOTAL FREE ENERGY PREDICTED BY IDOCK:   -8.77 KCAL/MOL
REMARK 923 INTER-LIGAND FREE ENERGY PREDICTED BY IDOCK:   -8.03 KCAL/MOL
REMARK 924 INTRA-LIGAND FREE ENERGY PREDICTED BY IDOCK:   -0.74 KCAL/MOL
REMARK 927      BINDING AFFINITY PREDICTED BY RF-SCORE:    0.00 PKD
ROOT
HETATM    1  C   UNK A   0      -9.777  20.368  66.919  1.00  0.00    -0.567 C  
HETATM    2  C   UNK A   0      -9.676  19.226  67.938  1.00  0.00    -0.422 C  
HETATM    3  C   UNK A   0     -10.013  19.805  69.323  1.00  0.00    -0.314 C  
HETATM    4  C   UNK A   0     -10.589  18.013  67.581  1.00  0.00    -0.413 C  
HETATM    5  C   UNK A   0     -10.278  17.331  66.228  1.00  0.00    -0.347 C  
HETATM    6  C   UNK A   0      -9.027  16.439  66.232  1.00  0.00    -0.368 C  
HETATM    7  C   UNK A   0      -8.926  15.476  67.432  1.00  0.00    -0.203 C  
HETATM    8  C   UNK A   0      -9.212  16.223  68.738  1.00  0.00    -0.240 C  
HETATM    9  C   UNK A   0     -10.569  16.921  68.664  1.00  0.00    -0.360 C  
ENDROOT
BRANCH   7  10
HETATM   10  C   UNK A   0      -9.814  14.225  67.295  1.00  0.00    -0.244 C  
HETATM   11  O   UNK A   0     -10.240  13.585  68.248  1.00  0.00    -0.237 OA 
ATOM     12  N   PHE A   1     -10.130  13.895  65.994  1.00  0.00    -0.304 N  
ATOM     13  H   PHE A   1      -9.698  14.429  65.240  1.00  0.00     0.000 HD 
BRANCH  12  14
ATOM     14  CA  PHE A   1     -11.055  12.813  65.642  1.00  0.00    -0.279 C  
ATOM     15  OXT PHE A   1     -12.245  14.565  64.433  1.00  0.00    -0.480 OA 
ATOM     16  C   PHE A   1     -12.218  13.408  64.838  1.00  0.00    -0.408 C  
ATOM     17  O   PHE A   1     -13.262  12.564  64.656  1.00  0.00    -0.848 OA 
BRANCH  14  18
ATOM     18  CB  PHE A   1     -10.406  11.609  64.932  1.00  0.00    -0.331 C  
BRANCH  18  19
ATOM     19  CG  PHE A   1     -10.069  10.401  65.778  1.00  0.00    -0.329 A  
ATOM     20  CD1 PHE A   1     -10.639  10.253  67.048  1.00  0.00    -0.302 A  
ATOM     21  CE1 PHE A   1     -10.370   9.129  67.829  1.00  0.00    -0.302 A  
ATOM     22  CZ  PHE A   1      -9.540   8.124  67.341  1.00  0.00    -0.204 A  
ATOM     23  CE2 PHE A   1      -8.974   8.250  66.074  1.00  0.00    -0.224 A  
ATOM     24  CD2 PHE A   1      -9.232   9.384  65.297  1.00  0.00    -0.299 A  
ENDBRANCH  18  19
ENDBRANCH  14  18
ENDBRANCH  12  14
ENDBRANCH   7  10
TORSDOF 4
ENDMDL
MODEL        8
REMARK 921   NORMALIZED FREE ENERGY PREDICTED BY IDOCK:   -6.20 KCAL/MOL
REMARK 922        TOTAL FREE ENERGY PREDICTED BY IDOCK:   -8.68 KCAL/MOL
REMARK 923 INTER-LIGAND FREE ENERGY PREDICTED BY IDOCK:   -8.23 KCAL/MOL
REMARK 924 INTRA-LIGAND FREE ENERGY PREDICTED BY IDOCK:   -0.44 KCAL/MOL
REMARK 927      BINDING AFFINITY PREDICTED BY RF-SCORE:    0.00 PKD
ROOT
HETATM    1  C   UNK A   0      -5.886  20.952  68.420  1.00  0.00    -0.391 C  
HETATM    2  C   UNK A   0      -6.892  20.546  67.336  1.00  0.00    -0.353 C  
HETATM    3  C   UNK A   0      -6.288  20.925  65.973  1.00  0.00    -0.284 C  
HETATM    4  C   UNK A   0      -7.273  19.035  67.398  1.00  0.00    -0.228 C  
HETATM    5  C   UNK A   0      -7.943  18.580  68.716  1.00  0.00    -0.294 C  
HETATM    6  C   UNK A   0      -9.415  18.997  68.865  1.00  0.00    -0.393 C  
HETATM    7  C   UNK A   0     -10.288  18.737  67.621  1.00  0.00    -0.476 C  
HETATM    8  C   UNK A   0      -9.579  19.241  66.360  1.00  0.00    -0.425 C  
HETATM    9  C   UNK A   0      -8.193  18.610  66.242  1.00  0.00    -0.258 C  
ENDROOT
BRANCH   7  10
HETATM   10  C   UNK A   0     -10.723  17.267  67.470  1.00  0.00    -0.278 C  
HETATM   11  O   UNK A   0     -11.228  16.611  68.372  1.00  0.00    -0.357 OA 
ATOM     12  N   PHE A   1     -10.532  16.748  66.207  1.00  0.00    -0.292 N  
ATOM     13  H   PHE A   1     -10.054  17.322  65.513  1.00  0.00     0.000 HD 
BRANCH  12  14
ATOM     14  CA  PHE A   1     -10.982  15.409  65.813  1.00  0.00    -0.309 C  
ATOM     15  OXT PHE A   1     -11.679  16.523  63.759  1.00  0.00    -1.086 OA 
ATOM     16  C   PHE A   1     -11.675  15.509  64.448  1.00  0.00    -0.242 C  
ATOM     17  O   PHE A   1     -12.347  14.393  64.078  1.00  0.00    -0.667 OA 
BRANCH  14  18
ATOM     18  CB  PHE A   1      -9.889  14.323  65.838  1.00  0.00    -0.322 C  
BRANCH  18  19
ATOM     19  CG  PHE A   1     -10.100  13.145  66.764  1.00  0.00    -0.253 A  
ATOM     20  CD1 PHE A   1     -11.390  12.812  67.194  1.00  0.00    -0.365 A  
ATOM     21  CE1 PHE A   1     -11.609  11.708  68.018  1.00  0.00    -0.383 A  
ATOM     22  CZ  PHE A   1     -10.541  10.908  68.410  1.00  0.00    -0.225 A  
ATOM     23  CE2 PHE A   1      -9.251  11.218  67.981  1.00  0.00    -0.160 A  
ATOM     24  CD2 PHE A   1      -9.029  12.333  67.167  1.00  0.00    -0.192 A  
ENDBRANCH  18  19
ENDBRANCH  14  18
ENDBRANCH  12  14
ENDBRANCH   7  10
TORSDOF 4
ENDMDL
MODEL        9
REMARK 921   NORMALIZED FREE ENERGY PREDICTED BY IDOCK:   -6.10 KCAL/MOL
REMARK 922        TOTAL FREE ENERGY PREDICTED BY IDOCK:   -8.56 KCAL/MOL
REMARK 923 INTER-LIGAND FREE ENERGY PREDICTED BY IDOCK:   -7.82 KCAL/MOL
REMARK 924 INTRA-LIGAND FREE ENERGY PREDICTED BY IDOCK:   -0.74 KCAL/MOL
REMARK 927      BINDING AFFINITY PREDICTED BY RF-SCORE:    0.00 PKD
ROOT
HETATM    1  C   UNK A   0      -9.841  19.960  66.700  1.00  0.00    -0.555 C  
HETATM    2  C   UNK A   0      -9.752  18.740  67.624  1.00  0.00    -0.347 C  
HETATM    3  C   UNK A   0     -10.117  19.202  69.046  1.00  0.00    -0.365 C  
HETATM    4  C   UNK A   0     -10.653  17.556  67.153  1.00  0.00    -0.264 C  
HETATM    5  C   UNK A   0     -10.315  16.989  65.755  1.00  0.00    -0.275 C  
HETATM    6  C   UNK A   0      -9.059  16.103  65.708  1.00  0.00    -0.143 C  
HETATM    7  C   UNK A   0      -8.975  15.045  66.827  1.00  0.00    -0.293 C  
HETATM    8  C   UNK A   0      -9.288  15.682  68.184  1.00  0.00    -0.194 C  
HETATM    9  C   UNK A   0     -10.646  16.379  68.143  1.00  0.00    -0.318 C  
ENDROOT
BRANCH   7  10
HETATM   10  C   UNK A   0      -9.854  13.807  66.573  1.00  0.00    -0.290 C  
HETATM   11  O   UNK A   0     -10.286  13.085  67.462  1.00  0.00    -0.221 OA 
ATOM     12  N   PHE A   1     -10.155  13.590  65.245  1.00  0.00    -0.475 N  
ATOM     13  H   PHE A   1      -9.719  14.189  64.544  1.00  0.00     0.000 HD 
BRANCH  12  14
ATOM     14  CA  PHE A   1     -11.070  12.539  64.790  1.00  0.00    -0.301 C  
ATOM     15  OXT PHE A   1     -12.546  14.404  64.256  1.00  0.00    -0.676 OA 
ATOM     16  C   PHE A   1     -12.387  13.193  64.354  1.00  0.00    -0.360 C  
ATOM     17  O   PHE A   1     -13.401  12.321  64.139  1.00  0.00    -0.731 OA 
BRANCH  14  18
ATOM     18  CB  PHE A   1     -10.496  11.600  63.711  1.00  0.00    -0.454 C  
BRANCH  18  19
ATOM     19  CG  PHE A   1      -9.653  10.434  64.179  1.00  0.00    -0.381 A  
ATOM     20  CD1 PHE A   1      -9.764   9.973  65.496  1.00  0.00    -0.355 A  
ATOM     21  CE1 PHE A   1      -9.022   8.876  65.938  1.00  0.00    -0.244 A  
ATOM     22  CZ  PHE A   1      -8.170   8.213  65.060  1.00  0.00    -0.157 A  
ATOM     23  CE2 PHE A   1      -8.056   8.652  63.742  1.00  0.00    -0.163 A  
ATOM     24  CD2 PHE A   1      -8.788   9.760  63.304  1.00  0.00    -0.260 A  
ENDBRANCH  18  19
ENDBRANCH  14  18
ENDBRANCH  12  14
ENDBRANCH   7  10
TORSDOF 4
ENDMDL
MODEL       10
REMARK 921   NORMALIZED FREE ENERGY PREDICTED BY IDOCK:   -6.09 KCAL/MOL
REMARK 922        TOTAL FREE ENERGY PREDICTED BY IDOCK:   -8.54 KCAL/MOL
REMARK 923 INTER-LIGAND FREE ENERGY PREDICTED BY IDOCK:   -7.73 KCAL/MOL
REMARK 924 INTRA-LIGAND FREE ENERGY PREDICTED BY IDOCK:   -0.81 KCAL/MOL
REMARK 927      BINDING AFFINITY PREDICTED BY RF-SCORE:    0.00 PKD
ROOT
HETATM    1  C   UNK A   0      -7.347  20.636  67.346  1.00  0.00    -0.384 C  
HETATM    2  C   UNK A   0      -8.628  19.891  67.743  1.00  0.00    -0.370 C  
HETATM    3  C   UNK A   0      -9.820  20.817  67.441  1.00  0.00    -0.435 C  
HETATM    4  C   UNK A   0      -8.773  18.512  67.029  1.00  0.00    -0.278 C  
HETATM    5  C   UNK A   0      -7.646  17.496  67.327  1.00  0.00    -0.217 C  
HETATM    6  C   UNK A   0      -7.729  16.832  68.711  1.00  0.00    -0.242 C  
HETATM    7  C   UNK A   0      -9.129  16.312  69.093  1.00  0.00    -0.230 C  
HETATM    8  C   UNK A   0     -10.190  17.378  68.803  1.00  0.00    -0.361 C  
HETATM    9  C   UNK A   0     -10.111  17.822  67.344  1.00  0.00    -0.338 C  
ENDROOT
BRANCH   7  10
HETATM   10  C   UNK A   0      -9.489  14.969  68.431  1.00  0.00    -0.201 C  
HETATM   11  O   UNK A   0      -8.740  14.358  67.680  1.00  0.00    -0.170 OA 
ATOM     12  N   PHE A   1     -10.728  14.478  68.784  1.00  0.00    -0.246 N  
ATOM     13  H   PHE A   1     -11.332  15.058  69.367  1.00  0.00     0.000 HD 
BRANCH  12  14
ATOM     14  CA  PHE A   1     -11.221  13.163  68.363  1.00  0.00    -0.271 C  
ATOM     15  OXT PHE A   1     -12.073  13.031  70.644  1.00  0.00    -0.348 OA 
ATOM     16  C   PHE A   1     -11.869  12.474  69.571  1.00  0.00    -0.310 C  
ATOM     17  O   PHE A   1     -12.151  11.163  69.383  1.00  0.00    -0.333 OA 
BRANCH  14  18
ATOM     18  CB  PHE A   1     -12.148  13.181  67.132  1.00  0.00    -0.343 C  
BRANCH  18  19
ATOM     19  CG  PHE A   1     -11.601  12.614  65.840  1.00  0.00    -0.443 A  
ATOM     20  CD1 PHE A   1     -10.659  11.580  65.872  1.00  0.00    -0.318 A  
ATOM     21  CE1 PHE A   1     -10.169  11.018  64.693  1.00  0.00    -0.392 A  
ATOM     22  CZ  PHE A   1     -10.630  11.472  63.461  1.00  0.00    -0.487 A  
ATOM     23  CE2 PHE A   1     -11.577  12.494  63.411  1.00  0.00    -0.547 A  
ATOM     24  CD2 PHE A   1     -12.057  13.067  64.593  1.00  0.00    -0.463 A  
ENDBRANCH  18  19
ENDBRANCH  14  18
ENDBRANCH  12  14
ENDBRANCH   7  10
TORSDOF 4
ENDMDL
MODEL       11
REMARK 921   NORMALIZED FREE ENERGY PREDICTED BY IDOCK:   -6.02 KCAL/MOL
REMARK 922        TOTAL FREE ENERGY PREDICTED BY IDOCK:   -8.45 KCAL/MOL
REMARK 923 INTER-LIGAND FREE ENERGY PREDICTED BY IDOCK:   -7.86 KCAL/MOL
REMARK 924 INTRA-LIGAND FREE ENERGY PREDICTED BY IDOCK:   -0.59 KCAL/MOL
REMARK 927      BINDING AFFINITY PREDICTED BY RF-SCORE:    0.00 PKD
ROOT
HETATM    1  C   UNK A   0     -10.096   8.240  70.497  1.00  0.00    -0.210 C  
HETATM    2  C   UNK A   0     -10.997   9.410  70.082  1.00  0.00    -0.282 C  
HETATM    3  C   UNK A   0     -11.978   9.677  71.237  1.00  0.00    -0.462 C  
HETATM    4  C   UNK A   0     -10.191  10.690  69.702  1.00  0.00    -0.156 C  
HETATM    5  C   UNK A   0      -9.221  10.527  68.508  1.00  0.00    -0.168 C  
HETATM    6  C   UNK A   0      -9.900  10.498  67.130  1.00  0.00    -0.213 C  
HETATM    7  C   UNK A   0     -10.954  11.602  66.907  1.00  0.00    -0.342 C  
HETATM    8  C   UNK A   0     -11.898  11.685  68.110  1.00  0.00    -0.315 C  
HETATM    9  C   UNK A   0     -11.101  11.892  69.397  1.00  0.00    -0.218 C  
ENDROOT
BRANCH   7  10
HETATM   10  C   UNK A   0     -10.345  12.977  66.575  1.00  0.00    -0.274 C  
HETATM   11  O   UNK A   0      -9.142  13.185  66.487  1.00  0.00    -0.216 OA 
ATOM     12  N   PHE A   1     -11.276  13.967  66.344  1.00  0.00    -0.310 N  
ATOM     13  H   PHE A   1     -12.262  13.749  66.490  1.00  0.00     0.000 HD 
BRANCH  12  14
ATOM     14  CA  PHE A   1     -10.919  15.318  65.900  1.00  0.00    -0.325 C  
ATOM     15  OXT PHE A   1     -12.565  14.906  64.150  1.00  0.00    -0.785 OA 
ATOM     16  C   PHE A   1     -11.685  15.626  64.608  1.00  0.00    -0.190 C  
ATOM     17  O   PHE A   1     -11.268  16.741  63.962  1.00  0.00    -1.089 OA 
BRANCH  14  18
ATOM     18  CB  PHE A   1     -11.097  16.419  66.964  1.00  0.00     0.067 C  
BRANCH  18  19
ATOM     19  CG  PHE A   1     -10.171  17.614  66.889  1.00  0.00    -0.334 A  
ATOM     20  CD1 PHE A   1      -8.829  17.440  66.534  1.00  0.00    -0.290 A  
ATOM     21  CE1 PHE A   1      -7.968  18.533  66.424  1.00  0.00    -0.291 A  
ATOM     22  CZ  PHE A   1      -8.445  19.821  66.650  1.00  0.00    -0.371 A  
ATOM     23  CE2 PHE A   1      -9.782  20.013  66.993  1.00  0.00    -0.555 A  
ATOM     24  CD2 PHE A   1     -10.641  18.916  67.117  1.00  0.00    -0.531 A  
ENDBRANCH  18  19
ENDBRANCH  14  18
ENDBRANCH  12  14
ENDBRANCH   7  10
TORSDOF 4
ENDMDL
MODEL       12
REMARK 921   NORMALIZED FREE ENERGY PREDICTED BY IDOCK:   -6.01 KCAL/MOL
REMARK 922        TOTAL FREE ENERGY PREDICTED BY IDOCK:   -8.44 KCAL/MOL
REMARK 923 INTER-LIGAND FREE ENERGY PREDICTED BY IDOCK:   -7.67 KCAL/MOL
REMARK 924 INTRA-LIGAND FREE ENERGY PREDICTED BY IDOCK:   -0.77 KCAL/MOL
REMARK 927      BINDING AFFINITY PREDICTED BY RF-SCORE:    0.00 PKD
ROOT
HETATM    1  C   UNK A   0      -5.962  20.994  68.087  1.00  0.00    -0.394 C  
HETATM    2  C   UNK A   0      -6.520  19.642  68.546  1.00  0.00    -0.304 C  
HETATM    3  C   UNK A   0      -6.638  19.681  70.080  1.00  0.00    -0.245 C  
HETATM    4  C   UNK A   0      -7.882  19.288  67.871  1.00  0.00    -0.324 C  
HETATM    5  C   UNK A   0      -7.840  19.168  66.330  1.00  0.00    -0.296 C  
HETATM    6  C   UNK A   0      -7.198  17.874  65.804  1.00  0.00    -0.180 C  
HETATM    7  C   UNK A   0      -7.684  16.586  66.498  1.00  0.00    -0.323 C  
HETATM    8  C   UNK A   0      -7.668  16.764  68.020  1.00  0.00    -0.174 C  
HETATM    9  C   UNK A   0      -8.491  17.987  68.419  1.00  0.00    -0.306 C  
ENDROOT
BRANCH   7  10
HETATM   10  C   UNK A   0      -9.059  16.100  66.005  1.00  0.00    -0.318 C  
HETATM   11  O   UNK A   0      -9.894  16.833  65.489  1.00  0.00    -0.564 OA 
ATOM     12  N   PHE A   1      -9.270  14.746  66.156  1.00  0.00    -0.474 N  
ATOM     13  H   PHE A   1      -8.562  14.197  66.645  1.00  0.00     0.000 HD 
BRANCH  12  14
ATOM     14  CA  PHE A   1     -10.460  14.057  65.649  1.00  0.00    -0.318 C  
ATOM     15  OXT PHE A   1      -9.224  12.035  66.225  1.00  0.00    -0.225 OA 
ATOM     16  C   PHE A   1     -10.204  12.545  65.691  1.00  0.00    -0.267 C  
ATOM     17  O   PHE A   1     -11.123  11.802  65.031  1.00  0.00    -0.308 OA 
BRANCH  14  18
ATOM     18  CB  PHE A   1     -11.781  14.447  66.341  1.00  0.00    -0.397 C  
BRANCH  18  19
ATOM     19  CG  PHE A   1     -11.780  14.516  67.853  1.00  0.00    -0.381 A  
ATOM     20  CD1 PHE A   1     -11.640  15.750  68.498  1.00  0.00    -0.367 A  
ATOM     21  CE1 PHE A   1     -11.674  15.840  69.890  1.00  0.00    -0.365 A  
ATOM     22  CZ  PHE A   1     -11.866  14.696  70.658  1.00  0.00    -0.367 A  
ATOM     23  CE2 PHE A   1     -12.018  13.460  70.031  1.00  0.00    -0.407 A  
ATOM     24  CD2 PHE A   1     -11.970  13.368  68.636  1.00  0.00    -0.362 A  
ENDBRANCH  18  19
ENDBRANCH  14  18
ENDBRANCH  12  14
ENDBRANCH   7  10
TORSDOF 4
ENDMDL
MODEL       13
REMARK 921   NORMALIZED FREE ENERGY PREDICTED BY IDOCK:   -6.01 KCAL/MOL
REMARK 922        TOTAL FREE ENERGY PREDICTED BY IDOCK:   -8.44 KCAL/MOL
REMARK 923 INTER-LIGAND FREE ENERGY PREDICTED BY IDOCK:   -7.73 KCAL/MOL
REMARK 924 INTRA-LIGAND FREE ENERGY PREDICTED BY IDOCK:   -0.70 KCAL/MOL
REMARK 927      BINDING AFFINITY PREDICTED BY RF-SCORE:    0.00 PKD
ROOT
HETATM    1  C   UNK A   0      -9.614  10.720  62.718  1.00  0.00    -0.337 C  
HETATM    2  C   UNK A   0      -9.646  10.346  64.205  1.00  0.00    -0.381 C  
HETATM    3  C   UNK A   0      -8.567   9.275  64.441  1.00  0.00    -0.216 C  
HETATM    4  C   UNK A   0      -9.454  11.576  65.144  1.00  0.00    -0.190 C  
HETATM    5  C   UNK A   0     -10.532  12.677  65.014  1.00  0.00    -0.331 C  
HETATM    6  C   UNK A   0     -11.879  12.336  65.672  1.00  0.00    -0.423 C  
HETATM    7  C   UNK A   0     -11.772  11.759  67.098  1.00  0.00    -0.267 C  
HETATM    8  C   UNK A   0     -10.712  10.654  67.145  1.00  0.00    -0.327 C  
HETATM    9  C   UNK A   0      -9.374  11.180  66.627  1.00  0.00    -0.194 C  
ENDROOT
BRANCH   7  10
HETATM   10  C   UNK A   0     -11.518  12.827  68.178  1.00  0.00    -0.314 C  
HETATM   11  O   UNK A   0     -11.173  12.567  69.324  1.00  0.00    -0.240 OA 
ATOM     12  N   PHE A   1     -11.674  14.124  67.739  1.00  0.00    -0.353 N  
ATOM     13  H   PHE A   1     -12.019  14.277  66.792  1.00  0.00     0.000 HD 
BRANCH  12  14
ATOM     14  CA  PHE A   1     -11.369  15.294  68.568  1.00  0.00    -0.327 C  
ATOM     15  OXT PHE A   1     -10.679  16.297  66.455  1.00  0.00    -0.284 OA 
ATOM     16  C   PHE A   1     -10.741  16.374  67.677  1.00  0.00    -0.312 C  
ATOM     17  O   PHE A   1     -10.194  17.411  68.355  1.00  0.00    -0.317 OA 
BRANCH  14  18
ATOM     18  CB  PHE A   1     -12.555  15.832  69.393  1.00  0.00     0.264 C  
BRANCH  18  19
ATOM     19  CG  PHE A   1     -12.597  15.479  70.864  1.00  0.00    -0.512 A  
ATOM     20  CD1 PHE A   1     -11.743  16.125  71.765  1.00  0.00    -0.568 A  
ATOM     21  CE1 PHE A   1     -11.791  15.840  73.130  1.00  0.00    -0.521 A  
ATOM     22  CZ  PHE A   1     -12.709  14.914  73.616  1.00  0.00    -0.600 A  
ATOM     23  CE2 PHE A   1     -13.575  14.270  72.734  1.00  0.00    -0.538 A  
ATOM     24  CD2 PHE A   1     -13.517  14.545  71.364  1.00  0.00    -0.445 A  
ENDBRANCH  18  19
ENDBRANCH  14  18
ENDBRANCH  12  14
ENDBRANCH   7  10
TORSDOF 4
ENDMDL
MODEL       14
REMARK 921   NORMALIZED FREE ENERGY PREDICTED BY IDOCK:   -5.95 KCAL/MOL
REMARK 922        TOTAL FREE ENERGY PREDICTED BY IDOCK:   -8.37 KCAL/MOL
REMARK 923 INTER-LIGAND FREE ENERGY PREDICTED BY IDOCK:   -8.47 KCAL/MOL
REMARK 924 INTRA-LIGAND FREE ENERGY PREDICTED BY IDOCK:    0.10 KCAL/MOL
REMARK 927      BINDING AFFINITY PREDICTED BY RF-SCORE:    0.00 PKD
ROOT
HETATM    1  C   UNK A   0     -10.089  11.095  63.178  1.00  0.00    -0.373 C  
HETATM    2  C   UNK A   0     -10.225  10.804  64.678  1.00  0.00    -0.419 C  
HETATM    3  C   UNK A   0      -9.508   9.473  64.963  1.00  0.00    -0.273 C  
HETATM    4  C   UNK A   0      -9.674  11.958  65.571  1.00  0.00    -0.237 C  
HETATM    5  C   UNK A   0     -10.381  13.322  65.392  1.00  0.00    -0.316 C  
HETATM    6  C   UNK A   0     -11.765  13.419  66.052  1.00  0.00    -0.398 C  
HETATM    7  C   UNK A   0     -11.827  12.891  67.500  1.00  0.00    -0.407 C  
HETATM    8  C   UNK A   0     -11.139  11.526  67.597  1.00  0.00    -0.324 C  
HETATM    9  C   UNK A   0      -9.709  11.613  67.069  1.00  0.00    -0.201 C  
ENDROOT
BRANCH   7  10
HETATM   10  C   UNK A   0     -11.265  13.877  68.541  1.00  0.00    -0.270 C  
HETATM   11  O   UNK A   0     -10.112  13.847  68.953  1.00  0.00    -0.199 OA 
ATOM     12  N   PHE A   1     -12.164  14.837  68.954  1.00  0.00    -0.574 N  
ATOM     13  H   PHE A   1     -13.126  14.777  68.621  1.00  0.00     0.000 HD 
BRANCH  12  14
ATOM     14  CA  PHE A   1     -11.804  15.941  69.849  1.00  0.00    -0.300 C  
ATOM     15  OXT PHE A   1     -12.142  14.290  71.611  1.00  0.00    -0.323 OA 
ATOM     16  C   PHE A   1     -11.936  15.458  71.298  1.00  0.00    -0.374 C  
ATOM     17  O   PHE A   1     -11.866  16.442  72.226  1.00  0.00    -0.534 OA 
BRANCH  14  18
ATOM     18  CB  PHE A   1     -10.432  16.585  69.568  1.00  0.00    -0.298 C  
BRANCH  18  19
ATOM     19  CG  PHE A   1     -10.374  17.664  68.508  1.00  0.00    -0.370 A  
ATOM     20  CD1 PHE A   1     -10.141  18.994  68.873  1.00  0.00    -0.396 A  
ATOM     21  CE1 PHE A   1     -10.047  19.998  67.908  1.00  0.00    -0.559 A  
ATOM     22  CZ  PHE A   1     -10.167  19.680  66.559  1.00  0.00    -0.588 A  
ATOM     23  CE2 PHE A   1     -10.387  18.358  66.177  1.00  0.00    -0.431 A  
ATOM     24  CD2 PHE A   1     -10.496  17.355  67.145  1.00  0.00    -0.305 A  
ENDBRANCH  18  19
ENDBRANCH  14  18
ENDBRANCH  12  14
ENDBRANCH   7  10
TORSDOF 4
ENDMDL
MODEL       15
REMARK 921   NORMALIZED FREE ENERGY PREDICTED BY IDOCK:   -5.95 KCAL/MOL
REMARK 922        TOTAL FREE ENERGY PREDICTED BY IDOCK:   -8.37 KCAL/MOL
REMARK 923 INTER-LIGAND FREE ENERGY PREDICTED BY IDOCK:   -6.92 KCAL/MOL
REMARK 924 INTRA-LIGAND FREE ENERGY PREDICTED BY IDOCK:   -1.44 KCAL/MOL
REMARK 927      BINDING AFFINITY PREDICTED BY RF-SCORE:    0.00 PKD
ROOT
HETATM    1  C   UNK A   0      -8.521   8.627  71.100  1.00  0.00    -0.211 C  
HETATM    2  C   UNK A   0      -9.684   9.116  70.228  1.00  0.00    -0.248 C  
HETATM    3  C   UNK A   0     -10.842   9.502  71.165  1.00  0.00    -0.425 C  
HETATM    4  C   UNK A   0      -9.283  10.297  69.290  1.00  0.00    -0.215 C  
HETATM    5  C   UNK A   0      -8.165   9.976  68.271  1.00  0.00    -0.106 C  
HETATM    6  C   UNK A   0      -8.613   9.124  67.073  1.00  0.00    -0.127 C  
HETATM    7  C   UNK A   0      -9.923   9.589  66.406  1.00  0.00    -0.339 C  
HETATM    8  C   UNK A   0     -10.994   9.856  67.468  1.00  0.00    -0.239 C  
HETATM    9  C   UNK A   0     -10.479  10.856  68.501  1.00  0.00    -0.209 C  
ENDROOT
BRANCH   7  10
HETATM   10  C   UNK A   0      -9.744  10.801  65.473  1.00  0.00    -0.239 C  
HETATM   11  O   UNK A   0      -8.692  11.078  64.912  1.00  0.00    -0.121 OA 
ATOM     12  N   PHE A   1     -10.890  11.544  65.285  1.00  0.00    -0.280 N  
ATOM     13  H   PHE A   1     -11.721  11.300  65.825  1.00  0.00     0.000 HD 
BRANCH  12  14
ATOM     14  CA  PHE A   1     -10.973  12.669  64.348  1.00  0.00    -0.351 C  
ATOM     15  OXT PHE A   1     -13.344  12.103  64.271  1.00  0.00    -0.761 OA 
ATOM     16  C   PHE A   1     -12.412  12.765  63.827  1.00  0.00    -0.383 C  
ATOM     17  O   PHE A   1     -12.573  13.605  62.776  1.00  0.00    -0.456 OA 
BRANCH  14  18
ATOM     18  CB  PHE A   1     -10.459  14.013  64.900  1.00  0.00    -0.453 C  
BRANCH  18  19
ATOM     19  CG  PHE A   1     -10.487  14.205  66.401  1.00  0.00    -0.283 A  
ATOM     20  CD1 PHE A   1     -11.710  14.289  67.075  1.00  0.00    -0.427 A  
ATOM     21  CE1 PHE A   1     -11.758  14.429  68.463  1.00  0.00    -0.370 A  
ATOM     22  CZ  PHE A   1     -10.578  14.470  69.199  1.00  0.00    -0.242 A  
ATOM     23  CE2 PHE A   1      -9.351  14.376  68.545  1.00  0.00    -0.204 A  
ATOM     24  CD2 PHE A   1      -9.303  14.250  67.153  1.00  0.00    -0.233 A  
ENDBRANCH  18  19
ENDBRANCH  14  18
ENDBRANCH  12  14
ENDBRANCH   7  10
TORSDOF 4
ENDMDL
MODEL       16
REMARK 921   NORMALIZED FREE ENERGY PREDICTED BY IDOCK:   -5.94 KCAL/MOL
REMARK 922        TOTAL FREE ENERGY PREDICTED BY IDOCK:   -8.36 KCAL/MOL
REMARK 923 INTER-LIGAND FREE ENERGY PREDICTED BY IDOCK:   -7.75 KCAL/MOL
REMARK 924 INTRA-LIGAND FREE ENERGY PREDICTED BY IDOCK:   -0.62 KCAL/MOL
REMARK 927      BINDING AFFINITY PREDICTED BY RF-SCORE:    0.00 PKD
ROOT
HETATM    1  C   UNK A   0     -12.838  10.946  71.808  1.00  0.00    -0.509 C  
HETATM    2  C   UNK A   0     -11.758  10.588  70.779  1.00  0.00    -0.454 C  
HETATM    3  C   UNK A   0     -11.621   9.056  70.759  1.00  0.00    -0.313 C  
HETATM    4  C   UNK A   0     -12.060  11.159  69.359  1.00  0.00    -0.396 C  
HETATM    5  C   UNK A   0     -12.155  12.701  69.277  1.00  0.00    -0.218 C  
HETATM    6  C   UNK A   0     -10.803  13.430  69.325  1.00  0.00    -0.085 C  
HETATM    7  C   UNK A   0      -9.719  12.840  68.400  1.00  0.00    -0.186 C  
HETATM    8  C   UNK A   0      -9.658  11.317  68.557  1.00  0.00    -0.199 C  
HETATM    9  C   UNK A   0     -11.034  10.703  68.309  1.00  0.00    -0.314 C  
ENDROOT
BRANCH   7  10
HETATM   10  C   UNK A   0      -9.882  13.245  66.923  1.00  0.00    -0.247 C  
HETATM   11  O   UNK A   0      -9.546  12.536  65.982  1.00  0.00    -0.248 OA 
ATOM     12  N   PHE A   1     -10.479  14.473  66.735  1.00  0.00    -0.268 N  
ATOM     13  H   PHE A   1     -10.684  15.043  67.556  1.00  0.00     0.000 HD 
BRANCH  12  14
ATOM     14  CA  PHE A   1     -10.835  14.999  65.415  1.00  0.00    -0.364 C  
ATOM     15  OXT PHE A   1     -12.970  13.896  65.827  1.00  0.00    -0.506 OA 
ATOM     16  C   PHE A   1     -12.237  14.495  65.048  1.00  0.00    -0.373 C  
ATOM     17  O   PHE A   1     -12.589  14.708  63.758  1.00  0.00    -0.820 OA 
BRANCH  14  18
ATOM     18  CB  PHE A   1     -10.707  16.529  65.269  1.00  0.00    -0.269 C  
BRANCH  18  19
ATOM     19  CG  PHE A   1      -9.950  17.269  66.350  1.00  0.00    -0.319 A  
ATOM     20  CD1 PHE A   1     -10.644  17.858  67.414  1.00  0.00    -0.370 A  
ATOM     21  CE1 PHE A   1      -9.963  18.513  68.440  1.00  0.00    -0.414 A  
ATOM     22  CZ  PHE A   1      -8.573  18.574  68.426  1.00  0.00    -0.355 A  
ATOM     23  CE2 PHE A   1      -7.866  17.983  67.381  1.00  0.00    -0.223 A  
ATOM     24  CD2 PHE A   1      -8.549  17.338  66.345  1.00  0.00    -0.294 A  
ENDBRANCH  18  19
ENDBRANCH  14  18
ENDBRANCH  12  14
ENDBRANCH   7  10
TORSDOF 4
ENDMDL
MODEL       17
REMARK 921   NORMALIZED FREE ENERGY PREDICTED BY IDOCK:   -5.94 KCAL/MOL
REMARK 922        TOTAL FREE ENERGY PREDICTED BY IDOCK:   -8.35 KCAL/MOL
REMARK 923 INTER-LIGAND FREE ENERGY PREDICTED BY IDOCK:   -8.05 KCAL/MOL
REMARK 924 INTRA-LIGAND FREE ENERGY PREDICTED BY IDOCK:   -0.30 KCAL/MOL
REMARK 927      BINDING AFFINITY PREDICTED BY RF-SCORE:    0.00 PKD
ROOT
HETATM    1  C   UNK A   0      -5.988  20.640  69.177  1.00  0.00    -0.371 C  
HETATM    2  C   UNK A   0      -6.829  20.446  67.909  1.00  0.00    -0.336 C  
HETATM    3  C   UNK A   0      -6.082  21.121  66.745  1.00  0.00    -0.369 C  
HETATM    4  C   UNK A   0      -7.133  18.947  67.607  1.00  0.00    -0.230 C  
HETATM    5  C   UNK A   0      -7.936  18.205  68.701  1.00  0.00    -0.301 C  
HETATM    6  C   UNK A   0      -9.435  18.543  68.737  1.00  0.00    -0.334 C  
HETATM    7  C   UNK A   0     -10.132  18.529  67.362  1.00  0.00    -0.377 C  
HETATM    8  C   UNK A   0      -9.300  19.307  66.337  1.00  0.00    -0.399 C  
HETATM    9  C   UNK A   0      -7.879  18.752  66.276  1.00  0.00    -0.295 C  
ENDROOT
BRANCH   7  10
HETATM   10  C   UNK A   0     -10.466  17.114  66.854  1.00  0.00    -0.274 C  
HETATM   11  O   UNK A   0     -10.228  16.725  65.717  1.00  0.00    -0.461 OA 
ATOM     12  N   PHE A   1     -11.029  16.290  67.805  1.00  0.00    -0.314 N  
ATOM     13  H   PHE A   1     -11.257  16.686  68.717  1.00  0.00     0.000 HD 
BRANCH  12  14
ATOM     14  CA  PHE A   1     -11.317  14.872  67.570  1.00  0.00    -0.342 C  
ATOM     15  OXT PHE A   1     -12.042  14.892  69.897  1.00  0.00    -0.305 OA 
ATOM     16  C   PHE A   1     -11.794  14.245  68.886  1.00  0.00    -0.336 C  
ATOM     17  O   PHE A   1     -11.864  12.892  68.869  1.00  0.00    -0.302 OA 
BRANCH  14  18
ATOM     18  CB  PHE A   1     -12.283  14.590  66.402  1.00  0.00    -0.274 C  
BRANCH  18  19
ATOM     19  CG  PHE A   1     -11.861  13.554  65.384  1.00  0.00    -0.379 A  
ATOM     20  CD1 PHE A   1     -12.827  12.790  64.718  1.00  0.00    -0.374 A  
ATOM     21  CE1 PHE A   1     -12.460  11.855  63.749  1.00  0.00    -0.537 A  
ATOM     22  CZ  PHE A   1     -11.119  11.684  63.419  1.00  0.00    -0.422 A  
ATOM     23  CE2 PHE A   1     -10.146  12.444  64.063  1.00  0.00    -0.342 A  
ATOM     24  CD2 PHE A   1     -10.512  13.371  65.045  1.00  0.00    -0.378 A  
ENDBRANCH  18  19
ENDBRANCH  14  18
ENDBRANCH  12  14
ENDBRANCH   7  10
TORSDOF 4
ENDMDL
MODEL       18
REMARK 921   NORMALIZED FREE ENERGY PREDICTED BY IDOCK:   -5.86 KCAL/MOL
REMARK 922        TOTAL FREE ENERGY PREDICTED BY IDOCK:   -8.25 KCAL/MOL
REMARK 923 INTER-LIGAND FREE ENERGY PREDICTED BY IDOCK:   -8.37 KCAL/MOL
REMARK 924 INTRA-LIGAND FREE ENERGY PREDICTED BY IDOCK:    0.12 KCAL/MOL
REMARK 927      BINDING AFFINITY PREDICTED BY RF-SCORE:    0.00 PKD
ROOT
HETATM    1  C   UNK A   0     -10.436   4.054  72.638  1.00  0.00    -0.222 C  
HETATM    2  C   UNK A   0     -10.101   5.016  71.491  1.00  0.00    -0.263 C  
HETATM    3  C   UNK A   0      -9.782   4.167  70.247  1.00  0.00    -0.277 C  
HETATM    4  C   UNK A   0     -11.240   6.044  71.210  1.00  0.00    -0.323 C  
HETATM    5  C   UNK A   0     -11.585   6.981  72.392  1.00  0.00    -0.284 C  
HETATM    6  C   UNK A   0     -10.571   8.110  72.632  1.00  0.00    -0.414 C  
HETATM    7  C   UNK A   0     -10.141   8.871  71.362  1.00  0.00    -0.379 C  
HETATM    8  C   UNK A   0      -9.783   7.884  70.247  1.00  0.00    -0.183 C  
HETATM    9  C   UNK A   0     -10.948   6.930  69.988  1.00  0.00    -0.320 C  
ENDROOT
BRANCH   7  10
HETATM   10  C   UNK A   0     -11.176   9.907  70.883  1.00  0.00    -0.360 C  
HETATM   11  O   UNK A   0     -12.354   9.894  71.216  1.00  0.00    -0.326 OA 
ATOM     12  N   PHE A   1     -10.658  10.889  70.067  1.00  0.00    -0.439 N  
ATOM     13  H   PHE A   1      -9.683  10.814  69.777  1.00  0.00     0.000 HD 
BRANCH  12  14
ATOM     14  CA  PHE A   1     -11.440  12.035  69.594  1.00  0.00    -0.252 C  
ATOM     15  OXT PHE A   1     -11.669  10.717  67.555  1.00  0.00    -0.510 OA 
ATOM     16  C   PHE A   1     -11.844  11.783  68.136  1.00  0.00    -0.254 C  
ATOM     17  O   PHE A   1     -12.362  12.863  67.503  1.00  0.00    -0.249 OA 
BRANCH  14  18
ATOM     18  CB  PHE A   1     -12.645  12.409  70.479  1.00  0.00    -0.169 C  
BRANCH  18  19
ATOM     19  CG  PHE A   1     -12.532  13.666  71.314  1.00  0.00    -0.412 A  
ATOM     20  CD1 PHE A   1     -11.779  14.751  70.849  1.00  0.00    -0.360 A  
ATOM     21  CE1 PHE A   1     -11.692  15.933  71.586  1.00  0.00    -0.563 A  
ATOM     22  CZ  PHE A   1     -12.373  16.053  72.793  1.00  0.00    -0.603 A  
ATOM     23  CE2 PHE A   1     -13.136  14.986  73.265  1.00  0.00    -0.607 A  
ATOM     24  CD2 PHE A   1     -13.212  13.797  72.534  1.00  0.00    -0.599 A  
ENDBRANCH  18  19
ENDBRANCH  14  18
ENDBRANCH  12  14
ENDBRANCH   7  10
TORSDOF 4
ENDMDL
MODEL       19
REMARK 921   NORMALIZED FREE ENERGY PREDICTED BY IDOCK:   -5.84 KCAL/MOL
REMARK 922        TOTAL FREE ENERGY PREDICTED BY IDOCK:   -8.24 KCAL/MOL
REMARK 923 INTER-LIGAND FREE ENERGY PREDICTED BY IDOCK:   -7.61 KCAL/MOL
REMARK 924 INTRA-LIGAND FREE ENERGY PREDICTED BY IDOCK:   -0.63 KCAL/MOL
REMARK 927      BINDING AFFINITY PREDICTED BY RF-SCORE:    0.00 PKD
ROOT
HETATM    1  C   UNK A   0      -9.321  16.995  66.264  1.00  0.00    -0.276 C  
HETATM    2  C   UNK A   0     -10.468  15.990  66.098  1.00  0.00    -0.334 C  
HETATM    3  C   UNK A   0     -11.054  16.177  64.688  1.00  0.00    -0.310 C  
HETATM    4  C   UNK A   0     -10.024  14.516  66.348  1.00  0.00    -0.304 C  
HETATM    5  C   UNK A   0      -9.478  14.225  67.765  1.00  0.00    -0.216 C  
HETATM    6  C   UNK A   0     -10.552  14.127  68.859  1.00  0.00    -0.249 C  
HETATM    7  C   UNK A   0     -11.771  13.257  68.490  1.00  0.00    -0.388 C  
HETATM    8  C   UNK A   0     -12.279  13.621  67.092  1.00  0.00    -0.340 C  
HETATM    9  C   UNK A   0     -11.149  13.505  66.070  1.00  0.00    -0.300 C  
ENDROOT
BRANCH   7  10
HETATM   10  C   UNK A   0     -11.509  11.745  68.616  1.00  0.00    -0.288 C  
HETATM   11  O   UNK A   0     -11.959  10.910  67.841  1.00  0.00    -0.585 OA 
ATOM     12  N   PHE A   1     -10.685  11.398  69.665  1.00  0.00    -0.455 N  
ATOM     13  H   PHE A   1     -10.389  12.130  70.312  1.00  0.00     0.000 HD 
BRANCH  12  14
ATOM     14  CA  PHE A   1     -10.213  10.030  69.898  1.00  0.00    -0.260 C  
ATOM     15  OXT PHE A   1      -8.044  10.936  69.251  1.00  0.00    -0.136 OA 
ATOM     16  C   PHE A   1      -8.727   9.956  69.528  1.00  0.00    -0.190 C  
ATOM     17  O   PHE A   1      -8.226   8.699  69.467  1.00  0.00    -0.110 OA 
BRANCH  14  18
ATOM     18  CB  PHE A   1     -10.494   9.478  71.310  1.00  0.00    -0.320 C  
BRANCH  18  19
ATOM     19  CG  PHE A   1     -11.829   8.803  71.540  1.00  0.00    -0.377 A  
ATOM     20  CD1 PHE A   1     -12.898   9.529  72.078  1.00  0.00    -0.499 A  
ATOM     21  CE1 PHE A   1     -14.147   8.936  72.264  1.00  0.00    -0.512 A  
ATOM     22  CZ  PHE A   1     -14.349   7.609  71.897  1.00  0.00    -0.536 A  
ATOM     23  CE2 PHE A   1     -13.299   6.875  71.349  1.00  0.00    -0.267 A  
ATOM     24  CD2 PHE A   1     -12.043   7.466  71.176  1.00  0.00    -0.357 A  
ENDBRANCH  18  19
ENDBRANCH  14  18
ENDBRANCH  12  14
ENDBRANCH   7  10
TORSDOF 4
ENDMDL
MODEL       20
REMARK 921   NORMALIZED FREE ENERGY PREDICTED BY IDOCK:   -5.81 KCAL/MOL
REMARK 922        TOTAL FREE ENERGY PREDICTED BY IDOCK:   -8.19 KCAL/MOL
REMARK 923 INTER-LIGAND FREE ENERGY PREDICTED BY IDOCK:   -7.63 KCAL/MOL
REMARK 924 INTRA-LIGAND FREE ENERGY PREDICTED BY IDOCK:   -0.56 KCAL/MOL
REMARK 927      BINDING AFFINITY PREDICTED BY RF-SCORE:    0.00 PKD
ROOT
HETATM    1  C   UNK A   0     -11.771   4.875  72.910  1.00  0.00    -0.172 C  
HETATM    2  C   UNK A   0     -10.914   6.028  72.373  1.00  0.00    -0.303 C  
HETATM    3  C   UNK A   0      -9.524   5.460  72.036  1.00  0.00    -0.172 C  
HETATM    4  C   UNK A   0     -11.559   6.741  71.144  1.00  0.00    -0.377 C  
HETATM    5  C   UNK A   0     -12.935   7.394  71.411  1.00  0.00    -0.403 C  
HETATM    6  C   UNK A   0     -12.878   8.714  72.196  1.00  0.00    -0.442 C  
HETATM    7  C   UNK A   0     -11.819   9.717  71.694  1.00  0.00    -0.457 C  
HETATM    8  C   UNK A   0     -10.476   9.011  71.483  1.00  0.00    -0.410 C  
HETATM    9  C   UNK A   0     -10.645   7.820  70.541  1.00  0.00    -0.226 C  
ENDROOT
BRANCH   7  10
HETATM   10  C   UNK A   0     -12.250  10.489  70.433  1.00  0.00    -0.328 C  
HETATM   11  O   UNK A   0     -13.336  10.345  69.886  1.00  0.00     0.060 OA 
ATOM     12  N   PHE A   1     -11.319  11.399  69.981  1.00  0.00    -0.474 N  
ATOM     13  H   PHE A   1     -10.410  11.433  70.442  1.00  0.00     0.000 HD 
BRANCH  12  14
ATOM     14  CA  PHE A   1     -11.570  12.320  68.868  1.00  0.00    -0.316 C  
ATOM     15  OXT PHE A   1     -11.778  13.993  70.630  1.00  0.00    -0.264 OA 
ATOM     16  C   PHE A   1     -11.891  13.705  69.443  1.00  0.00    -0.339 C  
ATOM     17  O   PHE A   1     -12.377  14.589  68.539  1.00  0.00    -0.170 OA 
BRANCH  14  18
ATOM     18  CB  PHE A   1     -10.457  12.371  67.803  1.00  0.00    -0.231 C  
BRANCH  18  19
ATOM     19  CG  PHE A   1     -10.868  12.194  66.358  1.00  0.00    -0.306 A  
ATOM     20  CD1 PHE A   1     -10.129  11.356  65.516  1.00  0.00    -0.293 A  
ATOM     21  CE1 PHE A   1     -10.512  11.151  64.190  1.00  0.00    -0.442 A  
ATOM     22  CZ  PHE A   1     -11.655  11.770  63.692  1.00  0.00    -0.521 A  
ATOM     23  CE2 PHE A   1     -12.409  12.598  64.520  1.00  0.00    -0.537 A  
ATOM     24  CD2 PHE A   1     -12.017  12.815  65.845  1.00  0.00    -0.506 A  
ENDBRANCH  18  19
ENDBRANCH  14  18
ENDBRANCH  12  14
ENDBRANCH   7  10
TORSDOF 4
ENDMDL
MODEL       21
REMARK 921   NORMALIZED FREE ENERGY PREDICTED BY IDOCK:   -5.80 KCAL/MOL
REMARK 922        TOTAL FREE ENERGY PREDICTED BY IDOCK:   -8.18 KCAL/MOL
REMARK 923 INTER-LIGAND FREE ENERGY PREDICTED BY IDOCK:   -7.17 KCAL/MOL
REMARK 924 INTRA-LIGAND FREE ENERGY PREDICTED BY IDOCK:   -1.01 KCAL/MOL
REMARK 927      BINDING AFFINITY PREDICTED BY RF-SCORE:    0.00 PKD
ROOT
HETATM    1  C   UNK A   0      -8.379  19.861  67.569  1.00  0.00    -0.366 C  
HETATM    2  C   UNK A   0      -9.543  18.863  67.533  1.00  0.00    -0.347 C  
HETATM    3  C   UNK A   0     -10.650  19.468  66.652  1.00  0.00    -0.583 C  
HETATM    4  C   UNK A   0      -9.115  17.449  67.032  1.00  0.00    -0.251 C  
HETATM    5  C   UNK A   0      -8.045  16.741  67.897  1.00  0.00    -0.189 C  
HETATM    6  C   UNK A   0      -8.572  16.157  69.217  1.00  0.00    -0.191 C  
HETATM    7  C   UNK A   0      -9.879  15.348  69.088  1.00  0.00    -0.247 C  
HETATM    8  C   UNK A   0     -10.901  16.121  68.249  1.00  0.00    -0.326 C  
HETATM    9  C   UNK A   0     -10.306  16.487  66.891  1.00  0.00    -0.300 C  
ENDROOT
BRANCH   7  10
HETATM   10  C   UNK A   0      -9.670  13.922  68.543  1.00  0.00    -0.202 C  
HETATM   11  O   UNK A   0      -8.684  13.575  67.906  1.00  0.00    -0.162 OA 
ATOM     12  N   PHE A   1     -10.679  13.040  68.866  1.00  0.00    -0.374 N  
ATOM     13  H   PHE A   1     -11.502  13.400  69.348  1.00  0.00     0.000 HD 
BRANCH  12  14
ATOM     14  CA  PHE A   1     -10.626  11.609  68.549  1.00  0.00    -0.215 C  
ATOM     15  OXT PHE A   1     -11.829  11.356  70.655  1.00  0.00    -0.338 OA 
ATOM     16  C   PHE A   1     -11.246  10.828  69.715  1.00  0.00    -0.297 C  
ATOM     17  O   PHE A   1     -11.045   9.489  69.661  1.00  0.00    -0.234 OA 
BRANCH  14  18
ATOM     18  CB  PHE A   1     -11.242  11.222  67.191  1.00  0.00    -0.344 C  
BRANCH  18  19
ATOM     19  CG  PHE A   1     -11.456  12.330  66.182  1.00  0.00    -0.429 A  
ATOM     20  CD1 PHE A   1     -10.609  12.441  65.073  1.00  0.00    -0.330 A  
ATOM     21  CE1 PHE A   1     -10.811  13.433  64.113  1.00  0.00    -0.313 A  
ATOM     22  CZ  PHE A   1     -11.877  14.319  64.239  1.00  0.00    -0.401 A  
ATOM     23  CE2 PHE A   1     -12.737  14.214  65.331  1.00  0.00    -0.453 A  
ATOM     24  CD2 PHE A   1     -12.526  13.229  66.302  1.00  0.00    -0.283 A  
ENDBRANCH  18  19
ENDBRANCH  14  18
ENDBRANCH  12  14
ENDBRANCH   7  10
TORSDOF 4
ENDMDL
MODEL       22
REMARK 921   NORMALIZED FREE ENERGY PREDICTED BY IDOCK:   -5.77 KCAL/MOL
REMARK 922        TOTAL FREE ENERGY PREDICTED BY IDOCK:   -8.15 KCAL/MOL
REMARK 923 INTER-LIGAND FREE ENERGY PREDICTED BY IDOCK:   -7.35 KCAL/MOL
REMARK 924 INTRA-LIGAND FREE ENERGY PREDICTED BY IDOCK:   -0.79 KCAL/MOL
REMARK 927      BINDING AFFINITY PREDICTED BY RF-SCORE:    0.00 PKD
ROOT
HETATM    1  C   UNK A   0      -8.669   7.621  71.314  1.00  0.00    -0.137 C  
HETATM    2  C   UNK A   0      -9.848   8.459  70.804  1.00  0.00    -0.215 C  
HETATM    3  C   UNK A   0     -10.772   8.741  72.001  1.00  0.00    -0.417 C  
HETATM    4  C   UNK A   0      -9.396   9.775  70.100  1.00  0.00    -0.261 C  
HETATM    5  C   UNK A   0      -8.511   9.581  68.847  1.00  0.00    -0.123 C  
HETATM    6  C   UNK A   0      -9.268   9.123  67.591  1.00  0.00    -0.143 C  
HETATM    7  C   UNK A   0     -10.565   9.904  67.299  1.00  0.00    -0.316 C  
HETATM    8  C   UNK A   0     -11.407  10.030  68.573  1.00  0.00    -0.115 C  
HETATM    9  C   UNK A   0     -10.584  10.664  69.693  1.00  0.00    -0.260 C  
ENDROOT
BRANCH   7  10
HETATM   10  C   UNK A   0     -10.323  11.279  66.649  1.00  0.00    -0.237 C  
HETATM   11  O   UNK A   0      -9.247  11.631  66.182  1.00  0.00    -0.215 OA 
ATOM     12  N   PHE A   1     -11.440  12.085  66.597  1.00  0.00    -0.352 N  
ATOM     13  H   PHE A   1     -12.293  11.762  67.055  1.00  0.00     0.000 HD 
BRANCH  12  14
ATOM     14  CA  PHE A   1     -11.463  13.384  65.918  1.00  0.00    -0.321 C  
ATOM     15  OXT PHE A   1     -13.240  12.374  64.588  1.00  0.00    -0.822 OA 
ATOM     16  C   PHE A   1     -12.476  13.316  64.768  1.00  0.00    -0.383 C  
ATOM     17  O   PHE A   1     -12.423  14.365  63.913  1.00  0.00    -0.798 OA 
BRANCH  14  18
ATOM     18  CB  PHE A   1     -11.703  14.595  66.841  1.00  0.00    -0.366 C  
BRANCH  18  19
ATOM     19  CG  PHE A   1     -10.551  15.554  67.043  1.00  0.00    -0.311 A  
ATOM     20  CD1 PHE A   1      -9.426  15.485  66.214  1.00  0.00    -0.356 A  
ATOM     21  CE1 PHE A   1      -8.369  16.384  66.360  1.00  0.00    -0.363 A  
ATOM     22  CZ  PHE A   1      -8.431  17.380  67.329  1.00  0.00    -0.220 A  
ATOM     23  CE2 PHE A   1      -9.549  17.471  68.156  1.00  0.00    -0.294 A  
ATOM     24  CD2 PHE A   1     -10.603  16.561  68.019  1.00  0.00    -0.328 A  
ENDBRANCH  18  19
ENDBRANCH  14  18
ENDBRANCH  12  14
ENDBRANCH   7  10
TORSDOF 4
ENDMDL
MODEL       23
REMARK 921   NORMALIZED FREE ENERGY PREDICTED BY IDOCK:   -5.75 KCAL/MOL
REMARK 922        TOTAL FREE ENERGY PREDICTED BY IDOCK:   -8.12 KCAL/MOL
REMARK 923 INTER-LIGAND FREE ENERGY PREDICTED BY IDOCK:   -7.59 KCAL/MOL
REMARK 924 INTRA-LIGAND FREE ENERGY PREDICTED BY IDOCK:   -0.53 KCAL/MOL
REMARK 927      BINDING AFFINITY PREDICTED BY RF-SCORE:    0.00 PKD
ROOT
HETATM    1  C   UNK A   0      -8.384   8.677  68.110  1.00  0.00    -0.127 C  
HETATM    2  C   UNK A   0      -9.515   9.290  67.274  1.00  0.00    -0.181 C  
HETATM    3  C   UNK A   0     -10.473   8.152  66.878  1.00  0.00    -0.379 C  
HETATM    4  C   UNK A   0     -10.261  10.441  68.015  1.00  0.00    -0.199 C  
HETATM    5  C   UNK A   0      -9.383  11.655  68.397  1.00  0.00    -0.191 C  
HETATM    6  C   UNK A   0      -9.029  12.586  67.226  1.00  0.00    -0.192 C  
HETATM    7  C   UNK A   0     -10.219  12.961  66.319  1.00  0.00    -0.285 C  
HETATM    8  C   UNK A   0     -11.024  11.710  65.954  1.00  0.00    -0.334 C  
HETATM    9  C   UNK A   0     -11.464  10.974  67.217  1.00  0.00    -0.164 C  
ENDROOT
BRANCH   7  10
HETATM   10  C   UNK A   0     -11.124  14.057  66.912  1.00  0.00    -0.304 C  
HETATM   11  O   UNK A   0     -12.234  14.332  66.475  1.00  0.00    -0.441 OA 
ATOM     12  N   PHE A   1     -10.596  14.692  68.016  1.00  0.00    -0.238 N  
ATOM     13  H   PHE A   1      -9.643  14.461  68.298  1.00  0.00     0.000 HD 
BRANCH  12  14
ATOM     14  CA  PHE A   1     -11.336  15.682  68.803  1.00  0.00    -0.349 C  
ATOM     15  OXT PHE A   1     -11.837  13.785  70.251  1.00  0.00    -0.299 OA 
ATOM     16  C   PHE A   1     -12.031  14.962  69.965  1.00  0.00    -0.329 C  
ATOM     17  O   PHE A   1     -12.939  15.716  70.629  1.00  0.00    -0.463 OA 
BRANCH  14  18
ATOM     18  CB  PHE A   1     -10.502  16.889  69.277  1.00  0.00    -0.319 C  
BRANCH  18  19
ATOM     19  CG  PHE A   1     -10.263  18.003  68.281  1.00  0.00    -0.402 A  
ATOM     20  CD1 PHE A   1     -10.513  17.793  66.920  1.00  0.00    -0.308 A  
ATOM     21  CE1 PHE A   1     -10.334  18.818  65.991  1.00  0.00    -0.467 A  
ATOM     22  CZ  PHE A   1      -9.919  20.077  66.414  1.00  0.00    -0.601 A  
ATOM     23  CE2 PHE A   1      -9.677  20.307  67.767  1.00  0.00    -0.520 A  
ATOM     24  CD2 PHE A   1      -9.842  19.275  68.697  1.00  0.00    -0.500 A  
ENDBRANCH  18  19
ENDBRANCH  14  18
ENDBRANCH  12  14
ENDBRANCH   7  10
TORSDOF 4
ENDMDL
MODEL       24
REMARK 921   NORMALIZED FREE ENERGY PREDICTED BY IDOCK:   -5.73 KCAL/MOL
REMARK 922        TOTAL FREE ENERGY PREDICTED BY IDOCK:   -8.09 KCAL/MOL
REMARK 923 INTER-LIGAND FREE ENERGY PREDICTED BY IDOCK:   -7.40 KCAL/MOL
REMARK 924 INTRA-LIGAND FREE ENERGY PREDICTED BY IDOCK:   -0.69 KCAL/MOL
REMARK 927      BINDING AFFINITY PREDICTED BY RF-SCORE:    0.00 PKD
ROOT
HETATM    1  C   UNK A   0     -10.015   4.584  70.614  1.00  0.00    -0.273 C  
HETATM    2  C   UNK A   0      -9.629   6.067  70.552  1.00  0.00    -0.198 C  
HETATM    3  C   UNK A   0      -8.308   6.173  69.770  1.00  0.00    -0.124 C  
HETATM    4  C   UNK A   0     -10.745   6.957  69.924  1.00  0.00    -0.278 C  
HETATM    5  C   UNK A   0     -12.092   6.956  70.684  1.00  0.00    -0.363 C  
HETATM    6  C   UNK A   0     -12.101   7.788  71.976  1.00  0.00    -0.351 C  
HETATM    7  C   UNK A   0     -11.484   9.194  71.842  1.00  0.00    -0.423 C  
HETATM    8  C   UNK A   0     -10.140   9.117  71.111  1.00  0.00    -0.384 C  
HETATM    9  C   UNK A   0     -10.308   8.423  69.761  1.00  0.00    -0.216 C  
ENDROOT
BRANCH   7  10
HETATM   10  C   UNK A   0     -12.423  10.219  71.179  1.00  0.00    -0.391 C  
HETATM   11  O   UNK A   0     -13.558   9.957  70.801  1.00  0.00    -0.249 OA 
ATOM     12  N   PHE A   1     -11.894  11.488  71.076  1.00  0.00    -0.250 N  
ATOM     13  H   PHE A   1     -10.924  11.633  71.353  1.00  0.00     0.000 HD 
BRANCH  12  14
ATOM     14  CA  PHE A   1     -12.658  12.639  70.585  1.00  0.00    -0.160 C  
ATOM     15  OXT PHE A   1     -13.062  13.061  72.952  1.00  0.00    -0.239 OA 
ATOM     16  C   PHE A   1     -13.305  13.343  71.784  1.00  0.00    -0.394 C  
ATOM     17  O   PHE A   1     -14.230  14.276  71.454  1.00  0.00    -0.333 OA 
BRANCH  14  18
ATOM     18  CB  PHE A   1     -11.863  13.613  69.693  1.00  0.00    -0.396 C  
BRANCH  18  19
ATOM     19  CG  PHE A   1     -11.782  13.294  68.216  1.00  0.00    -0.388 A  
ATOM     20  CD1 PHE A   1     -11.915  14.317  67.269  1.00  0.00    -0.439 A  
ATOM     21  CE1 PHE A   1     -11.807  14.050  65.904  1.00  0.00    -0.395 A  
ATOM     22  CZ  PHE A   1     -11.544  12.755  65.466  1.00  0.00    -0.400 A  
ATOM     23  CE2 PHE A   1     -11.396  11.727  66.396  1.00  0.00    -0.361 A  
ATOM     24  CD2 PHE A   1     -11.519  11.992  67.764  1.00  0.00    -0.394 A  
ENDBRANCH  18  19
ENDBRANCH  14  18
ENDBRANCH  12  14
ENDBRANCH   7  10
TORSDOF 4
ENDMDL
MODEL       25
REMARK 921   NORMALIZED FREE ENERGY PREDICTED BY IDOCK:   -5.71 KCAL/MOL
REMARK 922        TOTAL FREE ENERGY PREDICTED BY IDOCK:   -8.07 KCAL/MOL
REMARK 923 INTER-LIGAND FREE ENERGY PREDICTED BY IDOCK:   -7.45 KCAL/MOL
REMARK 924 INTRA-LIGAND FREE ENERGY PREDICTED BY IDOCK:   -0.62 KCAL/MOL
REMARK 927      BINDING AFFINITY PREDICTED BY RF-SCORE:    0.00 PKD
ROOT
HETATM    1  C   UNK A   0      -6.954  18.546  66.081  1.00  0.00    -0.295 C  
HETATM    2  C   UNK A   0      -8.284  18.575  66.844  1.00  0.00    -0.266 C  
HETATM    3  C   UNK A   0      -9.063  19.817  66.377  1.00  0.00    -0.452 C  
HETATM    4  C   UNK A   0      -9.116  17.268  66.660  1.00  0.00    -0.286 C  
HETATM    5  C   UNK A   0      -8.430  15.976  67.160  1.00  0.00    -0.223 C  
HETATM    6  C   UNK A   0      -8.423  15.803  68.687  1.00  0.00    -0.193 C  
HETATM    7  C   UNK A   0      -9.777  16.073  69.373  1.00  0.00    -0.248 C  
HETATM    8  C   UNK A   0     -10.382  17.381  68.856  1.00  0.00    -0.340 C  
HETATM    9  C   UNK A   0     -10.497  17.348  67.334  1.00  0.00    -0.336 C  
ENDROOT
BRANCH   7  10
HETATM   10  C   UNK A   0     -10.775  14.906  69.249  1.00  0.00    -0.249 C  
HETATM   11  O   UNK A   0     -11.991  15.047  69.258  1.00  0.00    -0.307 OA 
ATOM     12  N   PHE A   1     -10.184  13.671  69.086  1.00  0.00    -0.430 N  
ATOM     13  H   PHE A   1      -9.167  13.608  69.145  1.00  0.00     0.000 HD 
BRANCH  12  14
ATOM     14  CA  PHE A   1     -10.945  12.444  68.833  1.00  0.00    -0.223 C  
ATOM     15  OXT PHE A   1     -10.579  13.002  66.487  1.00  0.00    -0.277 OA 
ATOM     16  C   PHE A   1     -11.133  12.290  67.318  1.00  0.00    -0.275 C  
ATOM     17  O   PHE A   1     -12.020  11.331  66.958  1.00  0.00    -0.401 OA 
BRANCH  14  18
ATOM     18  CB  PHE A   1     -10.363  11.174  69.483  1.00  0.00    -0.018 C  
BRANCH  18  19
ATOM     19  CG  PHE A   1     -11.257  10.407  70.433  1.00  0.00    -0.399 A  
ATOM     20  CD1 PHE A   1     -10.732   9.361  71.200  1.00  0.00    -0.417 A  
ATOM     21  CE1 PHE A   1     -11.530   8.665  72.109  1.00  0.00    -0.443 A  
ATOM     22  CZ  PHE A   1     -12.865   9.020  72.276  1.00  0.00    -0.474 A  
ATOM     23  CE2 PHE A   1     -13.402  10.067  71.529  1.00  0.00    -0.451 A  
ATOM     24  CD2 PHE A   1     -12.605  10.755  70.608  1.00  0.00    -0.446 A  
ENDBRANCH  18  19
ENDBRANCH  14  18
ENDBRANCH  12  14
ENDBRANCH   7  10
TORSDOF 4
ENDMDL
MODEL       26
REMARK 921   NORMALIZED FREE ENERGY PREDICTED BY IDOCK:   -5.69 KCAL/MOL
REMARK 922        TOTAL FREE ENERGY PREDICTED BY IDOCK:   -8.05 KCAL/MOL
REMARK 923 INTER-LIGAND FREE ENERGY PREDICTED BY IDOCK:   -7.34 KCAL/MOL
REMARK 924 INTRA-LIGAND FREE ENERGY PREDICTED BY IDOCK:   -0.72 KCAL/MOL
REMARK 927      BINDING AFFINITY PREDICTED BY RF-SCORE:    0.00 PKD
ROOT
HETATM    1  C   UNK A   0      -9.978   8.099  70.476  1.00  0.00    -0.195 C  
HETATM    2  C   UNK A   0     -10.951   9.164  69.956  1.00  0.00    -0.240 C  
HETATM    3  C   UNK A   0     -12.096   9.289  70.977  1.00  0.00    -0.349 C  
HETATM    4  C   UNK A   0     -10.262  10.538  69.691  1.00  0.00    -0.207 C  
HETATM    5  C   UNK A   0      -9.136  10.515  68.630  1.00  0.00    -0.158 C  
HETATM    6  C   UNK A   0      -9.627  10.436  67.176  1.00  0.00    -0.192 C  
HETATM    7  C   UNK A   0     -10.767  11.413  66.827  1.00  0.00    -0.316 C  
HETATM    8  C   UNK A   0     -11.860  11.360  67.899  1.00  0.00    -0.239 C  
HETATM    9  C   UNK A   0     -11.262  11.630  69.279  1.00  0.00    -0.328 C  
ENDROOT
BRANCH   7  10
HETATM   10  C   UNK A   0     -10.290  12.857  66.584  1.00  0.00    -0.251 C  
HETATM   11  O   UNK A   0      -9.118  13.205  66.647  1.00  0.00    -0.232 OA 
ATOM     12  N   PHE A   1     -11.296  13.737  66.247  1.00  0.00    -0.314 N  
ATOM     13  H   PHE A   1     -12.260  13.403  66.267  1.00  0.00     0.000 HD 
BRANCH  12  14
ATOM     14  CA  PHE A   1     -11.049  15.129  65.862  1.00  0.00    -0.319 C  
ATOM     15  OXT PHE A   1     -12.651  14.657  64.084  1.00  0.00    -0.766 OA 
ATOM     16  C   PHE A   1     -11.834  15.427  64.578  1.00  0.00    -0.256 C  
ATOM     17  O   PHE A   1     -11.508  16.599  63.981  1.00  0.00    -1.192 OA 
BRANCH  14  18
ATOM     18  CB  PHE A   1     -11.321  16.167  66.968  1.00  0.00     0.216 C  
BRANCH  18  19
ATOM     19  CG  PHE A   1     -10.252  17.207  67.224  1.00  0.00    -0.316 A  
ATOM     20  CD1 PHE A   1     -10.467  18.540  66.855  1.00  0.00    -0.434 A  
ATOM     21  CE1 PHE A   1      -9.509  19.521  67.115  1.00  0.00    -0.422 A  
ATOM     22  CZ  PHE A   1      -8.327  19.184  67.767  1.00  0.00    -0.325 A  
ATOM     23  CE2 PHE A   1      -8.102  17.864  68.153  1.00  0.00    -0.267 A  
ATOM     24  CD2 PHE A   1      -9.056  16.878  67.879  1.00  0.00    -0.233 A  
ENDBRANCH  18  19
ENDBRANCH  14  18
ENDBRANCH  12  14
ENDBRANCH   7  10
TORSDOF 4
ENDMDL
MODEL       27
REMARK 921   NORMALIZED FREE ENERGY PREDICTED BY IDOCK:   -5.67 KCAL/MOL
REMARK 922        TOTAL FREE ENERGY PREDICTED BY IDOCK:   -8.02 KCAL/MOL
REMARK 923 INTER-LIGAND FREE ENERGY PREDICTED BY IDOCK:   -7.14 KCAL/MOL
REMARK 924 INTRA-LIGAND FREE ENERGY PREDICTED BY IDOCK:   -0.88 KCAL/MOL
REMARK 927      BINDING AFFINITY PREDICTED BY RF-SCORE:    0.00 PKD
ROOT
HETATM    1  C   UNK A   0     -12.780  12.098  63.613  1.00  0.00    -0.549 C  
HETATM    2  C   UNK A   0     -11.450  12.075  64.377  1.00  0.00    -0.413 C  
HETATM    3  C   UNK A   0     -10.375  11.517  63.427  1.00  0.00    -0.469 C  
HETATM    4  C   UNK A   0     -11.051  13.474  64.940  1.00  0.00    -0.356 C  
HETATM    5  C   UNK A   0     -12.049  14.084  65.952  1.00  0.00    -0.448 C  
HETATM    6  C   UNK A   0     -12.001  13.461  67.356  1.00  0.00    -0.391 C  
HETATM    7  C   UNK A   0     -10.583  13.286  67.936  1.00  0.00    -0.246 C  
HETATM    8  C   UNK A   0      -9.658  12.649  66.894  1.00  0.00    -0.232 C  
HETATM    9  C   UNK A   0      -9.664  13.469  65.606  1.00  0.00    -0.109 C  
ENDROOT
BRANCH   7  10
HETATM   10  C   UNK A   0      -9.982  14.589  68.496  1.00  0.00    -0.238 C  
HETATM   11  O   UNK A   0     -10.651  15.499  68.968  1.00  0.00    -0.226 OA 
ATOM     12  N   PHE A   1      -8.605  14.638  68.461  1.00  0.00    -0.166 N  
ATOM     13  H   PHE A   1      -8.104  13.876  68.003  1.00  0.00     0.000 HD 
BRANCH  12  14
ATOM     14  CA  PHE A   1      -7.824  15.731  69.048  1.00  0.00    -0.206 C  
ATOM     15  OXT PHE A   1      -6.248  13.962  69.623  1.00  0.00    -0.112 OA 
ATOM     16  C   PHE A   1      -6.583  15.137  69.725  1.00  0.00    -0.177 C  
ATOM     17  O   PHE A   1      -5.903  16.006  70.510  1.00  0.00    -0.119 OA 
BRANCH  14  18
ATOM     18  CB  PHE A   1      -7.471  16.872  68.074  1.00  0.00    -0.177 C  
BRANCH  18  19
ATOM     19  CG  PHE A   1      -8.582  17.821  67.681  1.00  0.00    -0.230 A  
ATOM     20  CD1 PHE A   1      -9.262  17.642  66.471  1.00  0.00    -0.286 A  
ATOM     21  CE1 PHE A   1     -10.314  18.484  66.107  1.00  0.00    -0.457 A  
ATOM     22  CZ  PHE A   1     -10.713  19.508  66.960  1.00  0.00    -0.592 A  
ATOM     23  CE2 PHE A   1     -10.054  19.693  68.174  1.00  0.00    -0.556 A  
ATOM     24  CD2 PHE A   1      -8.991  18.859  68.532  1.00  0.00    -0.388 A  
ENDBRANCH  18  19
ENDBRANCH  14  18
ENDBRANCH  12  14
ENDBRANCH   7  10
TORSDOF 4
ENDMDL
MODEL       28
REMARK 921   NORMALIZED FREE ENERGY PREDICTED BY IDOCK:   -5.63 KCAL/MOL
REMARK 922        TOTAL FREE ENERGY PREDICTED BY IDOCK:   -7.97 KCAL/MOL
REMARK 923 INTER-LIGAND FREE ENERGY PREDICTED BY IDOCK:   -7.37 KCAL/MOL
REMARK 924 INTRA-LIGAND FREE ENERGY PREDICTED BY IDOCK:   -0.60 KCAL/MOL
REMARK 927      BINDING AFFINITY PREDICTED BY RF-SCORE:    0.00 PKD
ROOT
HETATM    1  C   UNK A   0     -11.091   9.560  71.148  1.00  0.00    -0.450 C  
HETATM    2  C   UNK A   0     -10.507   9.159  69.788  1.00  0.00    -0.234 C  
HETATM    3  C   UNK A   0     -10.724   7.645  69.614  1.00  0.00    -0.230 C  
HETATM    4  C   UNK A   0     -11.117   9.969  68.603  1.00  0.00    -0.223 C  
HETATM    5  C   UNK A   0     -10.892  11.498  68.668  1.00  0.00    -0.253 C  
HETATM    6  C   UNK A   0      -9.472  11.954  68.298  1.00  0.00    -0.197 C  
HETATM    7  C   UNK A   0      -8.902  11.311  67.018  1.00  0.00    -0.153 C  
HETATM    8  C   UNK A   0      -9.129   9.797  67.036  1.00  0.00    -0.157 C  
HETATM    9  C   UNK A   0     -10.611   9.485  67.234  1.00  0.00    -0.317 C  
ENDROOT
BRANCH   7  10
HETATM   10  C   UNK A   0      -9.438  11.943  65.720  1.00  0.00    -0.196 C  
HETATM   11  O   UNK A   0      -9.415  11.384  64.631  1.00  0.00    -0.218 OA 
ATOM     12  N   PHE A   1      -9.991  13.195  65.886  1.00  0.00    -0.309 N  
ATOM     13  H   PHE A   1      -9.929  13.634  66.805  1.00  0.00     0.000 HD 
BRANCH  12  14
ATOM     14  CA  PHE A   1     -10.664  13.926  64.808  1.00  0.00    -0.423 C  
ATOM     15  OXT PHE A   1     -12.571  12.520  65.384  1.00  0.00    -0.656 OA 
ATOM     16  C   PHE A   1     -12.070  13.342  64.625  1.00  0.00    -0.408 C  
ATOM     17  O   PHE A   1     -12.710  13.762  63.507  1.00  0.00    -0.774 OA 
BRANCH  14  18
ATOM     18  CB  PHE A   1     -10.683  15.458  64.975  1.00  0.00    -0.460 C  
BRANCH  18  19
ATOM     19  CG  PHE A   1     -10.112  16.025  66.257  1.00  0.00    -0.329 A  
ATOM     20  CD1 PHE A   1     -10.896  16.066  67.416  1.00  0.00    -0.277 A  
ATOM     21  CE1 PHE A   1     -10.378  16.551  68.617  1.00  0.00    -0.287 A  
ATOM     22  CZ  PHE A   1      -9.057  16.985  68.680  1.00  0.00    -0.271 A  
ATOM     23  CE2 PHE A   1      -8.259  16.940  67.539  1.00  0.00    -0.191 A  
ATOM     24  CD2 PHE A   1      -8.783  16.468  66.331  1.00  0.00    -0.357 A  
ENDBRANCH  18  19
ENDBRANCH  14  18
ENDBRANCH  12  14
ENDBRANCH   7  10
TORSDOF 4
ENDMDL
MODEL       29
REMARK 921   NORMALIZED FREE ENERGY PREDICTED BY IDOCK:   -5.61 KCAL/MOL
REMARK 922        TOTAL FREE ENERGY PREDICTED BY IDOCK:   -7.95 KCAL/MOL
REMARK 923 INTER-LIGAND FREE ENERGY PREDICTED BY IDOCK:   -7.32 KCAL/MOL
REMARK 924 INTRA-LIGAND FREE ENERGY PREDICTED BY IDOCK:   -0.63 KCAL/MOL
REMARK 927      BINDING AFFINITY PREDICTED BY RF-SCORE:    0.00 PKD
ROOT
HETATM    1  C   UNK A   0      -7.508  19.468  65.841  1.00  0.00    -0.314 C  
HETATM    2  C   UNK A   0      -8.548  19.202  66.937  1.00  0.00    -0.315 C  
HETATM    3  C   UNK A   0      -9.187  20.551  67.311  1.00  0.00    -0.500 C  
HETATM    4  C   UNK A   0      -9.621  18.153  66.512  1.00  0.00    -0.318 C  
HETATM    5  C   UNK A   0      -9.070  16.748  66.175  1.00  0.00    -0.288 C  
HETATM    6  C   UNK A   0      -8.672  15.905  67.397  1.00  0.00    -0.197 C  
HETATM    7  C   UNK A   0      -9.712  15.890  68.536  1.00  0.00    -0.211 C  
HETATM    8  C   UNK A   0     -10.189  17.314  68.838  1.00  0.00    -0.349 C  
HETATM    9  C   UNK A   0     -10.723  17.975  67.570  1.00  0.00    -0.352 C  
ENDROOT
BRANCH   7  10
HETATM   10  C   UNK A   0     -10.899  14.945  68.274  1.00  0.00    -0.257 C  
HETATM   11  O   UNK A   0     -11.949  14.981  68.903  1.00  0.00    -0.304 OA 
ATOM     12  N   PHE A   1     -10.701  14.063  67.233  1.00  0.00    -0.276 N  
ATOM     13  H   PHE A   1      -9.786  14.039  66.784  1.00  0.00     0.000 HD 
BRANCH  12  14
ATOM     14  CA  PHE A   1     -11.743  13.156  66.740  1.00  0.00    -0.385 C  
ATOM     15  OXT PHE A   1     -11.418  14.336  64.631  1.00  0.00    -0.368 OA 
ATOM     16  C   PHE A   1     -12.064  13.526  65.286  1.00  0.00    -0.411 C  
ATOM     17  O   PHE A   1     -13.172  12.928  64.788  1.00  0.00    -0.764 OA 
BRANCH  14  18
ATOM     18  CB  PHE A   1     -11.430  11.656  66.907  1.00  0.00    -0.320 C  
BRANCH  18  19
ATOM     19  CG  PHE A   1     -10.207  11.117  66.199  1.00  0.00    -0.293 A  
ATOM     20  CD1 PHE A   1     -10.332  10.523  64.937  1.00  0.00    -0.307 A  
ATOM     21  CE1 PHE A   1      -9.211  10.053  64.251  1.00  0.00    -0.318 A  
ATOM     22  CZ  PHE A   1      -7.945  10.187  64.811  1.00  0.00    -0.146 A  
ATOM     23  CE2 PHE A   1      -7.801  10.786  66.061  1.00  0.00    -0.149 A  
ATOM     24  CD2 PHE A   1      -8.926  11.244  66.756  1.00  0.00    -0.173 A  
ENDBRANCH  18  19
ENDBRANCH  14  18
ENDBRANCH  12  14
ENDBRANCH   7  10
TORSDOF 4
ENDMDL
MODEL       30
REMARK 921   NORMALIZED FREE ENERGY PREDICTED BY IDOCK:   -5.59 KCAL/MOL
REMARK 922        TOTAL FREE ENERGY PREDICTED BY IDOCK:   -7.93 KCAL/MOL
REMARK 923 INTER-LIGAND FREE ENERGY PREDICTED BY IDOCK:   -7.27 KCAL/MOL
REMARK 924 INTRA-LIGAND FREE ENERGY PREDICTED BY IDOCK:   -0.66 KCAL/MOL
REMARK 927      BINDING AFFINITY PREDICTED BY RF-SCORE:    0.00 PKD
ROOT
HETATM    1  C   UNK A   0     -10.315  17.591  66.142  1.00  0.00    -0.330 C  
HETATM    2  C   UNK A   0      -9.581  16.245  66.180  1.00  0.00    -0.362 C  
HETATM    3  C   UNK A   0      -8.081  16.535  66.364  1.00  0.00    -0.362 C  
HETATM    4  C   UNK A   0     -10.124  15.290  67.287  1.00  0.00    -0.236 C  
HETATM    5  C   UNK A   0     -11.613  14.897  67.144  1.00  0.00    -0.327 C  
HETATM    6  C   UNK A   0     -11.900  13.856  66.050  1.00  0.00    -0.412 C  
HETATM    7  C   UNK A   0     -10.951  12.641  66.053  1.00  0.00    -0.313 C  
HETATM    8  C   UNK A   0      -9.495  13.104  66.163  1.00  0.00    -0.156 C  
HETATM    9  C   UNK A   0      -9.312  13.989  67.394  1.00  0.00    -0.220 C  
ENDROOT
BRANCH   7  10
HETATM   10  C   UNK A   0     -11.290  11.596  67.132  1.00  0.00    -0.306 C  
HETATM   11  O   UNK A   0     -12.264  11.672  67.871  1.00  0.00    -0.560 OA 
ATOM     12  N   PHE A   1     -10.420  10.528  67.179  1.00  0.00    -0.235 N  
ATOM     13  H   PHE A   1      -9.595  10.547  66.580  1.00  0.00     0.000 HD 
BRANCH  12  14
ATOM     14  CA  PHE A   1     -10.621   9.366  68.050  1.00  0.00    -0.226 C  
ATOM     15  OXT PHE A   1      -9.062   8.272  66.528  1.00  0.00    -0.156 OA 
ATOM     16  C   PHE A   1      -9.844   8.179  67.468  1.00  0.00    -0.177 C  
ATOM     17  O   PHE A   1     -10.134   6.985  68.038  1.00  0.00    -0.155 OA 
BRANCH  14  18
ATOM     18  CB  PHE A   1     -10.298   9.605  69.538  1.00  0.00    -0.235 C  
BRANCH  18  19
ATOM     19  CG  PHE A   1     -11.428   9.442  70.530  1.00  0.00    -0.317 A  
ATOM     20  CD1 PHE A   1     -12.125  10.565  70.991  1.00  0.00    -0.492 A  
ATOM     21  CE1 PHE A   1     -13.194  10.434  71.878  1.00  0.00    -0.535 A  
ATOM     22  CZ  PHE A   1     -13.594   9.171  72.303  1.00  0.00    -0.548 A  
ATOM     23  CE2 PHE A   1     -12.919   8.041  71.846  1.00  0.00    -0.335 A  
ATOM     24  CD2 PHE A   1     -11.838   8.174  70.968  1.00  0.00    -0.279 A  
ENDBRANCH  18  19
ENDBRANCH  14  18
ENDBRANCH  12  14
ENDBRANCH   7  10
TORSDOF 4
ENDMDL
MODEL       31
REMARK 921   NORMALIZED FREE ENERGY PREDICTED BY IDOCK:   -5.59 KCAL/MOL
REMARK 922        TOTAL FREE ENERGY PREDICTED BY IDOCK:   -7.92 KCAL/MOL
REMARK 923 INTER-LIGAND FREE ENERGY PREDICTED BY IDOCK:   -6.58 KCAL/MOL
REMARK 924 INTRA-LIGAND FREE ENERGY PREDICTED BY IDOCK:   -1.34 KCAL/MOL
REMARK 927      BINDING AFFINITY PREDICTED BY RF-SCORE:    0.00 PKD
ROOT
HETATM    1  C   UNK A   0      -8.473   6.342  66.250  1.00  0.00    -0.133 C  
HETATM    2  C   UNK A   0      -8.237   7.851  66.384  1.00  0.00    -0.121 C  
HETATM    3  C   UNK A   0      -7.175   8.252  65.345  1.00  0.00    -0.071 C  
HETATM    4  C   UNK A   0      -9.545   8.686  66.223  1.00  0.00    -0.322 C  
HETATM    5  C   UNK A   0     -10.647   8.389  67.267  1.00  0.00    -0.328 C  
HETATM    6  C   UNK A   0     -10.390   8.987  68.659  1.00  0.00    -0.233 C  
HETATM    7  C   UNK A   0      -9.943  10.463  68.654  1.00  0.00    -0.186 C  
HETATM    8  C   UNK A   0      -8.831  10.678  67.623  1.00  0.00    -0.131 C  
HETATM    9  C   UNK A   0      -9.285  10.202  66.245  1.00  0.00    -0.191 C  
ENDROOT
BRANCH   7  10
HETATM   10  C   UNK A   0     -11.101  11.457  68.444  1.00  0.00    -0.242 C  
HETATM   11  O   UNK A   0     -12.283  11.141  68.477  1.00  0.00    -0.600 OA 
ATOM     12  N   PHE A   1     -10.699  12.761  68.249  1.00  0.00    -0.231 N  
ATOM     13  H   PHE A   1      -9.701  12.955  68.173  1.00  0.00     0.000 HD 
BRANCH  12  14
ATOM     14  CA  PHE A   1     -11.637  13.883  68.145  1.00  0.00    -0.335 C  
ATOM     15  OXT PHE A   1     -10.243  14.880  69.880  1.00  0.00    -0.124 OA 
ATOM     16  C   PHE A   1     -11.263  14.932  69.201  1.00  0.00    -0.279 C  
ATOM     17  O   PHE A   1     -12.187  15.906  69.375  1.00  0.00    -0.284 OA 
BRANCH  14  18
ATOM     18  CB  PHE A   1     -11.768  14.492  66.735  1.00  0.00    -0.393 C  
BRANCH  18  19
ATOM     19  CG  PHE A   1     -11.602  13.559  65.556  1.00  0.00    -0.337 A  
ATOM     20  CD1 PHE A   1     -10.367  13.464  64.904  1.00  0.00    -0.382 A  
ATOM     21  CE1 PHE A   1     -10.183  12.583  63.838  1.00  0.00    -0.386 A  
ATOM     22  CZ  PHE A   1     -11.230  11.767  63.421  1.00  0.00    -0.440 A  
ATOM     23  CE2 PHE A   1     -12.463  11.839  64.067  1.00  0.00    -0.320 A  
ATOM     24  CD2 PHE A   1     -12.652  12.734  65.126  1.00  0.00    -0.513 A  
ENDBRANCH  18  19
ENDBRANCH  14  18
ENDBRANCH  12  14
ENDBRANCH   7  10
TORSDOF 4
ENDMDL
MODEL       32
REMARK 921   NORMALIZED FREE ENERGY PREDICTED BY IDOCK:   -5.57 KCAL/MOL
REMARK 922        TOTAL FREE ENERGY PREDICTED BY IDOCK:   -7.90 KCAL/MOL
REMARK 923 INTER-LIGAND FREE ENERGY PREDICTED BY IDOCK:   -7.89 KCAL/MOL
REMARK 924 INTRA-LIGAND FREE ENERGY PREDICTED BY IDOCK:   -0.01 KCAL/MOL
REMARK 927      BINDING AFFINITY PREDICTED BY RF-SCORE:    0.00 PKD
ROOT
HETATM    1  C   UNK A   0      -9.964   7.482  67.784  1.00  0.00    -0.214 C  
HETATM    2  C   UNK A   0      -9.368   8.632  66.964  1.00  0.00    -0.202 C  
HETATM    3  C   UNK A   0      -8.804   8.035  65.663  1.00  0.00    -0.133 C  
HETATM    4  C   UNK A   0     -10.396   9.770  66.679  1.00  0.00    -0.276 C  
HETATM    5  C   UNK A   0     -10.969  10.468  67.934  1.00  0.00    -0.352 C  
HETATM    6  C   UNK A   0     -10.008  11.454  68.616  1.00  0.00    -0.209 C  
HETATM    7  C   UNK A   0      -9.295  12.427  67.655  1.00  0.00    -0.188 C  
HETATM    8  C   UNK A   0      -8.724  11.666  66.455  1.00  0.00    -0.170 C  
HETATM    9  C   UNK A   0      -9.825  10.865  65.762  1.00  0.00    -0.286 C  
ENDROOT
BRANCH   7  10
HETATM   10  C   UNK A   0     -10.178  13.605  67.204  1.00  0.00    -0.244 C  
HETATM   11  O   UNK A   0     -11.301  13.820  67.642  1.00  0.00    -0.279 OA 
ATOM     12  N   PHE A   1      -9.583  14.436  66.279  1.00  0.00    -0.332 N  
ATOM     13  H   PHE A   1      -8.670  14.174  65.907  1.00  0.00     0.000 HD 
BRANCH  12  14
ATOM     14  CA  PHE A   1     -10.199  15.678  65.802  1.00  0.00    -0.367 C  
ATOM     15  OXT PHE A   1     -11.424  14.199  64.300  1.00  0.00    -0.353 OA 
ATOM     16  C   PHE A   1     -11.136  15.343  64.635  1.00  0.00    -0.347 C  
ATOM     17  O   PHE A   1     -11.584  16.421  63.948  1.00  0.00    -1.100 OA 
BRANCH  14  18
ATOM     18  CB  PHE A   1     -10.897  16.517  66.891  1.00  0.00    -0.083 C  
BRANCH  18  19
ATOM     19  CG  PHE A   1     -10.421  17.940  67.085  1.00  0.00    -0.359 A  
ATOM     20  CD1 PHE A   1      -9.876  18.337  68.311  1.00  0.00    -0.366 A  
ATOM     21  CE1 PHE A   1      -9.398  19.635  68.498  1.00  0.00    -0.412 A  
ATOM     22  CZ  PHE A   1      -9.443  20.551  67.451  1.00  0.00    -0.551 A  
ATOM     23  CE2 PHE A   1      -9.972  20.169  66.220  1.00  0.00    -0.557 A  
ATOM     24  CD2 PHE A   1     -10.464  18.873  66.037  1.00  0.00    -0.507 A  
ENDBRANCH  18  19
ENDBRANCH  14  18
ENDBRANCH  12  14
ENDBRANCH   7  10
TORSDOF 4
ENDMDL
MODEL       33
REMARK 921   NORMALIZED FREE ENERGY PREDICTED BY IDOCK:   -5.57 KCAL/MOL
REMARK 922        TOTAL FREE ENERGY PREDICTED BY IDOCK:   -7.90 KCAL/MOL
REMARK 923 INTER-LIGAND FREE ENERGY PREDICTED BY IDOCK:   -7.30 KCAL/MOL
REMARK 924 INTRA-LIGAND FREE ENERGY PREDICTED BY IDOCK:   -0.60 KCAL/MOL
REMARK 927      BINDING AFFINITY PREDICTED BY RF-SCORE:    0.00 PKD
ROOT
HETATM    1  C   UNK A   0      -6.377  19.000  69.925  1.00  0.00    -0.188 C  
HETATM    2  C   UNK A   0      -7.000  19.419  68.587  1.00  0.00    -0.351 C  
HETATM    3  C   UNK A   0      -5.972  20.291  67.846  1.00  0.00    -0.261 C  
HETATM    4  C   UNK A   0      -7.455  18.202  67.723  1.00  0.00    -0.213 C  
HETATM    5  C   UNK A   0      -8.534  17.303  68.370  1.00  0.00    -0.254 C  
HETATM    6  C   UNK A   0      -9.953  17.893  68.356  1.00  0.00    -0.367 C  
HETATM    7  C   UNK A   0     -10.391  18.486  67.001  1.00  0.00    -0.433 C  
HETATM    8  C   UNK A   0      -9.291  19.389  66.436  1.00  0.00    -0.419 C  
HETATM    9  C   UNK A   0      -7.974  18.623  66.338  1.00  0.00    -0.298 C  
ENDROOT
BRANCH   7  10
HETATM   10  C   UNK A   0     -10.827  17.423  65.975  1.00  0.00     0.016 C  
HETATM   11  O   UNK A   0     -10.955  17.646  64.778  1.00  0.00    -0.917 OA 
ATOM     12  N   PHE A   1     -11.028  16.169  66.510  1.00  0.00    -0.133 N  
ATOM     13  H   PHE A   1     -10.963  16.057  67.522  1.00  0.00     0.000 HD 
BRANCH  12  14
ATOM     14  CA  PHE A   1     -11.332  14.988  65.697  1.00  0.00    -0.297 C  
ATOM     15  OXT PHE A   1      -8.956  14.506  65.960  1.00  0.00    -0.064 OA 
ATOM     16  C   PHE A   1     -10.025  14.231  65.426  1.00  0.00    -0.303 C  
ATOM     17  O   PHE A   1     -10.125  13.257  64.490  1.00  0.00    -0.334 OA 
BRANCH  14  18
ATOM     18  CB  PHE A   1     -12.432  14.072  66.268  1.00  0.00    -0.439 C  
BRANCH  18  19
ATOM     19  CG  PHE A   1     -12.036  13.111  67.367  1.00  0.00    -0.379 A  
ATOM     20  CD1 PHE A   1     -12.048  13.530  68.703  1.00  0.00    -0.303 A  
ATOM     21  CE1 PHE A   1     -11.721  12.649  69.735  1.00  0.00    -0.354 A  
ATOM     22  CZ  PHE A   1     -11.395  11.327  69.445  1.00  0.00    -0.360 A  
ATOM     23  CE2 PHE A   1     -11.389  10.891  68.122  1.00  0.00    -0.383 A  
ATOM     24  CD2 PHE A   1     -11.703  11.777  67.086  1.00  0.00    -0.267 A  
ENDBRANCH  18  19
ENDBRANCH  14  18
ENDBRANCH  12  14
ENDBRANCH   7  10
TORSDOF 4
ENDMDL
MODEL       34
REMARK 921   NORMALIZED FREE ENERGY PREDICTED BY IDOCK:   -5.56 KCAL/MOL
REMARK 922        TOTAL FREE ENERGY PREDICTED BY IDOCK:   -7.89 KCAL/MOL
REMARK 923 INTER-LIGAND FREE ENERGY PREDICTED BY IDOCK:   -7.20 KCAL/MOL
REMARK 924 INTRA-LIGAND FREE ENERGY PREDICTED BY IDOCK:   -0.68 KCAL/MOL
REMARK 927      BINDING AFFINITY PREDICTED BY RF-SCORE:    0.00 PKD
ROOT
HETATM    1  C   UNK A   0      -8.405  19.943  67.057  1.00  0.00    -0.364 C  
HETATM    2  C   UNK A   0      -8.990  18.874  67.988  1.00  0.00    -0.338 C  
HETATM    3  C   UNK A   0     -10.016  19.563  68.905  1.00  0.00    -0.529 C  
HETATM    4  C   UNK A   0      -9.621  17.675  67.215  1.00  0.00    -0.271 C  
HETATM    5  C   UNK A   0      -8.642  16.886  66.314  1.00  0.00    -0.319 C  
HETATM    6  C   UNK A   0      -7.689  15.948  67.069  1.00  0.00    -0.268 C  
HETATM    7  C   UNK A   0      -8.364  15.070  68.142  1.00  0.00    -0.142 C  
HETATM    8  C   UNK A   0      -9.291  15.919  69.017  1.00  0.00    -0.243 C  
HETATM    9  C   UNK A   0     -10.305  16.664  68.150  1.00  0.00    -0.303 C  
ENDROOT
BRANCH   7  10
HETATM   10  C   UNK A   0      -9.103  13.849  67.564  1.00  0.00    -0.201 C  
HETATM   11  O   UNK A   0      -9.491  13.774  66.405  1.00  0.00    -0.278 OA 
ATOM     12  N   PHE A   1      -9.266  12.811  68.456  1.00  0.00    -0.377 N  
ATOM     13  H   PHE A   1      -8.975  12.952  69.423  1.00  0.00     0.000 HD 
BRANCH  12  14
ATOM     14  CA  PHE A   1      -9.837  11.513  68.083  1.00  0.00    -0.194 C  
ATOM     15  OXT PHE A   1      -8.222  10.627  69.681  1.00  0.00    -0.092 OA 
ATOM     16  C   PHE A   1      -9.059  10.409  68.812  1.00  0.00    -0.165 C  
ATOM     17  O   PHE A   1      -9.324   9.155  68.374  1.00  0.00    -0.135 OA 
BRANCH  14  18
ATOM     18  CB  PHE A   1     -11.359  11.390  68.288  1.00  0.00    -0.354 C  
BRANCH  18  19
ATOM     19  CG  PHE A   1     -11.930  11.906  69.591  1.00  0.00    -0.365 A  
ATOM     20  CD1 PHE A   1     -12.064  13.283  69.802  1.00  0.00    -0.355 A  
ATOM     21  CE1 PHE A   1     -12.621  13.779  70.981  1.00  0.00    -0.446 A  
ATOM     22  CZ  PHE A   1     -13.070  12.900  71.962  1.00  0.00    -0.483 A  
ATOM     23  CE2 PHE A   1     -12.954  11.525  71.764  1.00  0.00    -0.500 A  
ATOM     24  CD2 PHE A   1     -12.383  11.029  70.588  1.00  0.00    -0.480 A  
ENDBRANCH  18  19
ENDBRANCH  14  18
ENDBRANCH  12  14
ENDBRANCH   7  10
TORSDOF 4
ENDMDL
MODEL       35
REMARK 921   NORMALIZED FREE ENERGY PREDICTED BY IDOCK:   -5.55 KCAL/MOL
REMARK 922        TOTAL FREE ENERGY PREDICTED BY IDOCK:   -7.87 KCAL/MOL
REMARK 923 INTER-LIGAND FREE ENERGY PREDICTED BY IDOCK:   -6.51 KCAL/MOL
REMARK 924 INTRA-LIGAND FREE ENERGY PREDICTED BY IDOCK:   -1.36 KCAL/MOL
REMARK 927      BINDING AFFINITY PREDICTED BY RF-SCORE:    0.00 PKD
ROOT
HETATM    1  C   UNK A   0      -9.983   8.014  70.476  1.00  0.00    -0.193 C  
HETATM    2  C   UNK A   0     -10.865   9.200  70.068  1.00  0.00    -0.256 C  
HETATM    3  C   UNK A   0     -11.757   9.554  71.271  1.00  0.00    -0.444 C  
HETATM    4  C   UNK A   0     -10.040  10.430  69.580  1.00  0.00    -0.226 C  
HETATM    5  C   UNK A   0      -9.158  10.178  68.334  1.00  0.00    -0.133 C  
HETATM    6  C   UNK A   0      -9.928  10.117  67.005  1.00  0.00    -0.249 C  
HETATM    7  C   UNK A   0     -10.953  11.251  66.802  1.00  0.00    -0.339 C  
HETATM    8  C   UNK A   0     -11.811  11.423  68.059  1.00  0.00    -0.273 C  
HETATM    9  C   UNK A   0     -10.924  11.652  69.280  1.00  0.00    -0.246 C  
ENDROOT
BRANCH   7  10
HETATM   10  C   UNK A   0     -10.317  12.586  66.370  1.00  0.00    -0.243 C  
HETATM   11  O   UNK A   0      -9.118  12.736  66.174  1.00  0.00    -0.100 OA 
ATOM     12  N   PHE A   1     -11.222  13.608  66.180  1.00  0.00    -0.300 N  
ATOM     13  H   PHE A   1     -12.200  13.440  66.416  1.00  0.00     0.000 HD 
BRANCH  12  14
ATOM     14  CA  PHE A   1     -10.848  14.926  65.658  1.00  0.00    -0.341 C  
ATOM     15  OXT PHE A   1     -12.900  14.716  64.359  1.00  0.00    -0.578 OA 
ATOM     16  C   PHE A   1     -11.867  15.336  64.588  1.00  0.00    -0.267 C  
ATOM     17  O   PHE A   1     -11.508  16.418  63.857  1.00  0.00    -1.063 OA 
BRANCH  14  18
ATOM     18  CB  PHE A   1     -10.652  16.017  66.729  1.00  0.00    -0.297 C  
BRANCH  18  19
ATOM     19  CG  PHE A   1     -10.909  15.632  68.170  1.00  0.00    -0.301 A  
ATOM     20  CD1 PHE A   1      -9.835  15.446  69.048  1.00  0.00    -0.234 A  
ATOM     21  CE1 PHE A   1     -10.052  15.126  70.389  1.00  0.00     0.155 A  
ATOM     22  CZ  PHE A   1     -11.350  15.006  70.876  1.00  0.00    -0.305 A  
ATOM     23  CE2 PHE A   1     -12.431  15.200  70.018  1.00  0.00    -0.316 A  
ATOM     24  CD2 PHE A   1     -12.213  15.506  68.670  1.00  0.00     0.043 A  
ENDBRANCH  18  19
ENDBRANCH  14  18
ENDBRANCH  12  14
ENDBRANCH   7  10
TORSDOF 4
ENDMDL
MODEL       36
REMARK 921   NORMALIZED FREE ENERGY PREDICTED BY IDOCK:   -5.52 KCAL/MOL
REMARK 922        TOTAL FREE ENERGY PREDICTED BY IDOCK:   -7.84 KCAL/MOL
REMARK 923 INTER-LIGAND FREE ENERGY PREDICTED BY IDOCK:   -7.80 KCAL/MOL
REMARK 924 INTRA-LIGAND FREE ENERGY PREDICTED BY IDOCK:   -0.04 KCAL/MOL
REMARK 927      BINDING AFFINITY PREDICTED BY RF-SCORE:    0.00 PKD
ROOT
HETATM    1  C   UNK A   0      -8.220   8.482  68.006  1.00  0.00    -0.120 C  
HETATM    2  C   UNK A   0      -9.442   9.155  67.367  1.00  0.00    -0.177 C  
HETATM    3  C   UNK A   0     -10.543   8.089  67.227  1.00  0.00    -0.360 C  
HETATM    4  C   UNK A   0      -9.939  10.396  68.170  1.00  0.00    -0.170 C  
HETATM    5  C   UNK A   0      -8.913  11.545  68.308  1.00  0.00    -0.177 C  
HETATM    6  C   UNK A   0      -8.724  12.392  67.040  1.00  0.00    -0.207 C  
HETATM    7  C   UNK A   0     -10.035  12.831  66.357  1.00  0.00    -0.268 C  
HETATM    8  C   UNK A   0     -10.989  11.640  66.224  1.00  0.00    -0.338 C  
HETATM    9  C   UNK A   0     -11.229  10.997  67.588  1.00  0.00    -0.373 C  
ENDROOT
BRANCH   7  10
HETATM   10  C   UNK A   0     -10.721  14.024  67.048  1.00  0.00    -0.284 C  
HETATM   11  O   UNK A   0     -11.887  14.344  66.854  1.00  0.00    -0.392 OA 
ATOM     12  N   PHE A   1      -9.919  14.695  67.946  1.00  0.00    -0.219 N  
ATOM     13  H   PHE A   1      -8.940  14.419  68.022  1.00  0.00     0.000 HD 
BRANCH  12  14
ATOM     14  CA  PHE A   1     -10.404  15.785  68.798  1.00  0.00    -0.220 C  
ATOM     15  OXT PHE A   1      -9.600  17.215  66.993  1.00  0.00    -0.246 OA 
ATOM     16  C   PHE A   1     -10.055  17.120  68.128  1.00  0.00    -0.311 C  
ATOM     17  O   PHE A   1     -10.231  18.206  68.918  1.00  0.00    -0.379 OA 
BRANCH  14  18
ATOM     18  CB  PHE A   1     -11.894  15.694  69.183  1.00  0.00    -0.378 C  
BRANCH  18  19
ATOM     19  CG  PHE A   1     -12.222  15.442  70.638  1.00  0.00    -0.431 A  
ATOM     20  CD1 PHE A   1     -12.932  14.294  71.008  1.00  0.00    -0.411 A  
ATOM     21  CE1 PHE A   1     -13.213  14.024  72.348  1.00  0.00    -0.585 A  
ATOM     22  CZ  PHE A   1     -12.771  14.893  73.341  1.00  0.00    -0.636 A  
ATOM     23  CE2 PHE A   1     -12.053  16.035  72.991  1.00  0.00    -0.628 A  
ATOM     24  CD2 PHE A   1     -11.784  16.313  71.647  1.00  0.00    -0.490 A  
ENDBRANCH  18  19
ENDBRANCH  14  18
ENDBRANCH  12  14
ENDBRANCH   7  10
TORSDOF 4
ENDMDL
MODEL       37
REMARK 921   NORMALIZED FREE ENERGY PREDICTED BY IDOCK:   -5.51 KCAL/MOL
REMARK 922        TOTAL FREE ENERGY PREDICTED BY IDOCK:   -7.82 KCAL/MOL
REMARK 923 INTER-LIGAND FREE ENERGY PREDICTED BY IDOCK:   -6.66 KCAL/MOL
REMARK 924 INTRA-LIGAND FREE ENERGY PREDICTED BY IDOCK:   -1.16 KCAL/MOL
REMARK 927      BINDING AFFINITY PREDICTED BY RF-SCORE:    0.00 PKD
ROOT
HETATM    1  C   UNK A   0      -8.143   6.692  67.255  1.00  0.00    -0.121 C  
HETATM    2  C   UNK A   0      -8.009   8.189  67.564  1.00  0.00    -0.122 C  
HETATM    3  C   UNK A   0      -6.751   8.704  66.843  1.00  0.00    -0.065 C  
HETATM    4  C   UNK A   0      -9.277   9.006  67.166  1.00  0.00    -0.164 C  
HETATM    5  C   UNK A   0     -10.579   8.593  67.892  1.00  0.00    -0.223 C  
HETATM    6  C   UNK A   0     -10.681   9.069  69.349  1.00  0.00    -0.202 C  
HETATM    7  C   UNK A   0     -10.308  10.549  69.571  1.00  0.00    -0.251 C  
HETATM    8  C   UNK A   0      -8.995  10.879  68.855  1.00  0.00    -0.146 C  
HETATM    9  C   UNK A   0      -9.093  10.519  67.374  1.00  0.00    -0.147 C  
ENDROOT
BRANCH   7  10
HETATM   10  C   UNK A   0     -11.425  11.532  69.175  1.00  0.00    -0.297 C  
HETATM   11  O   UNK A   0     -12.520  11.183  68.752  1.00  0.00    -0.468 OA 
ATOM     12  N   PHE A   1     -11.107  12.859  69.372  1.00  0.00    -0.453 N  
ATOM     13  H   PHE A   1     -10.160  13.092  69.671  1.00  0.00     0.000 HD 
BRANCH  12  14
ATOM     14  CA  PHE A   1     -12.064  13.952  69.172  1.00  0.00    -0.338 C  
ATOM     15  OXT PHE A   1     -11.430  14.586  71.440  1.00  0.00    -0.190 OA 
ATOM     16  C   PHE A   1     -12.166  14.756  70.474  1.00  0.00    -0.322 C  
ATOM     17  O   PHE A   1     -13.188  15.645  70.505  1.00  0.00    -0.434 OA 
BRANCH  14  18
ATOM     18  CB  PHE A   1     -11.779  14.848  67.950  1.00  0.00    -0.344 C  
BRANCH  18  19
ATOM     19  CG  PHE A   1     -11.525  14.160  66.627  1.00  0.00    -0.378 A  
ATOM     20  CD1 PHE A   1     -12.575  13.529  65.951  1.00  0.00    -0.454 A  
ATOM     21  CE1 PHE A   1     -12.370  12.921  64.712  1.00  0.00    -0.516 A  
ATOM     22  CZ  PHE A   1     -11.110  12.950  64.122  1.00  0.00    -0.438 A  
ATOM     23  CE2 PHE A   1     -10.055  13.584  64.777  1.00  0.00    -0.267 A  
ATOM     24  CD2 PHE A   1     -10.258  14.182  66.025  1.00  0.00    -0.318 A  
ENDBRANCH  18  19
ENDBRANCH  14  18
ENDBRANCH  12  14
ENDBRANCH   7  10
TORSDOF 4
ENDMDL
MODEL       38
REMARK 921   NORMALIZED FREE ENERGY PREDICTED BY IDOCK:   -5.50 KCAL/MOL
REMARK 922        TOTAL FREE ENERGY PREDICTED BY IDOCK:   -7.81 KCAL/MOL
REMARK 923 INTER-LIGAND FREE ENERGY PREDICTED BY IDOCK:   -7.15 KCAL/MOL
REMARK 924 INTRA-LIGAND FREE ENERGY PREDICTED BY IDOCK:   -0.66 KCAL/MOL
REMARK 927      BINDING AFFINITY PREDICTED BY RF-SCORE:    0.00 PKD
ROOT
HETATM    1  C   UNK A   0      -9.237   2.385  70.920  1.00  0.00    -0.197 C  
HETATM    2  C   UNK A   0      -9.995   3.362  71.826  1.00  0.00    -0.194 C  
HETATM    3  C   UNK A   0      -9.880   2.845  73.271  1.00  0.00    -0.166 C  
HETATM    4  C   UNK A   0      -9.484   4.830  71.696  1.00  0.00    -0.206 C  
HETATM    5  C   UNK A   0      -9.619   5.451  70.286  1.00  0.00    -0.236 C  
HETATM    6  C   UNK A   0     -11.046   5.873  69.905  1.00  0.00    -0.417 C  
HETATM    7  C   UNK A   0     -11.794   6.672  70.991  1.00  0.00    -0.427 C  
HETATM    8  C   UNK A   0     -11.646   5.984  72.352  1.00  0.00    -0.349 C  
HETATM    9  C   UNK A   0     -10.170   5.784  72.688  1.00  0.00    -0.212 C  
ENDROOT
BRANCH   7  10
HETATM   10  C   UNK A   0     -11.379   8.153  71.064  1.00  0.00    -0.269 C  
HETATM   11  O   UNK A   0     -11.234   8.769  72.112  1.00  0.00    -0.353 OA 
ATOM     12  N   PHE A   1     -11.141   8.735  69.837  1.00  0.00    -0.401 N  
ATOM     13  H   PHE A   1     -11.334   8.190  68.996  1.00  0.00     0.000 HD 
BRANCH  12  14
ATOM     14  CA  PHE A   1     -10.624  10.098  69.681  1.00  0.00    -0.257 C  
ATOM     15  OXT PHE A   1      -8.930   9.027  68.291  1.00  0.00    -0.133 OA 
ATOM     16  C   PHE A   1      -9.334  10.039  68.853  1.00  0.00    -0.172 C  
ATOM     17  O   PHE A   1      -8.626  11.194  68.836  1.00  0.00    -0.153 OA 
BRANCH  14  18
ATOM     18  CB  PHE A   1     -11.636  11.115  69.118  1.00  0.00    -0.393 C  
BRANCH  18  19
ATOM     19  CG  PHE A   1     -12.219  12.124  70.084  1.00  0.00    -0.308 A  
ATOM     20  CD1 PHE A   1     -12.908  11.688  71.222  1.00  0.00    -0.430 A  
ATOM     21  CE1 PHE A   1     -13.421  12.601  72.144  1.00  0.00    -0.561 A  
ATOM     22  CZ  PHE A   1     -13.235  13.966  71.950  1.00  0.00    -0.480 A  
ATOM     23  CE2 PHE A   1     -12.540  14.417  70.829  1.00  0.00    -0.426 A  
ATOM     24  CD2 PHE A   1     -12.039  13.502  69.897  1.00  0.00    -0.408 A  
ENDBRANCH  18  19
ENDBRANCH  14  18
ENDBRANCH  12  14
ENDBRANCH   7  10
TORSDOF 4
ENDMDL
MODEL       39
REMARK 921   NORMALIZED FREE ENERGY PREDICTED BY IDOCK:   -5.49 KCAL/MOL
REMARK 922        TOTAL FREE ENERGY PREDICTED BY IDOCK:   -7.80 KCAL/MOL
REMARK 923 INTER-LIGAND FREE ENERGY PREDICTED BY IDOCK:   -7.03 KCAL/MOL
REMARK 924 INTRA-LIGAND FREE ENERGY PREDICTED BY IDOCK:   -0.77 KCAL/MOL
REMARK 927      BINDING AFFINITY PREDICTED BY RF-SCORE:    0.00 PKD
ROOT
HETATM    1  C   UNK A   0      -8.208   6.839  68.870  1.00  0.00    -0.121 C  
HETATM    2  C   UNK A   0      -9.118   7.460  67.803  1.00  0.00    -0.129 C  
HETATM    3  C   UNK A   0     -10.307   6.506  67.592  1.00  0.00    -0.239 C  
HETATM    4  C   UNK A   0      -9.592   8.899  68.173  1.00  0.00    -0.161 C  
HETATM    5  C   UNK A   0      -8.461   9.939  68.346  1.00  0.00    -0.111 C  
HETATM    6  C   UNK A   0      -7.843  10.439  67.031  1.00  0.00    -0.112 C  
HETATM    7  C   UNK A   0      -8.865  10.831  65.946  1.00  0.00    -0.191 C  
HETATM    8  C   UNK A   0      -9.935   9.744  65.805  1.00  0.00    -0.349 C  
HETATM    9  C   UNK A   0     -10.594   9.470  67.156  1.00  0.00    -0.295 C  
ENDROOT
BRANCH   7  10
HETATM   10  C   UNK A   0      -9.500  12.217  66.169  1.00  0.00    -0.224 C  
HETATM   11  O   UNK A   0      -8.976  13.107  66.826  1.00  0.00    -0.226 OA 
ATOM     12  N   PHE A   1     -10.710  12.395  65.532  1.00  0.00    -0.272 N  
ATOM     13  H   PHE A   1     -11.125  11.598  65.048  1.00  0.00     0.000 HD 
BRANCH  12  14
ATOM     14  CA  PHE A   1     -11.428  13.672  65.515  1.00  0.00    -0.305 C  
ATOM     15  OXT PHE A   1     -12.170  12.939  63.311  1.00  0.00    -0.594 OA 
ATOM     16  C   PHE A   1     -12.115  13.829  64.152  1.00  0.00    -0.433 C  
ATOM     17  O   PHE A   1     -12.612  15.066  63.915  1.00  0.00    -0.813 OA 
BRANCH  14  18
ATOM     18  CB  PHE A   1     -12.403  13.884  66.690  1.00  0.00    -0.411 C  
BRANCH  18  19
ATOM     19  CG  PHE A   1     -11.881  14.622  67.903  1.00  0.00    -0.352 A  
ATOM     20  CD1 PHE A   1     -12.067  14.087  69.183  1.00  0.00    -0.375 A  
ATOM     21  CE1 PHE A   1     -11.561  14.734  70.312  1.00  0.00    -0.333 A  
ATOM     22  CZ  PHE A   1     -10.844  15.919  70.173  1.00  0.00    -0.359 A  
ATOM     23  CE2 PHE A   1     -10.640  16.459  68.904  1.00  0.00    -0.307 A  
ATOM     24  CD2 PHE A   1     -11.160  15.818  67.775  1.00  0.00    -0.313 A  
ENDBRANCH  18  19
ENDBRANCH  14  18
ENDBRANCH  12  14
ENDBRANCH   7  10
TORSDOF 4
ENDMDL
MODEL       40
REMARK 921   NORMALIZED FREE ENERGY PREDICTED BY IDOCK:   -5.46 KCAL/MOL
REMARK 922        TOTAL FREE ENERGY PREDICTED BY IDOCK:   -7.76 KCAL/MOL
REMARK 923 INTER-LIGAND FREE ENERGY PREDICTED BY IDOCK:   -7.53 KCAL/MOL
REMARK 924 INTRA-LIGAND FREE ENERGY PREDICTED BY IDOCK:   -0.23 KCAL/MOL
REMARK 927      BINDING AFFINITY PREDICTED BY RF-SCORE:    0.00 PKD
ROOT
HETATM    1  C   UNK A   0      -9.676   3.796  71.996  1.00  0.00    -0.236 C  
HETATM    2  C   UNK A   0     -10.473   4.948  72.619  1.00  0.00    -0.261 C  
HETATM    3  C   UNK A   0     -10.562   4.689  74.134  1.00  0.00    -0.348 C  
HETATM    4  C   UNK A   0      -9.858   6.348  72.309  1.00  0.00    -0.168 C  
HETATM    5  C   UNK A   0      -9.785   6.716  70.809  1.00  0.00    -0.190 C  
HETATM    6  C   UNK A   0     -11.128   7.124  70.183  1.00  0.00    -0.301 C  
HETATM    7  C   UNK A   0     -11.948   8.131  71.014  1.00  0.00    -0.257 C  
HETATM    8  C   UNK A   0     -12.005   7.688  72.479  1.00  0.00    -0.261 C  
HETATM    9  C   UNK A   0     -10.595   7.489  73.030  1.00  0.00    -0.422 C  
ENDROOT
BRANCH   7  10
HETATM   10  C   UNK A   0     -11.451   9.584  70.887  1.00  0.00    -0.334 C  
HETATM   11  O   UNK A   0     -10.289   9.923  71.069  1.00  0.00    -0.215 OA 
ATOM     12  N   PHE A   1     -12.424  10.484  70.509  1.00  0.00    -0.343 N  
ATOM     13  H   PHE A   1     -13.386  10.153  70.429  1.00  0.00     0.000 HD 
BRANCH  12  14
ATOM     14  CA  PHE A   1     -12.145  11.893  70.217  1.00  0.00    -0.325 C  
ATOM     15  OXT PHE A   1     -11.924  11.112  67.917  1.00  0.00    -0.624 OA 
ATOM     16  C   PHE A   1     -11.805  12.025  68.727  1.00  0.00    -0.302 C  
ATOM     17  O   PHE A   1     -11.295  13.229  68.374  1.00  0.00    -0.254 OA 
BRANCH  14  18
ATOM     18  CB  PHE A   1     -13.247  12.877  70.656  1.00  0.00     0.382 C  
BRANCH  18  19
ATOM     19  CG  PHE A   1     -12.828  14.055  71.509  1.00  0.00    -0.440 A  
ATOM     20  CD1 PHE A   1     -13.227  14.128  72.848  1.00  0.00    -0.553 A  
ATOM     21  CE1 PHE A   1     -12.821  15.187  73.662  1.00  0.00    -0.621 A  
ATOM     22  CZ  PHE A   1     -11.992  16.180  73.150  1.00  0.00    -0.576 A  
ATOM     23  CE2 PHE A   1     -11.575  16.117  71.821  1.00  0.00    -0.503 A  
ATOM     24  CD2 PHE A   1     -11.994  15.063  71.002  1.00  0.00    -0.376 A  
ENDBRANCH  18  19
ENDBRANCH  14  18
ENDBRANCH  12  14
ENDBRANCH   7  10
TORSDOF 4
ENDMDL
MODEL       41
REMARK 921   NORMALIZED FREE ENERGY PREDICTED BY IDOCK:   -5.46 KCAL/MOL
REMARK 922        TOTAL FREE ENERGY PREDICTED BY IDOCK:   -7.76 KCAL/MOL
REMARK 923 INTER-LIGAND FREE ENERGY PREDICTED BY IDOCK:   -7.26 KCAL/MOL
REMARK 924 INTRA-LIGAND FREE ENERGY PREDICTED BY IDOCK:   -0.51 KCAL/MOL
REMARK 927      BINDING AFFINITY PREDICTED BY RF-SCORE:    0.00 PKD
ROOT
HETATM    1  C   UNK A   0     -11.300   4.849  72.989  1.00  0.00    -0.354 C  
HETATM    2  C   UNK A   0     -10.291   5.827  72.376  1.00  0.00    -0.238 C  
HETATM    3  C   UNK A   0      -8.998   5.045  72.087  1.00  0.00    -0.144 C  
HETATM    4  C   UNK A   0     -10.835   6.536  71.097  1.00  0.00    -0.296 C  
HETATM    5  C   UNK A   0     -12.102   7.396  71.310  1.00  0.00    -0.359 C  
HETATM    6  C   UNK A   0     -11.853   8.746  72.001  1.00  0.00    -0.442 C  
HETATM    7  C   UNK A   0     -10.666   9.550  71.434  1.00  0.00    -0.348 C  
HETATM    8  C   UNK A   0      -9.438   8.647  71.280  1.00  0.00    -0.289 C  
HETATM    9  C   UNK A   0      -9.779   7.429  70.424  1.00  0.00    -0.175 C  
ENDROOT
BRANCH   7  10
HETATM   10  C   UNK A   0     -10.989  10.285  70.120  1.00  0.00    -0.314 C  
HETATM   11  O   UNK A   0     -12.127  10.516  69.732  1.00  0.00    -0.274 OA 
ATOM     12  N   PHE A   1      -9.879  10.704  69.418  1.00  0.00    -0.379 N  
ATOM     13  H   PHE A   1      -8.958  10.432  69.760  1.00  0.00     0.000 HD 
BRANCH  12  14
ATOM     14  CA  PHE A   1      -9.959  11.522  68.204  1.00  0.00    -0.192 C  
ATOM     15  OXT PHE A   1      -7.701  12.206  68.819  1.00  0.00    -0.109 OA 
ATOM     16  C   PHE A   1      -8.676  12.354  68.090  1.00  0.00    -0.190 C  
ATOM     17  O   PHE A   1      -8.720  13.327  67.148  1.00  0.00    -0.206 OA 
BRANCH  14  18
ATOM     18  CB  PHE A   1     -10.265  10.738  66.912  1.00  0.00    -0.274 C  
BRANCH  18  19
ATOM     19  CG  PHE A   1     -10.934  11.491  65.783  1.00  0.00    -0.305 A  
ATOM     20  CD1 PHE A   1     -11.988  12.371  66.054  1.00  0.00    -0.419 A  
ATOM     21  CE1 PHE A   1     -12.594  13.102  65.032  1.00  0.00    -0.499 A  
ATOM     22  CZ  PHE A   1     -12.140  12.977  63.723  1.00  0.00    -0.574 A  
ATOM     23  CE2 PHE A   1     -11.084  12.114  63.437  1.00  0.00    -0.495 A  
ATOM     24  CD2 PHE A   1     -10.486  11.370  64.459  1.00  0.00    -0.381 A  
ENDBRANCH  18  19
ENDBRANCH  14  18
ENDBRANCH  12  14
ENDBRANCH   7  10
TORSDOF 4
ENDMDL
MODEL       42
REMARK 921   NORMALIZED FREE ENERGY PREDICTED BY IDOCK:   -5.45 KCAL/MOL
REMARK 922        TOTAL FREE ENERGY PREDICTED BY IDOCK:   -7.75 KCAL/MOL
REMARK 923 INTER-LIGAND FREE ENERGY PREDICTED BY IDOCK:   -6.65 KCAL/MOL
REMARK 924 INTRA-LIGAND FREE ENERGY PREDICTED BY IDOCK:   -1.10 KCAL/MOL
REMARK 927      BINDING AFFINITY PREDICTED BY RF-SCORE:    0.00 PKD
ROOT
HETATM    1  C   UNK A   0      -9.020   9.630  63.937  1.00  0.00    -0.254 C  
HETATM    2  C   UNK A   0      -9.301   9.909  65.418  1.00  0.00    -0.297 C  
HETATM    3  C   UNK A   0      -8.273   9.119  66.246  1.00  0.00    -0.111 C  
HETATM    4  C   UNK A   0      -9.276  11.429  65.764  1.00  0.00    -0.223 C  
HETATM    5  C   UNK A   0     -10.322  12.291  65.019  1.00  0.00    -0.321 C  
HETATM    6  C   UNK A   0     -11.759  12.155  65.548  1.00  0.00    -0.384 C  
HETATM    7  C   UNK A   0     -11.891  12.235  67.082  1.00  0.00    -0.328 C  
HETATM    8  C   UNK A   0     -10.849  11.334  67.753  1.00  0.00    -0.284 C  
HETATM    9  C   UNK A   0      -9.446  11.695  67.270  1.00  0.00    -0.173 C  
ENDROOT
BRANCH   7  10
HETATM   10  C   UNK A   0     -11.828  13.672  67.632  1.00  0.00    -0.369 C  
HETATM   11  O   UNK A   0     -12.002  14.671  66.947  1.00  0.00    -0.373 OA 
ATOM     12  N   PHE A   1     -11.594  13.748  68.989  1.00  0.00    -0.290 N  
ATOM     13  H   PHE A   1     -11.399  12.886  69.497  1.00  0.00     0.000 HD 
BRANCH  12  14
ATOM     14  CA  PHE A   1     -11.610  15.009  69.737  1.00  0.00    -0.304 C  
ATOM     15  OXT PHE A   1     -12.700  13.678  71.465  1.00  0.00    -0.346 OA 
ATOM     16  C   PHE A   1     -12.349  14.782  71.062  1.00  0.00    -0.330 C  
ATOM     17  O   PHE A   1     -12.646  15.916  71.740  1.00  0.00    -0.441 OA 
BRANCH  14  18
ATOM     18  CB  PHE A   1     -10.228  15.661  69.941  1.00  0.00    -0.297 C  
BRANCH  18  19
ATOM     19  CG  PHE A   1      -9.441  16.025  68.701  1.00  0.00    -0.224 A  
ATOM     20  CD1 PHE A   1      -8.433  15.173  68.235  1.00  0.00    -0.152 A  
ATOM     21  CE1 PHE A   1      -7.720  15.472  67.073  1.00  0.00    -0.246 A  
ATOM     22  CZ  PHE A   1      -8.020  16.622  66.349  1.00  0.00    -0.360 A  
ATOM     23  CE2 PHE A   1      -9.028  17.475  66.792  1.00  0.00    -0.272 A  
ATOM     24  CD2 PHE A   1      -9.733  17.183  67.965  1.00  0.00    -0.274 A  
ENDBRANCH  18  19
ENDBRANCH  14  18
ENDBRANCH  12  14
ENDBRANCH   7  10
TORSDOF 4
ENDMDL
MODEL       43
REMARK 921   NORMALIZED FREE ENERGY PREDICTED BY IDOCK:   -5.42 KCAL/MOL
REMARK 922        TOTAL FREE ENERGY PREDICTED BY IDOCK:   -7.71 KCAL/MOL
REMARK 923 INTER-LIGAND FREE ENERGY PREDICTED BY IDOCK:   -7.00 KCAL/MOL
REMARK 924 INTRA-LIGAND FREE ENERGY PREDICTED BY IDOCK:   -0.70 KCAL/MOL
REMARK 927      BINDING AFFINITY PREDICTED BY RF-SCORE:    0.00 PKD
ROOT
HETATM    1  C   UNK A   0     -11.921  15.851  64.256  1.00  0.00     0.008 C  
HETATM    2  C   UNK A   0     -10.890  15.290  65.243  1.00  0.00    -0.417 C  
HETATM    3  C   UNK A   0     -10.242  16.482  65.970  1.00  0.00    -0.372 C  
HETATM    4  C   UNK A   0     -11.506  14.267  66.246  1.00  0.00    -0.360 C  
HETATM    5  C   UNK A   0     -12.127  13.006  65.602  1.00  0.00    -0.507 C  
HETATM    6  C   UNK A   0     -11.106  11.968  65.110  1.00  0.00    -0.369 C  
HETATM    7  C   UNK A   0      -9.983  11.643  66.115  1.00  0.00    -0.252 C  
HETATM    8  C   UNK A   0      -9.392  12.935  66.687  1.00  0.00    -0.240 C  
HETATM    9  C   UNK A   0     -10.494  13.795  67.303  1.00  0.00    -0.264 C  
ENDROOT
BRANCH   7  10
HETATM   10  C   UNK A   0     -10.417  10.680  67.235  1.00  0.00    -0.246 C  
HETATM   11  O   UNK A   0     -11.584  10.484  67.549  1.00  0.00    -0.421 OA 
ATOM     12  N   PHE A   1      -9.375  10.015  67.846  1.00  0.00    -0.140 N  
ATOM     13  H   PHE A   1      -8.421  10.263  67.583  1.00  0.00     0.000 HD 
BRANCH  12  14
ATOM     14  CA  PHE A   1      -9.571   8.970  68.855  1.00  0.00    -0.156 C  
ATOM     15  OXT PHE A   1      -7.543   8.015  67.895  1.00  0.00    -0.107 OA 
ATOM     16  C   PHE A   1      -8.492   7.897  68.663  1.00  0.00    -0.128 C  
ATOM     17  O   PHE A   1      -8.699   6.760  69.370  1.00  0.00    -0.134 OA 
BRANCH  14  18
ATOM     18  CB  PHE A   1      -9.642   9.476  70.309  1.00  0.00    -0.314 C  
BRANCH  18  19
ATOM     19  CG  PHE A   1     -10.970   9.355  71.024  1.00  0.00    -0.409 A  
ATOM     20  CD1 PHE A   1     -11.834  10.454  71.088  1.00  0.00    -0.432 A  
ATOM     21  CE1 PHE A   1     -13.079  10.353  71.711  1.00  0.00    -0.567 A  
ATOM     22  CZ  PHE A   1     -13.485   9.142  72.264  1.00  0.00    -0.546 A  
ATOM     23  CE2 PHE A   1     -12.641   8.035  72.199  1.00  0.00    -0.316 A  
ATOM     24  CD2 PHE A   1     -11.387   8.140  71.588  1.00  0.00    -0.315 A  
ENDBRANCH  18  19
ENDBRANCH  14  18
ENDBRANCH  12  14
ENDBRANCH   7  10
TORSDOF 4
ENDMDL
MODEL       44
REMARK 921   NORMALIZED FREE ENERGY PREDICTED BY IDOCK:   -5.40 KCAL/MOL
REMARK 922        TOTAL FREE ENERGY PREDICTED BY IDOCK:   -7.69 KCAL/MOL
REMARK 923 INTER-LIGAND FREE ENERGY PREDICTED BY IDOCK:   -7.52 KCAL/MOL
REMARK 924 INTRA-LIGAND FREE ENERGY PREDICTED BY IDOCK:   -0.17 KCAL/MOL
REMARK 927      BINDING AFFINITY PREDICTED BY RF-SCORE:    0.00 PKD
ROOT
HETATM    1  C   UNK A   0      -8.331   9.522  64.572  1.00  0.00    -0.167 C  
HETATM    2  C   UNK A   0      -9.132  10.820  64.416  1.00  0.00    -0.217 C  
HETATM    3  C   UNK A   0      -9.880  10.749  63.073  1.00  0.00    -0.344 C  
HETATM    4  C   UNK A   0     -10.107  11.077  65.606  1.00  0.00    -0.310 C  
HETATM    5  C   UNK A   0      -9.431  11.222  66.990  1.00  0.00    -0.186 C  
HETATM    6  C   UNK A   0      -8.729  12.569  67.223  1.00  0.00    -0.193 C  
HETATM    7  C   UNK A   0      -9.558  13.806  66.821  1.00  0.00    -0.283 C  
HETATM    8  C   UNK A   0     -10.169  13.607  65.431  1.00  0.00    -0.330 C  
HETATM    9  C   UNK A   0     -10.988  12.319  65.390  1.00  0.00    -0.341 C  
ENDROOT
BRANCH   7  10
HETATM   10  C   UNK A   0     -10.631  14.190  67.856  1.00  0.00    -0.243 C  
HETATM   11  O   UNK A   0     -11.803  14.404  67.573  1.00  0.00    -0.373 OA 
ATOM     12  N   PHE A   1     -10.173  14.241  69.155  1.00  0.00    -0.404 N  
ATOM     13  H   PHE A   1      -9.175  14.112  69.323  1.00  0.00     0.000 HD 
BRANCH  12  14
ATOM     14  CA  PHE A   1     -11.049  14.472  70.308  1.00  0.00    -0.037 C  
ATOM     15  OXT PHE A   1     -10.897  16.811  69.636  1.00  0.00    -0.333 OA 
ATOM     16  C   PHE A   1     -11.269  15.983  70.460  1.00  0.00    -0.378 C  
ATOM     17  O   PHE A   1     -11.860  16.349  71.622  1.00  0.00    -0.456 OA 
BRANCH  14  18
ATOM     18  CB  PHE A   1     -12.375  13.687  70.283  1.00  0.00    -0.392 C  
BRANCH  18  19
ATOM     19  CG  PHE A   1     -12.322  12.219  70.646  1.00  0.00    -0.375 A  
ATOM     20  CD1 PHE A   1     -13.076  11.734  71.720  1.00  0.00    -0.480 A  
ATOM     21  CE1 PHE A   1     -13.069  10.378  72.049  1.00  0.00    -0.521 A  
ATOM     22  CZ  PHE A   1     -12.319   9.482  71.293  1.00  0.00    -0.430 A  
ATOM     23  CE2 PHE A   1     -11.571   9.947  70.212  1.00  0.00    -0.319 A  
ATOM     24  CD2 PHE A   1     -11.566  11.308  69.892  1.00  0.00    -0.413 A  
ENDBRANCH  18  19
ENDBRANCH  14  18
ENDBRANCH  12  14
ENDBRANCH   7  10
TORSDOF 4
ENDMDL
MODEL       45
REMARK 921   NORMALIZED FREE ENERGY PREDICTED BY IDOCK:   -5.40 KCAL/MOL
REMARK 922        TOTAL FREE ENERGY PREDICTED BY IDOCK:   -7.69 KCAL/MOL
REMARK 923 INTER-LIGAND FREE ENERGY PREDICTED BY IDOCK:   -7.13 KCAL/MOL
REMARK 924 INTRA-LIGAND FREE ENERGY PREDICTED BY IDOCK:   -0.56 KCAL/MOL
REMARK 927      BINDING AFFINITY PREDICTED BY RF-SCORE:    0.00 PKD
ROOT
HETATM    1  C   UNK A   0     -12.127  16.079  71.608  1.00  0.00    -0.537 C  
HETATM    2  C   UNK A   0     -12.050  14.554  71.462  1.00  0.00    -0.400 C  
HETATM    3  C   UNK A   0     -12.807  13.932  72.650  1.00  0.00    -0.353 C  
HETATM    4  C   UNK A   0     -12.606  14.047  70.096  1.00  0.00    -0.310 C  
HETATM    5  C   UNK A   0     -11.862  14.577  68.847  1.00  0.00    -0.359 C  
HETATM    6  C   UNK A   0     -10.500  13.917  68.583  1.00  0.00    -0.249 C  
HETATM    7  C   UNK A   0     -10.500  12.378  68.679  1.00  0.00    -0.224 C  
HETATM    8  C   UNK A   0     -11.222  11.925  69.952  1.00  0.00    -0.051 C  
HETATM    9  C   UNK A   0     -12.631  12.513  70.001  1.00  0.00     0.109 C  
ENDROOT
BRANCH   7  10
HETATM   10  C   UNK A   0     -11.076  11.682  67.431  1.00  0.00    -0.281 C  
HETATM   11  O   UNK A   0     -11.758  10.666  67.472  1.00  0.00    -0.445 OA 
ATOM     12  N   PHE A   1     -10.792  12.323  66.244  1.00  0.00    -0.268 N  
ATOM     13  H   PHE A   1     -10.170  13.132  66.266  1.00  0.00     0.000 HD 
BRANCH  12  14
ATOM     14  CA  PHE A   1     -11.337  11.899  64.952  1.00  0.00    -0.277 C  
ATOM     15  OXT PHE A   1     -12.999  13.634  65.368  1.00  0.00    -0.683 OA 
ATOM     16  C   PHE A   1     -12.621  12.693  64.679  1.00  0.00    -0.440 C  
ATOM     17  O   PHE A   1     -13.354  12.232  63.637  1.00  0.00    -0.599 OA 
BRANCH  14  18
ATOM     18  CB  PHE A   1     -10.345  11.967  63.774  1.00  0.00    -0.451 C  
BRANCH  18  19
ATOM     19  CG  PHE A   1      -9.374  10.817  63.616  1.00  0.00    -0.301 A  
ATOM     20  CD1 PHE A   1      -8.537  10.754  62.495  1.00  0.00    -0.301 A  
ATOM     21  CE1 PHE A   1      -7.610   9.722  62.348  1.00  0.00    -0.121 A  
ATOM     22  CZ  PHE A   1      -7.493   8.746  63.332  1.00  0.00    -0.107 A  
ATOM     23  CE2 PHE A   1      -8.310   8.799  64.460  1.00  0.00    -0.171 A  
ATOM     24  CD2 PHE A   1      -9.250   9.825  64.600  1.00  0.00    -0.312 A  
ENDBRANCH  18  19
ENDBRANCH  14  18
ENDBRANCH  12  14
ENDBRANCH   7  10
TORSDOF 4
ENDMDL
MODEL       46
REMARK 921   NORMALIZED FREE ENERGY PREDICTED BY IDOCK:   -5.37 KCAL/MOL
REMARK 922        TOTAL FREE ENERGY PREDICTED BY IDOCK:   -7.65 KCAL/MOL
REMARK 923 INTER-LIGAND FREE ENERGY PREDICTED BY IDOCK:   -7.39 KCAL/MOL
REMARK 924 INTRA-LIGAND FREE ENERGY PREDICTED BY IDOCK:   -0.26 KCAL/MOL
REMARK 927      BINDING AFFINITY PREDICTED BY RF-SCORE:    0.00 PKD
ROOT
HETATM    1  C   UNK A   0      -9.115  20.908  68.059  1.00  0.00     0.209 C  
HETATM    2  C   UNK A   0      -8.374  19.570  67.945  1.00  0.00    -0.350 C  
HETATM    3  C   UNK A   0      -7.223  19.584  68.966  1.00  0.00    -0.397 C  
HETATM    4  C   UNK A   0      -9.311  18.339  68.148  1.00  0.00    -0.307 C  
HETATM    5  C   UNK A   0     -10.463  18.214  67.124  1.00  0.00    -0.392 C  
HETATM    6  C   UNK A   0     -10.037  17.710  65.736  1.00  0.00    -0.098 C  
HETATM    7  C   UNK A   0      -9.108  16.479  65.755  1.00  0.00    -0.040 C  
HETATM    8  C   UNK A   0      -7.974  16.685  66.764  1.00  0.00    -0.284 C  
HETATM    9  C   UNK A   0      -8.544  17.006  68.144  1.00  0.00    -0.228 C  
ENDROOT
BRANCH   7  10
HETATM   10  C   UNK A   0      -9.848  15.152  66.006  1.00  0.00    -0.320 C  
HETATM   11  O   UNK A   0      -9.304  14.138  66.424  1.00  0.00    -0.275 OA 
ATOM     12  N   PHE A   1     -11.203  15.203  65.756  1.00  0.00    -0.321 N  
ATOM     13  H   PHE A   1     -11.590  16.057  65.354  1.00  0.00     0.000 HD 
BRANCH  12  14
ATOM     14  CA  PHE A   1     -12.115  14.091  66.039  1.00  0.00    -0.439 C  
ATOM     15  OXT PHE A   1     -11.623  13.435  63.742  1.00  0.00    -0.390 OA 
ATOM     16  C   PHE A   1     -12.286  13.262  64.759  1.00  0.00    -0.417 C  
ATOM     17  O   PHE A   1     -13.284  12.348  64.813  1.00  0.00    -0.784 OA 
BRANCH  14  18
ATOM     18  CB  PHE A   1     -11.723  13.223  67.251  1.00  0.00    -0.424 C  
BRANCH  18  19
ATOM     19  CG  PHE A   1     -12.003  13.784  68.628  1.00  0.00    -0.401 A  
ATOM     20  CD1 PHE A   1     -12.191  12.920  69.713  1.00  0.00    -0.227 A  
ATOM     21  CE1 PHE A   1     -12.414  13.418  70.997  1.00  0.00    -0.437 A  
ATOM     22  CZ  PHE A   1     -12.433  14.792  71.218  1.00  0.00    -0.391 A  
ATOM     23  CE2 PHE A   1     -12.236  15.666  70.151  1.00  0.00    -0.387 A  
ATOM     24  CD2 PHE A   1     -12.027  15.167  68.861  1.00  0.00    -0.284 A  
ENDBRANCH  18  19
ENDBRANCH  14  18
ENDBRANCH  12  14
ENDBRANCH   7  10
TORSDOF 4
ENDMDL
MODEL       47
REMARK 921   NORMALIZED FREE ENERGY PREDICTED BY IDOCK:   -5.35 KCAL/MOL
REMARK 922        TOTAL FREE ENERGY PREDICTED BY IDOCK:   -7.63 KCAL/MOL
REMARK 923 INTER-LIGAND FREE ENERGY PREDICTED BY IDOCK:   -7.28 KCAL/MOL
REMARK 924 INTRA-LIGAND FREE ENERGY PREDICTED BY IDOCK:   -0.34 KCAL/MOL
REMARK 927      BINDING AFFINITY PREDICTED BY RF-SCORE:    0.00 PKD
ROOT
HETATM    1  C   UNK A   0      -5.865  19.271  68.570  1.00  0.00    -0.230 C  
HETATM    2  C   UNK A   0      -6.903  19.006  67.472  1.00  0.00    -0.217 C  
HETATM    3  C   UNK A   0      -6.270  19.399  66.126  1.00  0.00    -0.194 C  
HETATM    4  C   UNK A   0      -7.412  17.532  67.463  1.00  0.00    -0.202 C  
HETATM    5  C   UNK A   0      -8.118  17.071  68.759  1.00  0.00    -0.250 C  
HETATM    6  C   UNK A   0      -9.548  17.605  68.936  1.00  0.00    -0.217 C  
HETATM    7  C   UNK A   0     -10.441  17.482  67.685  1.00  0.00    -0.370 C  
HETATM    8  C   UNK A   0      -9.693  17.985  66.447  1.00  0.00    -0.324 C  
HETATM    9  C   UNK A   0      -8.366  17.245  66.291  1.00  0.00    -0.289 C  
ENDROOT
BRANCH   7  10
HETATM   10  C   UNK A   0     -11.001  16.065  67.465  1.00  0.00    -0.261 C  
HETATM   11  O   UNK A   0     -11.380  15.644  66.379  1.00  0.00    -0.128 OA 
ATOM     12  N   PHE A   1     -11.009  15.277  68.596  1.00  0.00    -0.246 N  
ATOM     13  H   PHE A   1     -10.737  15.700  69.484  1.00  0.00     0.000 HD 
BRANCH  12  14
ATOM     14  CA  PHE A   1     -11.391  13.862  68.587  1.00  0.00    -0.278 C  
ATOM     15  OXT PHE A   1      -9.175  13.530  67.624  1.00  0.00    -0.196 OA 
ATOM     16  C   PHE A   1     -10.265  13.057  67.925  1.00  0.00    -0.234 C  
ATOM     17  O   PHE A   1     -10.589  11.774  67.635  1.00  0.00    -0.195 OA 
BRANCH  14  18
ATOM     18  CB  PHE A   1     -11.792  13.288  69.960  1.00  0.00    -0.365 C  
BRANCH  18  19
ATOM     19  CG  PHE A   1     -12.370  14.251  70.974  1.00  0.00    -0.431 A  
ATOM     20  CD1 PHE A   1     -13.757  14.367  71.121  1.00  0.00    -0.297 A  
ATOM     21  CE1 PHE A   1     -14.309  15.222  72.076  1.00  0.00    -0.689 A  
ATOM     22  CZ  PHE A   1     -13.478  15.962  72.911  1.00  0.00    -0.637 A  
ATOM     23  CE2 PHE A   1     -12.095  15.850  72.786  1.00  0.00    -0.611 A  
ATOM     24  CD2 PHE A   1     -11.542  15.004  71.820  1.00  0.00    -0.425 A  
ENDBRANCH  18  19
ENDBRANCH  14  18
ENDBRANCH  12  14
ENDBRANCH   7  10
TORSDOF 4
ENDMDL
MODEL       48
REMARK 921   NORMALIZED FREE ENERGY PREDICTED BY IDOCK:   -5.31 KCAL/MOL
REMARK 922        TOTAL FREE ENERGY PREDICTED BY IDOCK:   -7.58 KCAL/MOL
REMARK 923 INTER-LIGAND FREE ENERGY PREDICTED BY IDOCK:   -6.34 KCAL/MOL
REMARK 924 INTRA-LIGAND FREE ENERGY PREDICTED BY IDOCK:   -1.24 KCAL/MOL
REMARK 927      BINDING AFFINITY PREDICTED BY RF-SCORE:    0.00 PKD
ROOT
HETATM    1  C   UNK A   0      -9.963   7.635  67.086  1.00  0.00    -0.297 C  
HETATM    2  C   UNK A   0      -9.167   8.914  67.372  1.00  0.00    -0.157 C  
HETATM    3  C   UNK A   0      -7.717   8.674  66.917  1.00  0.00    -0.091 C  
HETATM    4  C   UNK A   0      -9.783  10.176  66.694  1.00  0.00    -0.242 C  
HETATM    5  C   UNK A   0     -11.222  10.527  67.141  1.00  0.00    -0.134 C  
HETATM    6  C   UNK A   0     -11.321  11.177  68.531  1.00  0.00    -0.348 C  
HETATM    7  C   UNK A   0     -10.314  12.317  68.782  1.00  0.00    -0.156 C  
HETATM    8  C   UNK A   0      -8.909  11.891  68.348  1.00  0.00    -0.159 C  
HETATM    9  C   UNK A   0      -8.919  11.433  66.891  1.00  0.00    -0.171 C  
ENDROOT
BRANCH   7  10
HETATM   10  C   UNK A   0     -10.721  13.653  68.132  1.00  0.00    -0.248 C  
HETATM   11  O   UNK A   0     -11.733  14.274  68.429  1.00  0.00    -0.302 OA 
ATOM     12  N   PHE A   1      -9.823  14.124  67.198  1.00  0.00    -0.248 N  
ATOM     13  H   PHE A   1      -9.028  13.535  66.949  1.00  0.00     0.000 HD 
BRANCH  12  14
ATOM     14  CA  PHE A   1      -9.955  15.429  66.544  1.00  0.00    -0.268 C  
ATOM     15  OXT PHE A   1      -7.523  15.478  66.713  1.00  0.00    -0.151 OA 
ATOM     16  C   PHE A   1      -8.563  16.066  66.440  1.00  0.00    -0.334 C  
ATOM     17  O   PHE A   1      -8.570  17.371  66.076  1.00  0.00    -0.500 OA 
BRANCH  14  18
ATOM     18  CB  PHE A   1     -10.691  15.406  65.190  1.00  0.00    -0.460 C  
BRANCH  18  19
ATOM     19  CG  PHE A   1     -11.128  14.059  64.659  1.00  0.00    -0.387 A  
ATOM     20  CD1 PHE A   1     -12.464  13.658  64.776  1.00  0.00    -0.391 A  
ATOM     21  CE1 PHE A   1     -12.894  12.435  64.260  1.00  0.00    -0.356 A  
ATOM     22  CZ  PHE A   1     -11.995  11.602  63.601  1.00  0.00    -0.374 A  
ATOM     23  CE2 PHE A   1     -10.664  11.991  63.465  1.00  0.00    -0.513 A  
ATOM     24  CD2 PHE A   1     -10.229  13.210  63.995  1.00  0.00    -0.050 A  
ENDBRANCH  18  19
ENDBRANCH  14  18
ENDBRANCH  12  14
ENDBRANCH   7  10
TORSDOF 4
ENDMDL
MODEL       49
REMARK 921   NORMALIZED FREE ENERGY PREDICTED BY IDOCK:   -5.31 KCAL/MOL
REMARK 922        TOTAL FREE ENERGY PREDICTED BY IDOCK:   -7.58 KCAL/MOL
REMARK 923 INTER-LIGAND FREE ENERGY PREDICTED BY IDOCK:   -7.25 KCAL/MOL
REMARK 924 INTRA-LIGAND FREE ENERGY PREDICTED BY IDOCK:   -0.32 KCAL/MOL
REMARK 927      BINDING AFFINITY PREDICTED BY RF-SCORE:    0.00 PKD
ROOT
HETATM    1  C   UNK A   0      -5.904  20.232  69.594  1.00  0.00    -0.381 C  
HETATM    2  C   UNK A   0      -6.687  20.390  68.285  1.00  0.00    -0.313 C  
HETATM    3  C   UNK A   0      -5.795  21.164  67.298  1.00  0.00    -0.378 C  
HETATM    4  C   UNK A   0      -7.157  19.027  67.691  1.00  0.00    -0.237 C  
HETATM    5  C   UNK A   0      -8.108  18.208  68.595  1.00  0.00    -0.301 C  
HETATM    6  C   UNK A   0      -9.553  18.729  68.644  1.00  0.00    -0.432 C  
HETATM    7  C   UNK A   0     -10.164  19.063  67.268  1.00  0.00    -0.476 C  
HETATM    8  C   UNK A   0      -9.184  19.901  66.441  1.00  0.00    -0.470 C  
HETATM    9  C   UNK A   0      -7.841  19.183  66.323  1.00  0.00    -0.307 C  
ENDROOT
BRANCH   7  10
HETATM   10  C   UNK A   0     -10.641  17.824  66.488  1.00  0.00    -0.220 C  
HETATM   11  O   UNK A   0     -10.894  17.830  65.290  1.00  0.00    -0.599 OA 
ATOM     12  N   PHE A   1     -10.727  16.676  67.247  1.00  0.00    -0.275 N  
ATOM     13  H   PHE A   1     -10.561  16.745  68.251  1.00  0.00     0.000 HD 
BRANCH  12  14
ATOM     14  CA  PHE A   1     -11.047  15.362  66.682  1.00  0.00    -0.236 C  
ATOM     15  OXT PHE A   1      -8.719  15.387  65.957  1.00  0.00    -0.224 OA 
ATOM     16  C   PHE A   1      -9.817  14.843  65.926  1.00  0.00    -0.332 C  
ATOM     17  O   PHE A   1     -10.052  13.753  65.156  1.00  0.00    -0.335 OA 
BRANCH  14  18
ATOM     18  CB  PHE A   1     -11.590  14.334  67.694  1.00  0.00    -0.396 C  
BRANCH  18  19
ATOM     19  CG  PHE A   1     -11.793  14.802  69.119  1.00  0.00    -0.340 A  
ATOM     20  CD1 PHE A   1     -10.709  15.289  69.859  1.00  0.00    -0.300 A  
ATOM     21  CE1 PHE A   1     -10.882  15.759  71.161  1.00  0.00    -0.041 A  
ATOM     22  CZ  PHE A   1     -12.149  15.766  71.736  1.00  0.00    -0.541 A  
ATOM     23  CE2 PHE A   1     -13.242  15.296  71.009  1.00  0.00    -0.546 A  
ATOM     24  CD2 PHE A   1     -13.066  14.811  69.709  1.00  0.00     0.426 A  
ENDBRANCH  18  19
ENDBRANCH  14  18
ENDBRANCH  12  14
ENDBRANCH   7  10
TORSDOF 4
ENDMDL
MODEL       50
REMARK 921   NORMALIZED FREE ENERGY PREDICTED BY IDOCK:   -5.30 KCAL/MOL
REMARK 922        TOTAL FREE ENERGY PREDICTED BY IDOCK:   -7.56 KCAL/MOL
REMARK 923 INTER-LIGAND FREE ENERGY PREDICTED BY IDOCK:   -6.95 KCAL/MOL
REMARK 924 INTRA-LIGAND FREE ENERGY PREDICTED BY IDOCK:   -0.61 KCAL/MOL
REMARK 927      BINDING AFFINITY PREDICTED BY RF-SCORE:    0.00 PKD
ROOT
HETATM    1  C   UNK A   0      -9.698  18.901  68.643  1.00  0.00    -0.454 C  
HETATM    2  C   UNK A   0      -9.466  17.597  67.870  1.00  0.00    -0.276 C  
HETATM    3  C   UNK A   0      -8.096  17.702  67.178  1.00  0.00    -0.233 C  
HETATM    4  C   UNK A   0      -9.561  16.331  68.775  1.00  0.00    -0.242 C  
HETATM    5  C   UNK A   0     -10.929  16.115  69.463  1.00  0.00    -0.341 C  
HETATM    6  C   UNK A   0     -12.036  15.585  68.539  1.00  0.00    -0.179 C  
HETATM    7  C   UNK A   0     -11.616  14.402  67.643  1.00  0.00    -0.396 C  
HETATM    8  C   UNK A   0     -10.273  14.696  66.969  1.00  0.00    -0.261 C  
HETATM    9  C   UNK A   0      -9.216  15.037  68.018  1.00  0.00    -0.183 C  
ENDROOT
BRANCH   7  10
HETATM   10  C   UNK A   0     -11.589  13.050  68.381  1.00  0.00    -0.335 C  
HETATM   11  O   UNK A   0     -12.086  12.867  69.485  1.00  0.00    -0.285 OA 
ATOM     12  N   PHE A   1     -10.984  12.032  67.675  1.00  0.00    -0.226 N  
ATOM     13  H   PHE A   1     -10.536  12.258  66.787  1.00  0.00     0.000 HD 
BRANCH  12  14
ATOM     14  CA  PHE A   1     -10.951  10.642  68.139  1.00  0.00    -0.269 C  
ATOM     15  OXT PHE A   1     -10.258  10.159  65.852  1.00  0.00    -0.254 OA 
ATOM     16  C   PHE A   1     -10.607   9.738  66.949  1.00  0.00    -0.173 C  
ATOM     17  O   PHE A   1     -10.779   8.415  67.183  1.00  0.00    -0.291 OA 
BRANCH  14  18
ATOM     18  CB  PHE A   1     -10.038  10.384  69.354  1.00  0.00    -0.251 C  
BRANCH  18  19
ATOM     19  CG  PHE A   1     -10.619   9.593  70.505  1.00  0.00    -0.369 A  
ATOM     20  CD1 PHE A   1      -9.800   8.743  71.257  1.00  0.00    -0.336 A  
ATOM     21  CE1 PHE A   1     -10.308   8.033  72.345  1.00  0.00    -0.355 A  
ATOM     22  CZ  PHE A   1     -11.643   8.177  72.709  1.00  0.00    -0.371 A  
ATOM     23  CE2 PHE A   1     -12.471   9.028  71.978  1.00  0.00    -0.460 A  
ATOM     24  CD2 PHE A   1     -11.965   9.729  70.879  1.00  0.00    -0.413 A  
ENDBRANCH  18  19
ENDBRANCH  14  18
ENDBRANCH  12  14
ENDBRANCH   7  10
TORSDOF 4
ENDMDL
MODEL       51
REMARK 921   NORMALIZED FREE ENERGY PREDICTED BY IDOCK:   -5.26 KCAL/MOL
REMARK 922        TOTAL FREE ENERGY PREDICTED BY IDOCK:   -7.52 KCAL/MOL
REMARK 923 INTER-LIGAND FREE ENERGY PREDICTED BY IDOCK:   -7.30 KCAL/MOL
REMARK 924 INTRA-LIGAND FREE ENERGY PREDICTED BY IDOCK:   -0.22 KCAL/MOL
REMARK 927      BINDING AFFINITY PREDICTED BY RF-SCORE:    0.00 PKD
ROOT
HETATM    1  C   UNK A   0     -11.765   5.903  71.973  1.00  0.00    -0.255 C  
HETATM    2  C   UNK A   0     -10.592   6.274  71.056  1.00  0.00    -0.289 C  
HETATM    3  C   UNK A   0     -10.118   4.986  70.360  1.00  0.00    -0.330 C  
HETATM    4  C   UNK A   0     -10.957   7.386  70.025  1.00  0.00    -0.264 C  
HETATM    5  C   UNK A   0     -11.388   8.738  70.641  1.00  0.00    -0.289 C  
HETATM    6  C   UNK A   0     -10.235   9.583  71.204  1.00  0.00    -0.300 C  
HETATM    7  C   UNK A   0      -9.011   9.705  70.273  1.00  0.00    -0.263 C  
HETATM    8  C   UNK A   0      -8.621   8.329  69.726  1.00  0.00    -0.129 C  
HETATM    9  C   UNK A   0      -9.815   7.673  69.036  1.00  0.00    -0.168 C  
ENDROOT
BRANCH   7  10
HETATM   10  C   UNK A   0      -9.201  10.726  69.136  1.00  0.00    -0.116 C  
HETATM   11  O   UNK A   0      -8.627  10.657  68.057  1.00  0.00    -0.118 OA 
ATOM     12  N   PHE A   1     -10.111  11.723  69.416  1.00  0.00    -0.335 N  
ATOM     13  H   PHE A   1     -10.514  11.763  70.353  1.00  0.00     0.000 HD 
BRANCH  12  14
ATOM     14  CA  PHE A   1     -10.529  12.729  68.435  1.00  0.00    -0.243 C  
ATOM     15  OXT PHE A   1     -12.153  11.037  67.767  1.00  0.00    -0.534 OA 
ATOM     16  C   PHE A   1     -11.625  12.122  67.549  1.00  0.00    -0.343 C  
ATOM     17  O   PHE A   1     -11.930  12.856  66.453  1.00  0.00    -0.398 OA 
BRANCH  14  18
ATOM     18  CB  PHE A   1     -10.945  14.087  69.034  1.00  0.00    -0.287 C  
BRANCH  18  19
ATOM     19  CG  PHE A   1     -11.730  14.065  70.328  1.00  0.00    -0.308 A  
ATOM     20  CD1 PHE A   1     -11.766  15.201  71.145  1.00  0.00    -0.400 A  
ATOM     21  CE1 PHE A   1     -12.513  15.214  72.323  1.00  0.00    -0.431 A  
ATOM     22  CZ  PHE A   1     -13.251  14.094  72.693  1.00  0.00    -0.612 A  
ATOM     23  CE2 PHE A   1     -13.235  12.959  71.885  1.00  0.00    -0.521 A  
ATOM     24  CD2 PHE A   1     -12.475  12.940  70.711  1.00  0.00    -0.370 A  
ENDBRANCH  18  19
ENDBRANCH  14  18
ENDBRANCH  12  14
ENDBRANCH   7  10
TORSDOF 4
ENDMDL
MODEL       52
REMARK 921   NORMALIZED FREE ENERGY PREDICTED BY IDOCK:   -5.26 KCAL/MOL
REMARK 922        TOTAL FREE ENERGY PREDICTED BY IDOCK:   -7.52 KCAL/MOL
REMARK 923 INTER-LIGAND FREE ENERGY PREDICTED BY IDOCK:   -6.50 KCAL/MOL
REMARK 924 INTRA-LIGAND FREE ENERGY PREDICTED BY IDOCK:   -1.02 KCAL/MOL
REMARK 927      BINDING AFFINITY PREDICTED BY RF-SCORE:    0.00 PKD
ROOT
HETATM    1  C   UNK A   0      -8.463   8.624  64.785  1.00  0.00    -0.168 C  
HETATM    2  C   UNK A   0      -8.080   7.996  66.131  1.00  0.00    -0.111 C  
HETATM    3  C   UNK A   0      -6.654   8.461  66.475  1.00  0.00    -0.056 C  
HETATM    4  C   UNK A   0      -9.090   8.340  67.270  1.00  0.00    -0.157 C  
HETATM    5  C   UNK A   0     -10.539   7.854  67.032  1.00  0.00    -0.381 C  
HETATM    6  C   UNK A   0     -10.753   6.347  67.244  1.00  0.00    -0.426 C  
HETATM    7  C   UNK A   0     -10.130   5.783  68.537  1.00  0.00    -0.226 C  
HETATM    8  C   UNK A   0      -8.688   6.277  68.691  1.00  0.00    -0.120 C  
HETATM    9  C   UNK A   0      -8.641   7.802  68.639  1.00  0.00    -0.129 C  
ENDROOT
BRANCH   7  10
HETATM   10  C   UNK A   0     -10.961   6.076  69.800  1.00  0.00    -0.401 C  
HETATM   11  O   UNK A   0     -12.136   6.419  69.777  1.00  0.00    -0.111 OA 
ATOM     12  N   PHE A   1     -10.279   5.882  70.983  1.00  0.00    -0.202 N  
ATOM     13  H   PHE A   1      -9.286   5.653  70.939  1.00  0.00     0.000 HD 
BRANCH  12  14
ATOM     14  CA  PHE A   1     -10.912   5.991  72.301  1.00  0.00    -0.265 C  
ATOM     15  OXT PHE A   1      -9.428   4.146  72.886  1.00  0.00    -0.120 OA 
ATOM     16  C   PHE A   1     -10.362   4.876  73.200  1.00  0.00    -0.187 C  
ATOM     17  O   PHE A   1     -11.034   4.712  74.364  1.00  0.00    -0.316 OA 
BRANCH  14  18
ATOM     18  CB  PHE A   1     -10.807   7.380  72.960  1.00  0.00    -0.423 C  
BRANCH  18  19
ATOM     19  CG  PHE A   1     -11.456   8.542  72.240  1.00  0.00    -0.445 A  
ATOM     20  CD1 PHE A   1     -10.718   9.300  71.323  1.00  0.00    -0.422 A  
ATOM     21  CE1 PHE A   1     -11.307  10.352  70.621  1.00  0.00    -0.411 A  
ATOM     22  CZ  PHE A   1     -12.653  10.650  70.814  1.00  0.00    -0.479 A  
ATOM     23  CE2 PHE A   1     -13.405   9.899  71.715  1.00  0.00    -0.501 A  
ATOM     24  CD2 PHE A   1     -12.811   8.853  72.429  1.00  0.00    -0.446 A  
ENDBRANCH  18  19
ENDBRANCH  14  18
ENDBRANCH  12  14
ENDBRANCH   7  10
TORSDOF 4
ENDMDL
MODEL       53
REMARK 921   NORMALIZED FREE ENERGY PREDICTED BY IDOCK:   -5.26 KCAL/MOL
REMARK 922        TOTAL FREE ENERGY PREDICTED BY IDOCK:   -7.51 KCAL/MOL
REMARK 923 INTER-LIGAND FREE ENERGY PREDICTED BY IDOCK:   -6.57 KCAL/MOL
REMARK 924 INTRA-LIGAND FREE ENERGY PREDICTED BY IDOCK:   -0.94 KCAL/MOL
REMARK 927      BINDING AFFINITY PREDICTED BY RF-SCORE:    0.00 PKD
ROOT
HETATM    1  C   UNK A   0      -9.930   7.485  72.949  1.00  0.00    -0.303 C  
HETATM    2  C   UNK A   0     -10.844   8.140  71.906  1.00  0.00    -0.333 C  
HETATM    3  C   UNK A   0     -12.244   8.276  72.531  1.00  0.00    -0.367 C  
HETATM    4  C   UNK A   0     -10.302   9.512  71.401  1.00  0.00    -0.216 C  
HETATM    5  C   UNK A   0      -8.923   9.458  70.703  1.00  0.00    -0.285 C  
HETATM    6  C   UNK A   0      -8.950   8.897  69.272  1.00  0.00    -0.144 C  
HETATM    7  C   UNK A   0     -10.060   9.477  68.373  1.00  0.00    -0.199 C  
HETATM    8  C   UNK A   0     -11.401   9.470  69.114  1.00  0.00     0.092 C  
HETATM    9  C   UNK A   0     -11.278  10.215  70.441  1.00  0.00    -0.402 C  
ENDROOT
BRANCH   7  10
HETATM   10  C   UNK A   0      -9.735  10.875  67.816  1.00  0.00    -0.168 C  
HETATM   11  O   UNK A   0      -8.629  11.396  67.888  1.00  0.00    -0.131 OA 
ATOM     12  N   PHE A   1     -10.792  11.493  67.183  1.00  0.00    -0.253 N  
ATOM     13  H   PHE A   1     -11.704  11.036  67.205  1.00  0.00     0.000 HD 
BRANCH  12  14
ATOM     14  CA  PHE A   1     -10.671  12.774  66.482  1.00  0.00    -0.258 C  
ATOM     15  OXT PHE A   1     -10.896  11.409  64.474  1.00  0.00    -0.325 OA 
ATOM     16  C   PHE A   1     -10.665  12.506  64.972  1.00  0.00    -0.294 C  
ATOM     17  O   PHE A   1     -10.319  13.574  64.214  1.00  0.00    -0.406 OA 
BRANCH  14  18
ATOM     18  CB  PHE A   1     -11.714  13.836  66.884  1.00  0.00    -0.424 C  
BRANCH  18  19
ATOM     19  CG  PHE A   1     -11.595  14.440  68.266  1.00  0.00    -0.359 A  
ATOM     20  CD1 PHE A   1     -10.880  15.628  68.453  1.00  0.00    -0.290 A  
ATOM     21  CE1 PHE A   1     -10.789  16.221  69.713  1.00  0.00    -0.356 A  
ATOM     22  CZ  PHE A   1     -11.430  15.641  70.803  1.00  0.00    -0.409 A  
ATOM     23  CE2 PHE A   1     -12.156  14.464  70.633  1.00  0.00    -0.404 A  
ATOM     24  CD2 PHE A   1     -12.235  13.862  69.372  1.00  0.00    -0.338 A  
ENDBRANCH  18  19
ENDBRANCH  14  18
ENDBRANCH  12  14
ENDBRANCH   7  10
TORSDOF 4
ENDMDL
MODEL       54
REMARK 921   NORMALIZED FREE ENERGY PREDICTED BY IDOCK:   -5.25 KCAL/MOL
REMARK 922        TOTAL FREE ENERGY PREDICTED BY IDOCK:   -7.50 KCAL/MOL
REMARK 923 INTER-LIGAND FREE ENERGY PREDICTED BY IDOCK:   -6.21 KCAL/MOL
REMARK 924 INTRA-LIGAND FREE ENERGY PREDICTED BY IDOCK:   -1.29 KCAL/MOL
REMARK 927      BINDING AFFINITY PREDICTED BY RF-SCORE:    0.00 PKD
ROOT
HETATM    1  C   UNK A   0     -11.710  10.245  69.362  1.00  0.00    -0.166 C  
HETATM    2  C   UNK A   0     -11.969  11.753  69.249  1.00  0.00    -0.354 C  
HETATM    3  C   UNK A   0     -12.271  12.282  70.662  1.00  0.00    -0.378 C  
HETATM    4  C   UNK A   0     -10.786  12.523  68.584  1.00  0.00    -0.280 C  
HETATM    5  C   UNK A   0     -10.454  12.094  67.136  1.00  0.00    -0.241 C  
HETATM    6  C   UNK A   0     -11.437  12.608  66.073  1.00  0.00    -0.414 C  
HETATM    7  C   UNK A   0     -11.794  14.103  66.194  1.00  0.00    -0.420 C  
HETATM    8  C   UNK A   0     -12.144  14.450  67.645  1.00  0.00    -0.312 C  
HETATM    9  C   UNK A   0     -11.004  14.045  68.577  1.00  0.00    -0.274 C  
ENDROOT
BRANCH   7  10
HETATM   10  C   UNK A   0     -10.708  15.044  65.639  1.00  0.00    -0.354 C  
HETATM   11  O   UNK A   0     -10.082  14.827  64.610  1.00  0.00    -0.209 OA 
ATOM     12  N   PHE A   1     -10.515  16.187  66.384  1.00  0.00    -0.306 N  
ATOM     13  H   PHE A   1     -11.023  16.285  67.263  1.00  0.00     0.000 HD 
BRANCH  12  14
ATOM     14  CA  PHE A   1      -9.615  17.270  65.975  1.00  0.00    -0.140 C  
ATOM     15  OXT PHE A   1     -10.888  18.594  67.579  1.00  0.00    -0.435 OA 
ATOM     16  C   PHE A   1     -10.042  18.557  66.692  1.00  0.00    -0.389 C  
ATOM     17  O   PHE A   1      -9.449  19.682  66.225  1.00  0.00    -0.368 OA 
BRANCH  14  18
ATOM     18  CB  PHE A   1      -8.114  16.969  66.154  1.00  0.00    -0.292 C  
BRANCH  18  19
ATOM     19  CG  PHE A   1      -7.719  16.051  67.289  1.00  0.00    -0.215 A  
ATOM     20  CD1 PHE A   1      -7.573  16.560  68.585  1.00  0.00    -0.213 A  
ATOM     21  CE1 PHE A   1      -7.245  15.723  69.652  1.00  0.00    -0.134 A  
ATOM     22  CZ  PHE A   1      -7.076  14.358  69.441  1.00  0.00    -0.113 A  
ATOM     23  CE2 PHE A   1      -7.230  13.833  68.159  1.00  0.00    -0.121 A  
ATOM     24  CD2 PHE A   1      -7.544  14.674  67.087  1.00  0.00    -0.078 A  
ENDBRANCH  18  19
ENDBRANCH  14  18
ENDBRANCH  12  14
ENDBRANCH   7  10
TORSDOF 4
ENDMDL
MODEL       55
REMARK 921   NORMALIZED FREE ENERGY PREDICTED BY IDOCK:   -5.22 KCAL/MOL
REMARK 922        TOTAL FREE ENERGY PREDICTED BY IDOCK:   -7.47 KCAL/MOL
REMARK 923 INTER-LIGAND FREE ENERGY PREDICTED BY IDOCK:   -6.84 KCAL/MOL
REMARK 924 INTRA-LIGAND FREE ENERGY PREDICTED BY IDOCK:   -0.63 KCAL/MOL
REMARK 927      BINDING AFFINITY PREDICTED BY RF-SCORE:    0.00 PKD
ROOT
HETATM    1  C   UNK A   0     -10.065   7.678  66.727  1.00  0.00    -0.325 C  
HETATM    2  C   UNK A   0     -10.588   8.597  67.838  1.00  0.00    -0.223 C  
HETATM    3  C   UNK A   0     -10.593   7.791  69.149  1.00  0.00    -0.193 C  
HETATM    4  C   UNK A   0      -9.762   9.914  67.974  1.00  0.00    -0.160 C  
HETATM    5  C   UNK A   0      -9.754  10.817  66.719  1.00  0.00    -0.221 C  
HETATM    6  C   UNK A   0     -11.051  11.608  66.488  1.00  0.00    -0.357 C  
HETATM    7  C   UNK A   0     -11.604  12.318  67.740  1.00  0.00    -0.416 C  
HETATM    8  C   UNK A   0     -11.615  11.358  68.934  1.00  0.00    -0.388 C  
HETATM    9  C   UNK A   0     -10.221  10.778  69.161  1.00  0.00    -0.229 C  
ENDROOT
BRANCH   7  10
HETATM   10  C   UNK A   0     -10.869  13.628  68.081  1.00  0.00    -0.246 C  
HETATM   11  O   UNK A   0     -10.982  14.212  69.151  1.00  0.00    -0.252 OA 
ATOM     12  N   PHE A   1     -10.030  14.082  67.086  1.00  0.00    -0.248 N  
ATOM     13  H   PHE A   1     -10.022  13.586  66.194  1.00  0.00     0.000 HD 
BRANCH  12  14
ATOM     14  CA  PHE A   1      -9.150  15.243  67.245  1.00  0.00    -0.198 C  
ATOM     15  OXT PHE A   1      -7.382  13.568  67.374  1.00  0.00    -0.165 OA 
ATOM     16  C   PHE A   1      -7.719  14.743  67.479  1.00  0.00    -0.194 C  
ATOM     17  O   PHE A   1      -6.849  15.701  67.879  1.00  0.00    -0.118 OA 
BRANCH  14  18
ATOM     18  CB  PHE A   1      -9.229  16.279  66.107  1.00  0.00    -0.376 C  
BRANCH  18  19
ATOM     19  CG  PHE A   1      -9.346  17.736  66.499  1.00  0.00    -0.291 A  
ATOM     20  CD1 PHE A   1     -10.530  18.215  67.072  1.00  0.00    -0.385 A  
ATOM     21  CE1 PHE A   1     -10.645  19.546  67.474  1.00  0.00    -0.599 A  
ATOM     22  CZ  PHE A   1      -9.568  20.415  67.325  1.00  0.00    -0.592 A  
ATOM     23  CE2 PHE A   1      -8.378  19.951  66.767  1.00  0.00    -0.364 A  
ATOM     24  CD2 PHE A   1      -8.267  18.621  66.351  1.00  0.00    -0.295 A  
ENDBRANCH  18  19
ENDBRANCH  14  18
ENDBRANCH  12  14
ENDBRANCH   7  10
TORSDOF 4
ENDMDL
MODEL       56
REMARK 921   NORMALIZED FREE ENERGY PREDICTED BY IDOCK:   -5.22 KCAL/MOL
REMARK 922        TOTAL FREE ENERGY PREDICTED BY IDOCK:   -7.47 KCAL/MOL
REMARK 923 INTER-LIGAND FREE ENERGY PREDICTED BY IDOCK:   -6.31 KCAL/MOL
REMARK 924 INTRA-LIGAND FREE ENERGY PREDICTED BY IDOCK:   -1.16 KCAL/MOL
REMARK 927      BINDING AFFINITY PREDICTED BY RF-SCORE:    0.00 PKD
ROOT
HETATM    1  C   UNK A   0     -10.303   9.993  66.236  1.00  0.00    -0.235 C  
HETATM    2  C   UNK A   0     -10.022  11.267  67.043  1.00  0.00    -0.226 C  
HETATM    3  C   UNK A   0      -9.053  10.895  68.180  1.00  0.00    -0.155 C  
HETATM    4  C   UNK A   0      -9.462  12.429  66.166  1.00  0.00    -0.201 C  
HETATM    5  C   UNK A   0     -10.400  12.907  65.033  1.00  0.00    -0.334 C  
HETATM    6  C   UNK A   0     -11.580  13.775  65.500  1.00  0.00    -0.335 C  
HETATM    7  C   UNK A   0     -11.203  14.897  66.488  1.00  0.00    -0.335 C  
HETATM    8  C   UNK A   0     -10.302  14.347  67.599  1.00  0.00    -0.237 C  
HETATM    9  C   UNK A   0      -9.076  13.663  66.998  1.00  0.00    -0.254 C  
ENDROOT
BRANCH   7  10
HETATM   10  C   UNK A   0     -10.570  16.127  65.811  1.00  0.00    -0.334 C  
HETATM   11  O   UNK A   0     -10.568  16.312  64.601  1.00  0.00    -0.621 OA 
ATOM     12  N   PHE A   1     -10.028  17.041  66.690  1.00  0.00    -0.289 N  
ATOM     13  H   PHE A   1     -10.006  16.805  67.682  1.00  0.00     0.000 HD 
BRANCH  12  14
ATOM     14  CA  PHE A   1      -9.480  18.333  66.268  1.00  0.00    -0.230 C  
ATOM     15  OXT PHE A   1     -10.901  19.228  68.037  1.00  0.00    -0.316 OA 
ATOM     16  C   PHE A   1     -10.158  19.441  67.085  1.00  0.00    -0.384 C  
ATOM     17  O   PHE A   1      -9.921  20.696  66.632  1.00  0.00    -0.350 OA 
BRANCH  14  18
ATOM     18  CB  PHE A   1      -7.942  18.432  66.311  1.00  0.00    -0.264 C  
BRANCH  18  19
ATOM     19  CG  PHE A   1      -7.219  17.590  67.340  1.00  0.00    -0.188 A  
ATOM     20  CD1 PHE A   1      -6.683  16.349  66.979  1.00  0.00    -0.239 A  
ATOM     21  CE1 PHE A   1      -5.982  15.574  67.903  1.00  0.00    -0.163 A  
ATOM     22  CZ  PHE A   1      -5.790  16.040  69.200  1.00  0.00    -0.120 A  
ATOM     23  CE2 PHE A   1      -6.306  17.280  69.573  1.00  0.00    -0.235 A  
ATOM     24  CD2 PHE A   1      -7.022  18.050  68.651  1.00  0.00    -0.261 A  
ENDBRANCH  18  19
ENDBRANCH  14  18
ENDBRANCH  12  14
ENDBRANCH   7  10
TORSDOF 4
ENDMDL
MODEL       57
REMARK 921   NORMALIZED FREE ENERGY PREDICTED BY IDOCK:   -5.22 KCAL/MOL
REMARK 922        TOTAL FREE ENERGY PREDICTED BY IDOCK:   -7.46 KCAL/MOL
REMARK 923 INTER-LIGAND FREE ENERGY PREDICTED BY IDOCK:   -7.01 KCAL/MOL
REMARK 924 INTRA-LIGAND FREE ENERGY PREDICTED BY IDOCK:   -0.46 KCAL/MOL
REMARK 927      BINDING AFFINITY PREDICTED BY RF-SCORE:    0.00 PKD
ROOT
HETATM    1  C   UNK A   0      -9.268   7.296  69.051  1.00  0.00    -0.139 C  
HETATM    2  C   UNK A   0      -9.793   8.186  67.918  1.00  0.00    -0.206 C  
HETATM    3  C   UNK A   0     -10.743   7.335  67.057  1.00  0.00    -0.406 C  
HETATM    4  C   UNK A   0     -10.489   9.481  68.438  1.00  0.00    -0.261 C  
HETATM    5  C   UNK A   0      -9.587  10.427  69.265  1.00  0.00    -0.226 C  
HETATM    6  C   UNK A   0      -8.589  11.250  68.435  1.00  0.00    -0.155 C  
HETATM    7  C   UNK A   0      -9.192  11.927  67.187  1.00  0.00    -0.183 C  
HETATM    8  C   UNK A   0     -10.044  10.927  66.400  1.00  0.00    -0.280 C  
HETATM    9  C   UNK A   0     -11.112  10.313  67.303  1.00  0.00    -0.215 C  
ENDROOT
BRANCH   7  10
HETATM   10  C   UNK A   0      -9.982  13.210  67.504  1.00  0.00    -0.223 C  
HETATM   11  O   UNK A   0     -10.939  13.599  66.846  1.00  0.00    -0.285 OA 
ATOM     12  N   PHE A   1      -9.547  13.881  68.626  1.00  0.00    -0.347 N  
ATOM     13  H   PHE A   1      -8.709  13.542  69.099  1.00  0.00     0.000 HD 
BRANCH  12  14
ATOM     14  CA  PHE A   1     -10.227  15.058  69.173  1.00  0.00    -0.241 C  
ATOM     15  OXT PHE A   1      -9.076  16.245  67.381  1.00  0.00    -0.194 OA 
ATOM     16  C   PHE A   1      -9.766  16.296  68.393  1.00  0.00    -0.222 C  
ATOM     17  O   PHE A   1     -10.132  17.476  68.948  1.00  0.00    -0.338 OA 
BRANCH  14  18
ATOM     18  CB  PHE A   1     -11.763  14.947  69.241  1.00  0.00    -0.344 C  
BRANCH  18  19
ATOM     19  CG  PHE A   1     -12.350  14.073  70.328  1.00  0.00    -0.425 A  
ATOM     20  CD1 PHE A   1     -13.041  14.654  71.398  1.00  0.00    -0.414 A  
ATOM     21  CE1 PHE A   1     -13.621  13.864  72.392  1.00  0.00    -0.676 A  
ATOM     22  CZ  PHE A   1     -13.533  12.477  72.318  1.00  0.00    -0.490 A  
ATOM     23  CE2 PHE A   1     -12.859  11.882  71.254  1.00  0.00    -0.391 A  
ATOM     24  CD2 PHE A   1     -12.265  12.674  70.266  1.00  0.00    -0.347 A  
ENDBRANCH  18  19
ENDBRANCH  14  18
ENDBRANCH  12  14
ENDBRANCH   7  10
TORSDOF 4
ENDMDL
MODEL       58
REMARK 921   NORMALIZED FREE ENERGY PREDICTED BY IDOCK:   -5.21 KCAL/MOL
REMARK 922        TOTAL FREE ENERGY PREDICTED BY IDOCK:   -7.46 KCAL/MOL
REMARK 923 INTER-LIGAND FREE ENERGY PREDICTED BY IDOCK:   -6.96 KCAL/MOL
REMARK 924 INTRA-LIGAND FREE ENERGY PREDICTED BY IDOCK:   -0.49 KCAL/MOL
REMARK 927      BINDING AFFINITY PREDICTED BY RF-SCORE:    0.00 PKD
ROOT
HETATM    1  C   UNK A   0      -9.917  15.051  65.815  1.00  0.00    -0.376 C  
HETATM    2  C   UNK A   0     -10.438  13.609  65.788  1.00  0.00    -0.296 C  
HETATM    3  C   UNK A   0     -10.372  13.114  64.332  1.00  0.00    -0.390 C  
HETATM    4  C   UNK A   0      -9.657  12.665  66.754  1.00  0.00    -0.241 C  
HETATM    5  C   UNK A   0      -9.722  13.055  68.249  1.00  0.00    -0.221 C  
HETATM    6  C   UNK A   0     -11.054  12.726  68.941  1.00  0.00    -0.310 C  
HETATM    7  C   UNK A   0     -11.592  11.308  68.662  1.00  0.00    -0.384 C  
HETATM    8  C   UNK A   0     -11.530  11.002  67.163  1.00  0.00    -0.099 C  
HETATM    9  C   UNK A   0     -10.109  11.199  66.639  1.00  0.00    -0.256 C  
ENDROOT
BRANCH   7  10
HETATM   10  C   UNK A   0     -10.895  10.211  69.488  1.00  0.00    -0.255 C  
HETATM   11  O   UNK A   0      -9.714  10.246  69.806  1.00  0.00    -0.220 OA 
ATOM     12  N   PHE A   1     -11.727   9.184  69.881  1.00  0.00    -0.436 N  
ATOM     13  H   PHE A   1     -12.688   9.179  69.537  1.00  0.00     0.000 HD 
BRANCH  12  14
ATOM     14  CA  PHE A   1     -11.300   8.099  70.769  1.00  0.00    -0.270 C  
ATOM     15  OXT PHE A   1     -12.434   9.400  72.492  1.00  0.00    -0.250 OA 
ATOM     16  C   PHE A   1     -11.717   8.448  72.204  1.00  0.00    -0.375 C  
ATOM     17  O   PHE A   1     -11.175   7.650  73.155  1.00  0.00    -0.391 OA 
BRANCH  14  18
ATOM     18  CB  PHE A   1     -11.769   6.692  70.349  1.00  0.00    -0.446 C  
BRANCH  18  19
ATOM     19  CG  PHE A   1     -11.029   6.024  69.210  1.00  0.00    -0.436 A  
ATOM     20  CD1 PHE A   1     -11.249   6.440  67.892  1.00  0.00    -0.262 A  
ATOM     21  CE1 PHE A   1     -10.550   5.861  66.831  1.00  0.00    -0.384 A  
ATOM     22  CZ  PHE A   1      -9.606   4.869  67.077  1.00  0.00    -0.173 A  
ATOM     23  CE2 PHE A   1      -9.367   4.452  68.385  1.00  0.00    -0.203 A  
ATOM     24  CD2 PHE A   1     -10.078   5.021  69.447  1.00  0.00    -0.288 A  
ENDBRANCH  18  19
ENDBRANCH  14  18
ENDBRANCH  12  14
ENDBRANCH   7  10
TORSDOF 4
ENDMDL
MODEL       59
REMARK 921   NORMALIZED FREE ENERGY PREDICTED BY IDOCK:   -5.20 KCAL/MOL
REMARK 922        TOTAL FREE ENERGY PREDICTED BY IDOCK:   -7.44 KCAL/MOL
REMARK 923 INTER-LIGAND FREE ENERGY PREDICTED BY IDOCK:   -7.39 KCAL/MOL
REMARK 924 INTRA-LIGAND FREE ENERGY PREDICTED BY IDOCK:   -0.05 KCAL/MOL
REMARK 927      BINDING AFFINITY PREDICTED BY RF-SCORE:    0.00 PKD
ROOT
HETATM    1  C   UNK A   0      -8.085   7.454  63.342  1.00  0.00    -0.010 C  
HETATM    2  C   UNK A   0      -8.127   8.142  64.712  1.00  0.00    -0.152 C  
HETATM    3  C   UNK A   0      -7.088   7.452  65.613  1.00  0.00    -0.065 C  
HETATM    4  C   UNK A   0      -7.884   9.681  64.625  1.00  0.00    -0.133 C  
HETATM    5  C   UNK A   0      -8.920  10.463  63.785  1.00  0.00    -0.247 C  
HETATM    6  C   UNK A   0     -10.276  10.677  64.476  1.00  0.00    -0.399 C  
HETATM    7  C   UNK A   0     -10.186  11.167  65.935  1.00  0.00    -0.303 C  
HETATM    8  C   UNK A   0      -9.169  10.328  66.715  1.00  0.00    -0.180 C  
HETATM    9  C   UNK A   0      -7.815  10.346  66.009  1.00  0.00    -0.142 C  
ENDROOT
BRANCH   7  10
HETATM   10  C   UNK A   0      -9.888  12.672  66.062  1.00  0.00    -0.254 C  
HETATM   11  O   UNK A   0      -8.912  13.125  66.648  1.00  0.00    -0.210 OA 
ATOM     12  N   PHE A   1     -10.799  13.486  65.424  1.00  0.00    -0.287 N  
ATOM     13  H   PHE A   1     -11.623  13.056  65.003  1.00  0.00     0.000 HD 
BRANCH  12  14
ATOM     14  CA  PHE A   1     -10.643  14.940  65.320  1.00  0.00    -0.401 C  
ATOM     15  OXT PHE A   1     -12.645  14.803  63.935  1.00  0.00    -0.834 OA 
ATOM     16  C   PHE A   1     -11.722  15.481  64.374  1.00  0.00    -0.242 C  
ATOM     17  O   PHE A   1     -11.545  16.771  64.002  1.00  0.00    -1.195 OA 
BRANCH  14  18
ATOM     18  CB  PHE A   1     -10.617  15.688  66.668  1.00  0.00    -0.307 C  
BRANCH  18  19
ATOM     19  CG  PHE A   1      -9.903  17.021  66.710  1.00  0.00    -0.283 A  
ATOM     20  CD1 PHE A   1     -10.588  18.171  67.119  1.00  0.00    -0.362 A  
ATOM     21  CE1 PHE A   1      -9.938  19.404  67.200  1.00  0.00    -0.463 A  
ATOM     22  CZ  PHE A   1      -8.585  19.499  66.888  1.00  0.00    -0.341 A  
ATOM     23  CE2 PHE A   1      -7.885  18.362  66.490  1.00  0.00    -0.279 A  
ATOM     24  CD2 PHE A   1      -8.540  17.130  66.395  1.00  0.00    -0.300 A  
ENDBRANCH  18  19
ENDBRANCH  14  18
ENDBRANCH  12  14
ENDBRANCH   7  10
TORSDOF 4
ENDMDL
MODEL       60
REMARK 921   NORMALIZED FREE ENERGY PREDICTED BY IDOCK:   -5.18 KCAL/MOL
REMARK 922        TOTAL FREE ENERGY PREDICTED BY IDOCK:   -7.42 KCAL/MOL
REMARK 923 INTER-LIGAND FREE ENERGY PREDICTED BY IDOCK:   -6.81 KCAL/MOL
REMARK 924 INTRA-LIGAND FREE ENERGY PREDICTED BY IDOCK:   -0.61 KCAL/MOL
REMARK 927      BINDING AFFINITY PREDICTED BY RF-SCORE:    0.00 PKD
ROOT
HETATM    1  C   UNK A   0     -10.862  14.099  64.725  1.00  0.00    -0.426 C  
HETATM    2  C   UNK A   0     -10.960  13.590  66.169  1.00  0.00    -0.289 C  
HETATM    3  C   UNK A   0     -11.897  14.538  66.937  1.00  0.00    -0.399 C  
HETATM    4  C   UNK A   0     -11.439  12.108  66.258  1.00  0.00    -0.433 C  
HETATM    5  C   UNK A   0     -10.519  11.077  65.562  1.00  0.00    -0.302 C  
HETATM    6  C   UNK A   0      -9.229  10.747  66.329  1.00  0.00    -0.195 C  
HETATM    7  C   UNK A   0      -9.427  10.464  67.832  1.00  0.00    -0.150 C  
HETATM    8  C   UNK A   0     -10.318  11.539  68.462  1.00  0.00    -0.224 C  
HETATM    9  C   UNK A   0     -11.643  11.639  67.708  1.00  0.00    -0.359 C  
ENDROOT
BRANCH   7  10
HETATM   10  C   UNK A   0      -9.961   9.049  68.127  1.00  0.00    -0.175 C  
HETATM   11  O   UNK A   0     -10.634   8.398  67.339  1.00  0.00    -0.281 OA 
ATOM     12  N   PHE A   1      -9.586   8.548  69.355  1.00  0.00    -0.169 N  
ATOM     13  H   PHE A   1      -9.075   9.158  69.993  1.00  0.00     0.000 HD 
BRANCH  12  14
ATOM     14  CA  PHE A   1      -9.885   7.180  69.790  1.00  0.00    -0.173 C  
ATOM     15  OXT PHE A   1      -7.553   6.756  69.218  1.00  0.00    -0.092 OA 
ATOM     16  C   PHE A   1      -8.644   6.310  69.554  1.00  0.00    -0.132 C  
ATOM     17  O   PHE A   1      -8.859   4.979  69.687  1.00  0.00    -0.092 OA 
BRANCH  14  18
ATOM     18  CB  PHE A   1     -10.421   7.059  71.230  1.00  0.00    -0.224 C  
BRANCH  18  19
ATOM     19  CG  PHE A   1     -11.789   7.639  71.514  1.00  0.00    -0.323 A  
ATOM     20  CD1 PHE A   1     -11.920   8.986  71.871  1.00  0.00    -0.445 A  
ATOM     21  CE1 PHE A   1     -13.175   9.550  72.101  1.00  0.00    -0.539 A  
ATOM     22  CZ  PHE A   1     -14.323   8.776  71.959  1.00  0.00    -0.466 A  
ATOM     23  CE2 PHE A   1     -14.212   7.435  71.593  1.00  0.00    -0.583 A  
ATOM     24  CD2 PHE A   1     -12.952   6.867  71.376  1.00  0.00    -0.339 A  
ENDBRANCH  18  19
ENDBRANCH  14  18
ENDBRANCH  12  14
ENDBRANCH   7  10
TORSDOF 4
ENDMDL
MODEL       61
REMARK 921   NORMALIZED FREE ENERGY PREDICTED BY IDOCK:   -5.18 KCAL/MOL
REMARK 922        TOTAL FREE ENERGY PREDICTED BY IDOCK:   -7.42 KCAL/MOL
REMARK 923 INTER-LIGAND FREE ENERGY PREDICTED BY IDOCK:   -6.08 KCAL/MOL
REMARK 924 INTRA-LIGAND FREE ENERGY PREDICTED BY IDOCK:   -1.34 KCAL/MOL
REMARK 927      BINDING AFFINITY PREDICTED BY RF-SCORE:    0.00 PKD
ROOT
HETATM    1  C   UNK A   0     -11.287   5.125  73.118  1.00  0.00    -0.385 C  
HETATM    2  C   UNK A   0     -10.544   6.266  72.413  1.00  0.00    -0.241 C  
HETATM    3  C   UNK A   0      -9.159   5.737  71.999  1.00  0.00    -0.143 C  
HETATM    4  C   UNK A   0     -11.330   6.840  71.194  1.00  0.00    -0.342 C  
HETATM    5  C   UNK A   0     -12.711   7.449  71.531  1.00  0.00    -0.409 C  
HETATM    6  C   UNK A   0     -12.658   8.832  72.198  1.00  0.00    -0.463 C  
HETATM    7  C   UNK A   0     -11.702   9.837  71.522  1.00  0.00    -0.450 C  
HETATM    8  C   UNK A   0     -10.347   9.179  71.248  1.00  0.00    -0.405 C  
HETATM    9  C   UNK A   0     -10.531   7.905  70.425  1.00  0.00    -0.218 C  
ENDROOT
BRANCH   7  10
HETATM   10  C   UNK A   0     -12.282  10.477  70.247  1.00  0.00    -0.311 C  
HETATM   11  O   UNK A   0     -13.440  10.328  69.877  1.00  0.00     0.170 OA 
ATOM     12  N   PHE A   1     -11.393  11.276  69.560  1.00  0.00    -0.273 N  
ATOM     13  H   PHE A   1     -10.427  11.315  69.883  1.00  0.00     0.000 HD 
BRANCH  12  14
ATOM     14  CA  PHE A   1     -11.769  12.071  68.387  1.00  0.00    -0.332 C  
ATOM     15  OXT PHE A   1     -11.175  13.969  69.798  1.00  0.00    -0.215 OA 
ATOM     16  C   PHE A   1     -11.661  13.558  68.750  1.00  0.00    -0.325 C  
ATOM     17  O   PHE A   1     -12.207  14.398  67.838  1.00  0.00    -0.299 OA 
BRANCH  14  18
ATOM     18  CB  PHE A   1     -11.002  11.726  67.095  1.00  0.00    -0.326 C  
BRANCH  18  19
ATOM     19  CG  PHE A   1     -10.148  10.476  67.106  1.00  0.00    -0.253 A  
ATOM     20  CD1 PHE A   1     -10.729   9.228  66.850  1.00  0.00    -0.164 A  
ATOM     21  CE1 PHE A   1      -9.953   8.069  66.819  1.00  0.00    -0.344 A  
ATOM     22  CZ  PHE A   1      -8.579   8.144  67.026  1.00  0.00    -0.124 A  
ATOM     23  CE2 PHE A   1      -7.984   9.380  67.271  1.00  0.00    -0.106 A  
ATOM     24  CD2 PHE A   1      -8.763  10.540  67.316  1.00  0.00    -0.126 A  
ENDBRANCH  18  19
ENDBRANCH  14  18
ENDBRANCH  12  14
ENDBRANCH   7  10
TORSDOF 4
ENDMDL
MODEL       62
REMARK 921   NORMALIZED FREE ENERGY PREDICTED BY IDOCK:   -5.15 KCAL/MOL
REMARK 922        TOTAL FREE ENERGY PREDICTED BY IDOCK:   -7.38 KCAL/MOL
REMARK 923 INTER-LIGAND FREE ENERGY PREDICTED BY IDOCK:   -6.69 KCAL/MOL
REMARK 924 INTRA-LIGAND FREE ENERGY PREDICTED BY IDOCK:   -0.68 KCAL/MOL
REMARK 927      BINDING AFFINITY PREDICTED BY RF-SCORE:    0.00 PKD
ROOT
HETATM    1  C   UNK A   0      -9.810  20.494  67.391  1.00  0.00    -0.574 C  
HETATM    2  C   UNK A   0      -8.835  19.312  67.316  1.00  0.00    -0.329 C  
HETATM    3  C   UNK A   0      -7.433  19.840  67.665  1.00  0.00    -0.314 C  
HETATM    4  C   UNK A   0      -9.250  18.124  68.237  1.00  0.00    -0.307 C  
HETATM    5  C   UNK A   0     -10.625  17.492  67.916  1.00  0.00    -0.390 C  
HETATM    6  C   UNK A   0     -10.641  16.586  66.675  1.00  0.00    -0.216 C  
HETATM    7  C   UNK A   0      -9.478  15.576  66.600  1.00  0.00    -0.281 C  
HETATM    8  C   UNK A   0      -8.148  16.274  66.896  1.00  0.00    -0.270 C  
HETATM    9  C   UNK A   0      -8.211  16.990  68.243  1.00  0.00    -0.227 C  
ENDROOT
BRANCH   7  10
HETATM   10  C   UNK A   0      -9.675  14.342  67.500  1.00  0.00    -0.223 C  
HETATM   11  O   UNK A   0      -8.780  13.555  67.782  1.00  0.00    -0.165 OA 
ATOM     12  N   PHE A   1     -10.951  14.206  68.004  1.00  0.00    -0.250 N  
ATOM     13  H   PHE A   1     -11.670  14.858  67.688  1.00  0.00     0.000 HD 
BRANCH  12  14
ATOM     14  CA  PHE A   1     -11.327  13.172  68.972  1.00  0.00    -0.282 C  
ATOM     15  OXT PHE A   1     -12.571  14.977  70.039  1.00  0.00    -0.292 OA 
ATOM     16  C   PHE A   1     -12.164  13.821  70.082  1.00  0.00    -0.356 C  
ATOM     17  O   PHE A   1     -12.374  13.030  71.161  1.00  0.00    -0.322 OA 
BRANCH  14  18
ATOM     18  CB  PHE A   1     -12.018  11.935  68.365  1.00  0.00    -0.246 C  
BRANCH  18  19
ATOM     19  CG  PHE A   1     -11.275  10.618  68.436  1.00  0.00    -0.347 A  
ATOM     20  CD1 PHE A   1     -10.782  10.028  67.266  1.00  0.00    -0.309 A  
ATOM     21  CE1 PHE A   1     -10.062   8.833  67.313  1.00  0.00    -0.301 A  
ATOM     22  CZ  PHE A   1      -9.809   8.220  68.537  1.00  0.00    -0.188 A  
ATOM     23  CE2 PHE A   1     -10.283   8.801  69.712  1.00  0.00    -0.205 A  
ATOM     24  CD2 PHE A   1     -11.016   9.991  69.663  1.00  0.00    -0.301 A  
ENDBRANCH  18  19
ENDBRANCH  14  18
ENDBRANCH  12  14
ENDBRANCH   7  10
TORSDOF 4
ENDMDL
MODEL       63
REMARK 921   NORMALIZED FREE ENERGY PREDICTED BY IDOCK:   -5.12 KCAL/MOL
REMARK 922        TOTAL FREE ENERGY PREDICTED BY IDOCK:   -7.35 KCAL/MOL
REMARK 923 INTER-LIGAND FREE ENERGY PREDICTED BY IDOCK:   -7.11 KCAL/MOL
REMARK 924 INTRA-LIGAND FREE ENERGY PREDICTED BY IDOCK:   -0.24 KCAL/MOL
REMARK 927      BINDING AFFINITY PREDICTED BY RF-SCORE:    0.00 PKD
ROOT
HETATM    1  C   UNK A   0     -11.217   2.866  73.360  1.00  0.00    -0.259 C  
HETATM    2  C   UNK A   0      -9.991   3.758  73.127  1.00  0.00    -0.192 C  
HETATM    3  C   UNK A   0      -8.821   2.846  72.720  1.00  0.00    -0.096 C  
HETATM    4  C   UNK A   0     -10.247   4.876  72.070  1.00  0.00    -0.263 C  
HETATM    5  C   UNK A   0     -11.370   5.876  72.430  1.00  0.00    -0.358 C  
HETATM    6  C   UNK A   0     -10.987   6.916  73.494  1.00  0.00    -0.153 C  
HETATM    7  C   UNK A   0      -9.621   7.596  73.268  1.00  0.00    -0.326 C  
HETATM    8  C   UNK A   0      -8.552   6.546  72.950  1.00  0.00    -0.125 C  
HETATM    9  C   UNK A   0      -8.983   5.694  71.758  1.00  0.00    -0.142 C  
ENDROOT
BRANCH   7  10
HETATM   10  C   UNK A   0      -9.653   8.705  72.200  1.00  0.00    -0.307 C  
HETATM   11  O   UNK A   0      -8.650   9.197  71.701  1.00  0.00    -0.342 OA 
ATOM     12  N   PHE A   1     -10.922   9.083  71.815  1.00  0.00    -0.359 N  
ATOM     13  H   PHE A   1     -11.719   8.681  72.308  1.00  0.00     0.000 HD 
BRANCH  12  14
ATOM     14  CA  PHE A   1     -11.182  10.036  70.732  1.00  0.00    -0.352 C  
ATOM     15  OXT PHE A   1     -10.529   8.185  69.286  1.00  0.00    -0.220 OA 
ATOM     16  C   PHE A   1     -10.820   9.371  69.398  1.00  0.00    -0.189 C  
ATOM     17  O   PHE A   1     -10.784  10.217  68.341  1.00  0.00    -0.199 OA 
BRANCH  14  18
ATOM     18  CB  PHE A   1     -12.601  10.636  70.722  1.00  0.00    -0.479 C  
BRANCH  18  19
ATOM     19  CG  PHE A   1     -12.739  12.104  71.061  1.00  0.00    -0.322 A  
ATOM     20  CD1 PHE A   1     -12.137  13.072  70.248  1.00  0.00    -0.388 A  
ATOM     21  CE1 PHE A   1     -12.282  14.432  70.523  1.00  0.00    -0.411 A  
ATOM     22  CZ  PHE A   1     -13.049  14.845  71.608  1.00  0.00    -0.424 A  
ATOM     23  CE2 PHE A   1     -13.665  13.896  72.421  1.00  0.00    -0.678 A  
ATOM     24  CD2 PHE A   1     -13.508  12.532  72.154  1.00  0.00    -0.523 A  
ENDBRANCH  18  19
ENDBRANCH  14  18
ENDBRANCH  12  14
ENDBRANCH   7  10
TORSDOF 4
ENDMDL
MODEL       64
REMARK 921   NORMALIZED FREE ENERGY PREDICTED BY IDOCK:   -5.06 KCAL/MOL
REMARK 922        TOTAL FREE ENERGY PREDICTED BY IDOCK:   -7.27 KCAL/MOL
REMARK 923 INTER-LIGAND FREE ENERGY PREDICTED BY IDOCK:   -6.67 KCAL/MOL
REMARK 924 INTRA-LIGAND FREE ENERGY PREDICTED BY IDOCK:   -0.59 KCAL/MOL
REMARK 927      BINDING AFFINITY PREDICTED BY RF-SCORE:    0.00 PKD
ROOT
HETATM    1  C   UNK A   0      -8.994  17.176  67.977  1.00  0.00    -0.233 C  
HETATM    2  C   UNK A   0     -10.058  16.888  66.910  1.00  0.00    -0.289 C  
HETATM    3  C   UNK A   0     -10.107  18.098  65.961  1.00  0.00    -0.272 C  
HETATM    4  C   UNK A   0      -9.797  15.558  66.138  1.00  0.00    -0.342 C  
HETATM    5  C   UNK A   0      -9.792  14.282  67.011  1.00  0.00    -0.254 C  
HETATM    6  C   UNK A   0     -11.183  13.799  67.451  1.00  0.00    -0.330 C  
HETATM    7  C   UNK A   0     -12.237  13.758  66.326  1.00  0.00    -0.489 C  
HETATM    8  C   UNK A   0     -12.209  15.063  65.525  1.00  0.00     0.140 C  
HETATM    9  C   UNK A   0     -10.802  15.332  64.996  1.00  0.00    -0.457 C  
ENDROOT
BRANCH   7  10
HETATM   10  C   UNK A   0     -12.106  12.532  65.404  1.00  0.00    -0.435 C  
HETATM   11  O   UNK A   0     -12.927  12.237  64.544  1.00  0.00    -0.738 OA 
ATOM     12  N   PHE A   1     -10.956  11.797  65.597  1.00  0.00    -0.300 N  
ATOM     13  H   PHE A   1     -10.339  12.056  66.367  1.00  0.00     0.000 HD 
BRANCH  12  14
ATOM     14  CA  PHE A   1     -10.576  10.661  64.752  1.00  0.00    -0.114 C  
ATOM     15  OXT PHE A   1      -9.676  12.382  63.279  1.00  0.00    -0.301 OA 
ATOM     16  C   PHE A   1      -9.950  11.201  63.460  1.00  0.00    -0.379 C  
ATOM     17  O   PHE A   1      -9.775  10.271  62.491  1.00  0.00    -0.262 OA 
BRANCH  14  18
ATOM     18  CB  PHE A   1      -9.685   9.609  65.441  1.00  0.00    -0.365 C  
BRANCH  18  19
ATOM     19  CG  PHE A   1      -9.600   9.650  66.951  1.00  0.00    -0.217 A  
ATOM     20  CD1 PHE A   1      -8.494  10.238  67.575  1.00  0.00    -0.118 A  
ATOM     21  CE1 PHE A   1      -8.413  10.318  68.966  1.00  0.00    -0.150 A  
ATOM     22  CZ  PHE A   1      -9.450   9.827  69.753  1.00  0.00    -0.253 A  
ATOM     23  CE2 PHE A   1     -10.564   9.249  69.147  1.00  0.00    -0.228 A  
ATOM     24  CD2 PHE A   1     -10.638   9.155  67.754  1.00  0.00    -0.289 A  
ENDBRANCH  18  19
ENDBRANCH  14  18
ENDBRANCH  12  14
ENDBRANCH   7  10
TORSDOF 4
ENDMDL
MODEL       65
REMARK 921   NORMALIZED FREE ENERGY PREDICTED BY IDOCK:   -5.04 KCAL/MOL
REMARK 922        TOTAL FREE ENERGY PREDICTED BY IDOCK:   -7.25 KCAL/MOL
REMARK 923 INTER-LIGAND FREE ENERGY PREDICTED BY IDOCK:   -6.02 KCAL/MOL
REMARK 924 INTRA-LIGAND FREE ENERGY PREDICTED BY IDOCK:   -1.23 KCAL/MOL
REMARK 927      BINDING AFFINITY PREDICTED BY RF-SCORE:    0.00 PKD
ROOT
HETATM    1  C   UNK A   0      -7.442   4.129  66.414  1.00  0.00    -0.084 C  
HETATM    2  C   UNK A   0      -8.746   4.791  66.877  1.00  0.00    -0.107 C  
HETATM    3  C   UNK A   0      -9.660   3.685  67.434  1.00  0.00    -0.197 C  
HETATM    4  C   UNK A   0      -8.512   5.926  67.921  1.00  0.00    -0.107 C  
HETATM    5  C   UNK A   0      -7.651   7.110  67.422  1.00  0.00    -0.109 C  
HETATM    6  C   UNK A   0      -8.378   8.078  66.475  1.00  0.00    -0.121 C  
HETATM    7  C   UNK A   0      -9.783   8.506  66.944  1.00  0.00    -0.286 C  
HETATM    8  C   UNK A   0     -10.590   7.284  67.392  1.00  0.00    -0.370 C  
HETATM    9  C   UNK A   0      -9.828   6.508  68.464  1.00  0.00    -0.140 C  
ENDROOT
BRANCH   7  10
HETATM   10  C   UNK A   0      -9.763   9.594  68.035  1.00  0.00    -0.146 C  
HETATM   11  O   UNK A   0      -8.762  10.225  68.348  1.00  0.00    -0.122 OA 
ATOM     12  N   PHE A   1     -10.989   9.834  68.617  1.00  0.00    -0.402 N  
ATOM     13  H   PHE A   1     -11.775   9.238  68.357  1.00  0.00     0.000 HD 
BRANCH  12  14
ATOM     14  CA  PHE A   1     -11.220  10.905  69.591  1.00  0.00    -0.282 C  
ATOM     15  OXT PHE A   1     -12.226  12.068  67.698  1.00  0.00    -0.484 OA 
ATOM     16  C   PHE A   1     -11.844  12.103  68.863  1.00  0.00    -0.304 C  
ATOM     17  O   PHE A   1     -11.886  13.242  69.593  1.00  0.00    -0.300 OA 
BRANCH  14  18
ATOM     18  CB  PHE A   1     -12.030  10.489  70.834  1.00  0.00    -0.481 C  
BRANCH  18  19
ATOM     19  CG  PHE A   1     -11.850   9.074  71.340  1.00  0.00    -0.395 A  
ATOM     20  CD1 PHE A   1     -12.912   8.164  71.272  1.00  0.00    -0.183 A  
ATOM     21  CE1 PHE A   1     -12.756   6.845  71.698  1.00  0.00    -0.396 A  
ATOM     22  CZ  PHE A   1     -11.527   6.411  72.183  1.00  0.00    -0.344 A  
ATOM     23  CE2 PHE A   1     -10.455   7.300  72.247  1.00  0.00    -0.246 A  
ATOM     24  CD2 PHE A   1     -10.616   8.626  71.833  1.00  0.00    -0.411 A  
ENDBRANCH  18  19
ENDBRANCH  14  18
ENDBRANCH  12  14
ENDBRANCH   7  10
TORSDOF 4
ENDMDL
MODEL       66
REMARK 921   NORMALIZED FREE ENERGY PREDICTED BY IDOCK:   -5.04 KCAL/MOL
REMARK 922        TOTAL FREE ENERGY PREDICTED BY IDOCK:   -7.24 KCAL/MOL
REMARK 923 INTER-LIGAND FREE ENERGY PREDICTED BY IDOCK:   -6.91 KCAL/MOL
REMARK 924 INTRA-LIGAND FREE ENERGY PREDICTED BY IDOCK:   -0.33 KCAL/MOL
REMARK 927      BINDING AFFINITY PREDICTED BY RF-SCORE:    0.00 PKD
ROOT
HETATM    1  C   UNK A   0      -7.294  19.941  67.244  1.00  0.00    -0.292 C  
HETATM    2  C   UNK A   0      -8.707  19.377  67.436  1.00  0.00    -0.343 C  
HETATM    3  C   UNK A   0      -9.702  20.536  67.246  1.00  0.00    -0.600 C  
HETATM    4  C   UNK A   0      -9.019  18.186  66.479  1.00  0.00    -0.288 C  
HETATM    5  C   UNK A   0      -8.102  16.952  66.644  1.00  0.00    -0.298 C  
HETATM    6  C   UNK A   0      -8.403  16.089  67.880  1.00  0.00    -0.158 C  
HETATM    7  C   UNK A   0      -9.896  15.766  68.092  1.00  0.00    -0.209 C  
HETATM    8  C   UNK A   0     -10.740  17.036  67.946  1.00  0.00    -0.348 C  
HETATM    9  C   UNK A   0     -10.473  17.699  66.597  1.00  0.00    -0.286 C  
ENDROOT
BRANCH   7  10
HETATM   10  C   UNK A   0     -10.417  14.639  67.181  1.00  0.00    -0.268 C  
HETATM   11  O   UNK A   0     -11.377  14.760  66.431  1.00  0.00    -0.345 OA 
ATOM     12  N   PHE A   1      -9.686  13.473  67.249  1.00  0.00    -0.230 N  
ATOM     13  H   PHE A   1      -8.933  13.411  67.934  1.00  0.00     0.000 HD 
BRANCH  12  14
ATOM     14  CA  PHE A   1      -9.936  12.316  66.383  1.00  0.00    -0.228 C  
ATOM     15  OXT PHE A   1      -7.698  11.635  67.069  1.00  0.00    -0.148 OA 
ATOM     16  C   PHE A   1      -8.672  11.449  66.348  1.00  0.00    -0.185 C  
ATOM     17  O   PHE A   1      -8.683  10.480  65.401  1.00  0.00    -0.172 OA 
BRANCH  14  18
ATOM     18  CB  PHE A   1     -11.196  11.501  66.738  1.00  0.00    -0.350 C  
BRANCH  18  19
ATOM     19  CG  PHE A   1     -11.291  10.942  68.140  1.00  0.00    -0.383 A  
ATOM     20  CD1 PHE A   1     -10.596   9.775  68.479  1.00  0.00    -0.252 A  
ATOM     21  CE1 PHE A   1     -10.641   9.264  69.777  1.00  0.00    -0.244 A  
ATOM     22  CZ  PHE A   1     -11.370   9.925  70.761  1.00  0.00    -0.430 A  
ATOM     23  CE2 PHE A   1     -12.058  11.094  70.444  1.00  0.00    -0.475 A  
ATOM     24  CD2 PHE A   1     -12.025  11.599  69.140  1.00  0.00    -0.378 A  
ENDBRANCH  18  19
ENDBRANCH  14  18
ENDBRANCH  12  14
ENDBRANCH   7  10
TORSDOF 4
ENDMDL
MODEL       67
REMARK 921   NORMALIZED FREE ENERGY PREDICTED BY IDOCK:   -5.03 KCAL/MOL
REMARK 922        TOTAL FREE ENERGY PREDICTED BY IDOCK:   -7.23 KCAL/MOL
REMARK 923 INTER-LIGAND FREE ENERGY PREDICTED BY IDOCK:   -6.87 KCAL/MOL
REMARK 924 INTRA-LIGAND FREE ENERGY PREDICTED BY IDOCK:   -0.36 KCAL/MOL
REMARK 927      BINDING AFFINITY PREDICTED BY RF-SCORE:    0.00 PKD
ROOT
HETATM    1  C   UNK A   0     -10.490  17.498  68.513  1.00  0.00    -0.361 C  
HETATM    2  C   UNK A   0     -10.724  16.990  67.085  1.00  0.00    -0.177 C  
HETATM    3  C   UNK A   0     -10.195  18.061  66.116  1.00  0.00    -0.364 C  
HETATM    4  C   UNK A   0     -10.069  15.599  66.821  1.00  0.00    -0.277 C  
HETATM    5  C   UNK A   0     -10.589  14.448  67.714  1.00  0.00    -0.246 C  
HETATM    6  C   UNK A   0     -11.976  13.912  67.327  1.00  0.00    -0.446 C  
HETATM    7  C   UNK A   0     -12.166  13.642  65.821  1.00  0.00    -0.503 C  
HETATM    8  C   UNK A   0     -11.662  14.833  65.001  1.00  0.00    -0.364 C  
HETATM    9  C   UNK A   0     -10.211  15.148  65.358  1.00  0.00    -0.402 C  
ENDROOT
BRANCH   7  10
HETATM   10  C   UNK A   0     -11.528  12.324  65.346  1.00  0.00    -0.354 C  
HETATM   11  O   UNK A   0     -11.513  11.958  64.177  1.00  0.00    -0.356 OA 
ATOM     12  N   PHE A   1     -10.930  11.590  66.348  1.00  0.00    -0.291 N  
ATOM     13  H   PHE A   1     -11.026  11.916  67.310  1.00  0.00     0.000 HD 
BRANCH  12  14
ATOM     14  CA  PHE A   1     -10.165  10.365  66.100  1.00  0.00    -0.223 C  
ATOM     15  OXT PHE A   1      -8.238  11.760  66.633  1.00  0.00    -0.171 OA 
ATOM     16  C   PHE A   1      -8.671  10.688  66.225  1.00  0.00    -0.156 C  
ATOM     17  O   PHE A   1      -7.847   9.707  65.786  1.00  0.00    -0.102 OA 
BRANCH  14  18
ATOM     18  CB  PHE A   1     -10.577   9.156  66.963  1.00  0.00    -0.266 C  
BRANCH  18  19
ATOM     19  CG  PHE A   1     -10.748   9.388  68.448  1.00  0.00    -0.213 A  
ATOM     20  CD1 PHE A   1     -11.535  10.451  68.906  1.00  0.00    -0.251 A  
ATOM     21  CE1 PHE A   1     -11.735  10.660  70.271  1.00  0.00    -0.433 A  
ATOM     22  CZ  PHE A   1     -11.165   9.794  71.200  1.00  0.00    -0.444 A  
ATOM     23  CE2 PHE A   1     -10.388   8.724  70.760  1.00  0.00    -0.264 A  
ATOM     24  CD2 PHE A   1     -10.175   8.523  69.393  1.00  0.00    -0.211 A  
ENDBRANCH  18  19
ENDBRANCH  14  18
ENDBRANCH  12  14
ENDBRANCH   7  10
TORSDOF 4
ENDMDL
MODEL       68
REMARK 921   NORMALIZED FREE ENERGY PREDICTED BY IDOCK:   -5.03 KCAL/MOL
REMARK 922        TOTAL FREE ENERGY PREDICTED BY IDOCK:   -7.23 KCAL/MOL
REMARK 923 INTER-LIGAND FREE ENERGY PREDICTED BY IDOCK:   -6.20 KCAL/MOL
REMARK 924 INTRA-LIGAND FREE ENERGY PREDICTED BY IDOCK:   -1.03 KCAL/MOL
REMARK 927      BINDING AFFINITY PREDICTED BY RF-SCORE:    0.00 PKD
ROOT
HETATM    1  C   UNK A   0     -11.782  14.395  67.504  1.00  0.00    -0.416 C  
HETATM    2  C   UNK A   0     -11.434  13.289  68.508  1.00  0.00    -0.347 C  
HETATM    3  C   UNK A   0     -12.056  13.674  69.862  1.00  0.00    -0.406 C  
HETATM    4  C   UNK A   0     -11.900  11.876  68.039  1.00  0.00    -0.323 C  
HETATM    5  C   UNK A   0     -11.274  11.384  66.713  1.00  0.00    -0.319 C  
HETATM    6  C   UNK A   0      -9.818  10.908  66.829  1.00  0.00    -0.231 C  
HETATM    7  C   UNK A   0      -9.540   9.964  68.016  1.00  0.00    -0.155 C  
HETATM    8  C   UNK A   0     -10.158  10.528  69.299  1.00  0.00    -0.244 C  
HETATM    9  C   UNK A   0     -11.649  10.790  69.099  1.00  0.00    -0.376 C  
ENDROOT
BRANCH   7  10
HETATM   10  C   UNK A   0      -9.991   8.512  67.767  1.00  0.00    -0.190 C  
HETATM   11  O   UNK A   0     -10.758   8.182  66.871  1.00  0.00    -0.309 OA 
ATOM     12  N   PHE A   1      -9.428   7.590  68.622  1.00  0.00    -0.146 N  
ATOM     13  H   PHE A   1      -8.843   7.931  69.386  1.00  0.00     0.000 HD 
BRANCH  12  14
ATOM     14  CA  PHE A   1      -9.628   6.144  68.489  1.00  0.00    -0.119 C  
ATOM     15  OXT PHE A   1      -7.213   6.094  68.159  1.00  0.00    -0.079 OA 
ATOM     16  C   PHE A   1      -8.282   5.494  68.147  1.00  0.00    -0.096 C  
ATOM     17  O   PHE A   1      -8.367   4.198  67.761  1.00  0.00    -0.094 OA 
BRANCH  14  18
ATOM     18  CB  PHE A   1     -10.314   5.470  69.694  1.00  0.00    -0.359 C  
BRANCH  18  19
ATOM     19  CG  PHE A   1     -10.833   6.371  70.793  1.00  0.00    -0.321 A  
ATOM     20  CD1 PHE A   1      -9.989   6.753  71.843  1.00  0.00    -0.187 A  
ATOM     21  CE1 PHE A   1     -10.437   7.613  72.847  1.00  0.00    -0.394 A  
ATOM     22  CZ  PHE A   1     -11.732   8.119  72.804  1.00  0.00    -0.334 A  
ATOM     23  CE2 PHE A   1     -12.581   7.759  71.760  1.00  0.00    -0.356 A  
ATOM     24  CD2 PHE A   1     -12.137   6.886  70.761  1.00  0.00    -0.400 A  
ENDBRANCH  18  19
ENDBRANCH  14  18
ENDBRANCH  12  14
ENDBRANCH   7  10
TORSDOF 4
ENDMDL
MODEL       69
REMARK 921   NORMALIZED FREE ENERGY PREDICTED BY IDOCK:   -5.03 KCAL/MOL
REMARK 922        TOTAL FREE ENERGY PREDICTED BY IDOCK:   -7.23 KCAL/MOL
REMARK 923 INTER-LIGAND FREE ENERGY PREDICTED BY IDOCK:   -6.58 KCAL/MOL
REMARK 924 INTRA-LIGAND FREE ENERGY PREDICTED BY IDOCK:   -0.65 KCAL/MOL
REMARK 927      BINDING AFFINITY PREDICTED BY RF-SCORE:    0.00 PKD
ROOT
HETATM    1  C   UNK A   0      -8.942   9.838  64.374  1.00  0.00    -0.284 C  
HETATM    2  C   UNK A   0      -9.634  10.541  65.548  1.00  0.00    -0.282 C  
HETATM    3  C   UNK A   0     -10.782  11.389  64.974  1.00  0.00    -0.340 C  
HETATM    4  C   UNK A   0     -10.141   9.545  66.637  1.00  0.00    -0.321 C  
HETATM    5  C   UNK A   0      -9.041   8.692  67.311  1.00  0.00    -0.152 C  
HETATM    6  C   UNK A   0      -8.186   9.446  68.342  1.00  0.00    -0.117 C  
HETATM    7  C   UNK A   0      -8.990  10.299  69.344  1.00  0.00    -0.190 C  
HETATM    8  C   UNK A   0     -10.036  11.141  68.607  1.00  0.00    -0.210 C  
HETATM    9  C   UNK A   0     -10.932  10.245  67.754  1.00  0.00    -0.360 C  
ENDROOT
BRANCH   7  10
HETATM   10  C   UNK A   0      -9.629   9.478  70.479  1.00  0.00    -0.251 C  
HETATM   11  O   UNK A   0      -9.027   9.121  71.483  1.00  0.00    -0.319 OA 
ATOM     12  N   PHE A   1     -10.967   9.202  70.293  1.00  0.00    -0.239 N  
ATOM     13  H   PHE A   1     -11.401   9.474  69.411  1.00  0.00     0.000 HD 
BRANCH  12  14
ATOM     14  CA  PHE A   1     -11.797   8.535  71.301  1.00  0.00    -0.291 C  
ATOM     15  OXT PHE A   1     -13.237  10.486  71.040  1.00  0.00    -0.363 OA 
ATOM     16  C   PHE A   1     -12.976   9.454  71.648  1.00  0.00    -0.391 C  
ATOM     17  O   PHE A   1     -13.686   9.068  72.735  1.00  0.00    -0.434 OA 
BRANCH  14  18
ATOM     18  CB  PHE A   1     -12.254   7.111  70.928  1.00  0.00    -0.354 C  
BRANCH  18  19
ATOM     19  CG  PHE A   1     -11.282   6.250  70.150  1.00  0.00    -0.470 A  
ATOM     20  CD1 PHE A   1     -11.322   6.235  68.751  1.00  0.00    -0.224 A  
ATOM     21  CE1 PHE A   1     -10.412   5.477  68.015  1.00  0.00    -0.240 A  
ATOM     22  CZ  PHE A   1      -9.433   4.735  68.670  1.00  0.00    -0.208 A  
ATOM     23  CE2 PHE A   1      -9.371   4.748  70.062  1.00  0.00    -0.213 A  
ATOM     24  CD2 PHE A   1     -10.293   5.497  70.801  1.00  0.00    -0.321 A  
ENDBRANCH  18  19
ENDBRANCH  14  18
ENDBRANCH  12  14
ENDBRANCH   7  10
TORSDOF 4
ENDMDL
MODEL       70
REMARK 921   NORMALIZED FREE ENERGY PREDICTED BY IDOCK:   -5.01 KCAL/MOL
REMARK 922        TOTAL FREE ENERGY PREDICTED BY IDOCK:   -7.20 KCAL/MOL
REMARK 923 INTER-LIGAND FREE ENERGY PREDICTED BY IDOCK:   -6.74 KCAL/MOL
REMARK 924 INTRA-LIGAND FREE ENERGY PREDICTED BY IDOCK:   -0.46 KCAL/MOL
REMARK 927      BINDING AFFINITY PREDICTED BY RF-SCORE:    0.00 PKD
ROOT
HETATM    1  C   UNK A   0      -6.736  20.140  69.368  1.00  0.00    -0.253 C  
HETATM    2  C   UNK A   0      -6.412  18.686  69.005  1.00  0.00    -0.275 C  
HETATM    3  C   UNK A   0      -5.391  18.164  70.031  1.00  0.00    -0.227 C  
HETATM    4  C   UNK A   0      -7.681  17.780  68.942  1.00  0.00    -0.201 C  
HETATM    5  C   UNK A   0      -8.736  18.199  67.891  1.00  0.00    -0.266 C  
HETATM    6  C   UNK A   0      -8.368  17.853  66.440  1.00  0.00    -0.273 C  
HETATM    7  C   UNK A   0      -7.844  16.417  66.232  1.00  0.00    -0.212 C  
HETATM    8  C   UNK A   0      -6.782  16.082  67.284  1.00  0.00    -0.232 C  
HETATM    9  C   UNK A   0      -7.339  16.302  68.689  1.00  0.00    -0.180 C  
ENDROOT
BRANCH   7  10
HETATM   10  C   UNK A   0      -8.958  15.353  66.201  1.00  0.00    -0.259 C  
HETATM   11  O   UNK A   0      -9.130  14.523  67.085  1.00  0.00    -0.204 OA 
ATOM     12  N   PHE A   1      -9.784  15.431  65.101  1.00  0.00    -0.199 N  
ATOM     13  H   PHE A   1      -9.556  16.105  64.369  1.00  0.00     0.000 HD 
BRANCH  12  14
ATOM     14  CA  PHE A   1     -10.974  14.592  64.929  1.00  0.00    -0.407 C  
ATOM     15  OXT PHE A   1     -11.855  16.526  63.733  1.00  0.00    -1.011 OA 
ATOM     16  C   PHE A   1     -12.053  15.416  64.215  1.00  0.00    -0.166 C  
ATOM     17  O   PHE A   1     -13.281  14.844  64.207  1.00  0.00    -0.022 OA 
BRANCH  14  18
ATOM     18  CB  PHE A   1     -10.720  13.237  64.241  1.00  0.00    -0.408 C  
BRANCH  18  19
ATOM     19  CG  PHE A   1     -10.606  12.017  65.128  1.00  0.00    -0.330 A  
ATOM     20  CD1 PHE A   1      -9.750  10.968  64.772  1.00  0.00    -0.311 A  
ATOM     21  CE1 PHE A   1      -9.603   9.850  65.595  1.00  0.00    -0.320 A  
ATOM     22  CZ  PHE A   1     -10.299   9.774  66.797  1.00  0.00    -0.289 A  
ATOM     23  CE2 PHE A   1     -11.146  10.815  67.173  1.00  0.00    -0.297 A  
ATOM     24  CD2 PHE A   1     -11.305  11.929  66.341  1.00  0.00    -0.400 A  
ENDBRANCH  18  19
ENDBRANCH  14  18
ENDBRANCH  12  14
ENDBRANCH   7  10
TORSDOF 4
ENDMDL
MODEL       71
REMARK 921   NORMALIZED FREE ENERGY PREDICTED BY IDOCK:   -5.00 KCAL/MOL
REMARK 922        TOTAL FREE ENERGY PREDICTED BY IDOCK:   -7.19 KCAL/MOL
REMARK 923 INTER-LIGAND FREE ENERGY PREDICTED BY IDOCK:   -5.65 KCAL/MOL
REMARK 924 INTRA-LIGAND FREE ENERGY PREDICTED BY IDOCK:   -1.54 KCAL/MOL
REMARK 927      BINDING AFFINITY PREDICTED BY RF-SCORE:    0.00 PKD
ROOT
HETATM    1  C   UNK A   0      -7.083   4.241  66.861  1.00  0.00    -0.067 C  
HETATM    2  C   UNK A   0      -8.517   4.446  67.365  1.00  0.00    -0.103 C  
HETATM    3  C   UNK A   0      -9.162   3.057  67.516  1.00  0.00    -0.233 C  
HETATM    4  C   UNK A   0      -8.581   5.259  68.695  1.00  0.00    -0.087 C  
HETATM    5  C   UNK A   0      -8.007   6.693  68.618  1.00  0.00    -0.118 C  
HETATM    6  C   UNK A   0      -8.914   7.709  67.907  1.00  0.00    -0.128 C  
HETATM    7  C   UNK A   0     -10.391   7.672  68.346  1.00  0.00    -0.228 C  
HETATM    8  C   UNK A   0     -10.903   6.229  68.369  1.00  0.00    -0.394 C  
HETATM    9  C   UNK A   0     -10.009   5.363  69.255  1.00  0.00    -0.277 C  
ENDROOT
BRANCH   7  10
HETATM   10  C   UNK A   0     -10.654   8.381  69.688  1.00  0.00    -0.219 C  
HETATM   11  O   UNK A   0     -10.012   9.346  70.085  1.00  0.00    -0.197 OA 
ATOM     12  N   PHE A   1     -11.709   7.861  70.406  1.00  0.00    -0.471 N  
ATOM     13  H   PHE A   1     -12.169   7.021  70.053  1.00  0.00     0.000 HD 
BRANCH  12  14
ATOM     14  CA  PHE A   1     -12.204   8.455  71.651  1.00  0.00    -0.315 C  
ATOM     15  OXT PHE A   1     -14.332   7.471  70.981  1.00  0.00    -0.283 OA 
ATOM     16  C   PHE A   1     -13.713   8.199  71.749  1.00  0.00    -0.374 C  
ATOM     17  O   PHE A   1     -14.338   8.898  72.727  1.00  0.00    -0.600 OA 
BRANCH  14  18
ATOM     18  CB  PHE A   1     -11.452   8.017  72.923  1.00  0.00    -0.329 C  
BRANCH  18  19
ATOM     19  CG  PHE A   1     -10.554   6.804  72.818  1.00  0.00    -0.264 A  
ATOM     20  CD1 PHE A   1      -9.176   6.965  72.634  1.00  0.00    -0.151 A  
ATOM     21  CE1 PHE A   1      -8.326   5.861  72.570  1.00  0.00    -0.116 A  
ATOM     22  CZ  PHE A   1      -8.842   4.576  72.709  1.00  0.00    -0.118 A  
ATOM     23  CE2 PHE A   1     -10.210   4.398  72.904  1.00  0.00    -0.229 A  
ATOM     24  CD2 PHE A   1     -11.064   5.504  72.953  1.00  0.00    -0.349 A  
ENDBRANCH  18  19
ENDBRANCH  14  18
ENDBRANCH  12  14
ENDBRANCH   7  10
TORSDOF 4
ENDMDL
MODEL       72
REMARK 921   NORMALIZED FREE ENERGY PREDICTED BY IDOCK:   -4.97 KCAL/MOL
REMARK 922        TOTAL FREE ENERGY PREDICTED BY IDOCK:   -7.16 KCAL/MOL
REMARK 923 INTER-LIGAND FREE ENERGY PREDICTED BY IDOCK:   -6.71 KCAL/MOL
REMARK 924 INTRA-LIGAND FREE ENERGY PREDICTED BY IDOCK:   -0.45 KCAL/MOL
REMARK 927      BINDING AFFINITY PREDICTED BY RF-SCORE:    0.00 PKD
ROOT
HETATM    1  C   UNK A   0     -12.412  14.022  65.726  1.00  0.00    -0.523 C  
HETATM    2  C   UNK A   0     -11.210  13.812  66.655  1.00  0.00    -0.327 C  
HETATM    3  C   UNK A   0     -10.693  15.200  67.071  1.00  0.00    -0.307 C  
HETATM    4  C   UNK A   0     -11.549  12.928  67.895  1.00  0.00    -0.391 C  
HETATM    5  C   UNK A   0     -12.021  11.492  67.569  1.00  0.00     0.006 C  
HETATM    6  C   UNK A   0     -10.902  10.530  67.140  1.00  0.00    -0.319 C  
HETATM    7  C   UNK A   0      -9.645  10.566  68.033  1.00  0.00    -0.159 C  
HETATM    8  C   UNK A   0      -9.215  12.014  68.287  1.00  0.00    -0.192 C  
HETATM    9  C   UNK A   0     -10.373  12.815  68.879  1.00  0.00    -0.055 C  
ENDROOT
BRANCH   7  10
HETATM   10  C   UNK A   0      -9.804   9.788  69.353  1.00  0.00    -0.205 C  
HETATM   11  O   UNK A   0      -8.955   9.766  70.235  1.00  0.00    -0.232 OA 
ATOM     12  N   PHE A   1     -11.011   9.136  69.484  1.00  0.00    -0.386 N  
ATOM     13  H   PHE A   1     -11.654   9.142  68.692  1.00  0.00     0.000 HD 
BRANCH  12  14
ATOM     14  CA  PHE A   1     -11.417   8.435  70.705  1.00  0.00    -0.255 C  
ATOM     15  OXT PHE A   1     -12.946  10.314  70.976  1.00  0.00    -0.365 OA 
ATOM     16  C   PHE A   1     -12.447   9.298  71.445  1.00  0.00    -0.341 C  
ATOM     17  O   PHE A   1     -12.725   8.882  72.704  1.00  0.00    -0.369 OA 
BRANCH  14  18
ATOM     18  CB  PHE A   1     -11.909   6.990  70.491  1.00  0.00    -0.337 C  
BRANCH  18  19
ATOM     19  CG  PHE A   1     -11.104   6.112  69.557  1.00  0.00    -0.490 A  
ATOM     20  CD1 PHE A   1     -11.150   6.331  68.176  1.00  0.00    -0.364 A  
ATOM     21  CE1 PHE A   1     -10.388   5.557  67.300  1.00  0.00    -0.290 A  
ATOM     22  CZ  PHE A   1      -9.552   4.562  67.798  1.00  0.00    -0.208 A  
ATOM     23  CE2 PHE A   1      -9.485   4.339  69.172  1.00  0.00    -0.245 A  
ATOM     24  CD2 PHE A   1     -10.260   5.105  70.049  1.00  0.00    -0.354 A  
ENDBRANCH  18  19
ENDBRANCH  14  18
ENDBRANCH  12  14
ENDBRANCH   7  10
TORSDOF 4
ENDMDL
MODEL       73
REMARK 921   NORMALIZED FREE ENERGY PREDICTED BY IDOCK:   -4.96 KCAL/MOL
REMARK 922        TOTAL FREE ENERGY PREDICTED BY IDOCK:   -7.15 KCAL/MOL
REMARK 923 INTER-LIGAND FREE ENERGY PREDICTED BY IDOCK:   -5.64 KCAL/MOL
REMARK 924 INTRA-LIGAND FREE ENERGY PREDICTED BY IDOCK:   -1.50 KCAL/MOL
REMARK 927      BINDING AFFINITY PREDICTED BY RF-SCORE:    0.00 PKD
ROOT
HETATM    1  C   UNK A   0     -13.209  10.374  71.889  1.00  0.00    -0.535 C  
HETATM    2  C   UNK A   0     -13.004   8.856  71.958  1.00  0.00    -0.454 C  
HETATM    3  C   UNK A   0     -14.318   8.187  71.519  1.00  0.00    -0.534 C  
HETATM    4  C   UNK A   0     -11.794   8.368  71.103  1.00  0.00    -0.314 C  
HETATM    5  C   UNK A   0     -10.421   8.946  71.516  1.00  0.00    -0.393 C  
HETATM    6  C   UNK A   0      -9.821   8.328  72.788  1.00  0.00    -0.333 C  
HETATM    7  C   UNK A   0      -9.869   6.788  72.841  1.00  0.00    -0.184 C  
HETATM    8  C   UNK A   0     -11.263   6.287  72.453  1.00  0.00    -0.320 C  
HETATM    9  C   UNK A   0     -11.664   6.836  71.086  1.00  0.00    -0.394 C  
ENDROOT
BRANCH   7  10
HETATM   10  C   UNK A   0      -8.774   6.108  71.998  1.00  0.00    -0.135 C  
HETATM   11  O   UNK A   0      -7.606   6.475  71.976  1.00  0.00    -0.092 OA 
ATOM     12  N   PHE A   1      -9.209   5.010  71.286  1.00  0.00    -0.142 N  
ATOM     13  H   PHE A   1     -10.204   4.787  71.297  1.00  0.00     0.000 HD 
BRANCH  12  14
ATOM     14  CA  PHE A   1      -8.310   4.148  70.511  1.00  0.00    -0.066 C  
ATOM     15  OXT PHE A   1      -9.852   2.378  71.168  1.00  0.00    -0.139 OA 
ATOM     16  C   PHE A   1      -8.793   2.698  70.640  1.00  0.00    -0.081 C  
ATOM     17  O   PHE A   1      -7.920   1.773  70.174  1.00  0.00    -0.042 OA 
BRANCH  14  18
ATOM     18  CB  PHE A   1      -8.110   4.571  69.043  1.00  0.00    -0.073 C  
BRANCH  18  19
ATOM     19  CG  PHE A   1      -8.990   5.683  68.513  1.00  0.00    -0.115 A  
ATOM     20  CD1 PHE A   1      -8.538   7.007  68.539  1.00  0.00    -0.123 A  
ATOM     21  CE1 PHE A   1      -9.319   8.042  68.022  1.00  0.00    -0.146 A  
ATOM     22  CZ  PHE A   1     -10.558   7.763  67.453  1.00  0.00    -0.345 A  
ATOM     23  CE2 PHE A   1     -11.017   6.448  67.409  1.00  0.00    -0.463 A  
ATOM     24  CD2 PHE A   1     -10.242   5.413  67.940  1.00  0.00    -0.219 A  
ENDBRANCH  18  19
ENDBRANCH  14  18
ENDBRANCH  12  14
ENDBRANCH   7  10
TORSDOF 4
ENDMDL
MODEL       74
REMARK 921   NORMALIZED FREE ENERGY PREDICTED BY IDOCK:   -4.96 KCAL/MOL
REMARK 922        TOTAL FREE ENERGY PREDICTED BY IDOCK:   -7.14 KCAL/MOL
REMARK 923 INTER-LIGAND FREE ENERGY PREDICTED BY IDOCK:   -6.49 KCAL/MOL
REMARK 924 INTRA-LIGAND FREE ENERGY PREDICTED BY IDOCK:   -0.66 KCAL/MOL
REMARK 927      BINDING AFFINITY PREDICTED BY RF-SCORE:    0.00 PKD
ROOT
HETATM    1  C   UNK A   0      -7.785  18.426  67.159  1.00  0.00    -0.233 C  
HETATM    2  C   UNK A   0      -9.230  17.928  67.278  1.00  0.00    -0.254 C  
HETATM    3  C   UNK A   0     -10.104  18.807  66.366  1.00  0.00    -0.443 C  
HETATM    4  C   UNK A   0      -9.380  16.414  66.934  1.00  0.00    -0.244 C  
HETATM    5  C   UNK A   0      -8.580  15.451  67.843  1.00  0.00    -0.156 C  
HETATM    6  C   UNK A   0      -9.186  15.234  69.238  1.00  0.00    -0.233 C  
HETATM    7  C   UNK A   0     -10.702  14.954  69.246  1.00  0.00    -0.253 C  
HETATM    8  C   UNK A   0     -11.434  15.962  68.354  1.00  0.00    -0.348 C  
HETATM    9  C   UNK A   0     -10.845  15.948  66.945  1.00  0.00    -0.240 C  
ENDROOT
BRANCH   7  10
HETATM   10  C   UNK A   0     -11.063  13.505  68.867  1.00  0.00    -0.267 C  
HETATM   11  O   UNK A   0     -12.144  13.174  68.396  1.00  0.00    -0.318 OA 
ATOM     12  N   PHE A   1     -10.046  12.597  69.068  1.00  0.00    -0.419 N  
ATOM     13  H   PHE A   1      -9.189  12.921  69.518  1.00  0.00     0.000 HD 
BRANCH  12  14
ATOM     14  CA  PHE A   1     -10.134  11.190  68.668  1.00  0.00    -0.200 C  
ATOM     15  OXT PHE A   1      -8.788  11.908  66.765  1.00  0.00    -0.184 OA 
ATOM     16  C   PHE A   1      -9.441  11.024  67.309  1.00  0.00    -0.164 C  
ATOM     17  O   PHE A   1      -9.657   9.827  66.712  1.00  0.00    -0.162 OA 
BRANCH  14  18
ATOM     18  CB  PHE A   1      -9.619  10.183  69.715  1.00  0.00    -0.213 C  
BRANCH  18  19
ATOM     19  CG  PHE A   1     -10.630   9.238  70.327  1.00  0.00    -0.278 A  
ATOM     20  CD1 PHE A   1     -11.582   9.719  71.233  1.00  0.00    -0.465 A  
ATOM     21  CE1 PHE A   1     -12.546   8.871  71.780  1.00  0.00    -0.420 A  
ATOM     22  CZ  PHE A   1     -12.582   7.529  71.413  1.00  0.00    -0.382 A  
ATOM     23  CE2 PHE A   1     -11.649   7.036  70.503  1.00  0.00    -0.364 A  
ATOM     24  CD2 PHE A   1     -10.674   7.883  69.966  1.00  0.00    -0.244 A  
ENDBRANCH  18  19
ENDBRANCH  14  18
ENDBRANCH  12  14
ENDBRANCH   7  10
TORSDOF 4
ENDMDL
MODEL       75
REMARK 921   NORMALIZED FREE ENERGY PREDICTED BY IDOCK:   -4.95 KCAL/MOL
REMARK 922        TOTAL FREE ENERGY PREDICTED BY IDOCK:   -7.13 KCAL/MOL
REMARK 923 INTER-LIGAND FREE ENERGY PREDICTED BY IDOCK:   -6.51 KCAL/MOL
REMARK 924 INTRA-LIGAND FREE ENERGY PREDICTED BY IDOCK:   -0.62 KCAL/MOL
REMARK 927      BINDING AFFINITY PREDICTED BY RF-SCORE:    0.00 PKD
ROOT
HETATM    1  C   UNK A   0     -10.799   6.605  68.309  1.00  0.00    -0.322 C  
HETATM    2  C   UNK A   0      -9.632   7.492  67.857  1.00  0.00    -0.161 C  
HETATM    3  C   UNK A   0      -8.730   6.648  66.940  1.00  0.00    -0.116 C  
HETATM    4  C   UNK A   0     -10.104   8.803  67.155  1.00  0.00    -0.320 C  
HETATM    5  C   UNK A   0     -10.969   9.742  68.028  1.00  0.00    -0.236 C  
HETATM    6  C   UNK A   0     -10.185  10.542  69.080  1.00  0.00    -0.233 C  
HETATM    7  C   UNK A   0      -8.903  11.217  68.552  1.00  0.00    -0.161 C  
HETATM    8  C   UNK A   0      -8.081  10.222  67.726  1.00  0.00    -0.103 C  
HETATM    9  C   UNK A   0      -8.933   9.633  66.604  1.00  0.00    -0.166 C  
ENDROOT
BRANCH   7  10
HETATM   10  C   UNK A   0      -9.167  12.515  67.767  1.00  0.00    -0.198 C  
HETATM   11  O   UNK A   0      -8.318  13.090  67.098  1.00  0.00    -0.184 OA 
ATOM     12  N   PHE A   1     -10.466  12.968  67.844  1.00  0.00    -0.224 N  
ATOM     13  H   PHE A   1     -11.114  12.481  68.463  1.00  0.00     0.000 HD 
BRANCH  12  14
ATOM     14  CA  PHE A   1     -10.963  14.117  67.081  1.00  0.00    -0.299 C  
ATOM     15  OXT PHE A   1     -12.463  12.481  66.074  1.00  0.00    -0.565 OA 
ATOM     16  C   PHE A   1     -12.017  13.623  66.083  1.00  0.00    -0.416 C  
ATOM     17  O   PHE A   1     -12.382  14.538  65.153  1.00  0.00    -0.384 OA 
BRANCH  14  18
ATOM     18  CB  PHE A   1     -11.473  15.294  67.937  1.00  0.00    -0.325 C  
BRANCH  18  19
ATOM     19  CG  PHE A   1     -10.770  16.624  67.780  1.00  0.00    -0.327 A  
ATOM     20  CD1 PHE A   1     -10.403  17.079  66.508  1.00  0.00    -0.298 A  
ATOM     21  CE1 PHE A   1      -9.787  18.319  66.338  1.00  0.00    -0.358 A  
ATOM     22  CZ  PHE A   1      -9.544  19.133  67.441  1.00  0.00    -0.373 A  
ATOM     23  CE2 PHE A   1      -9.913  18.701  68.714  1.00  0.00    -0.427 A  
ATOM     24  CD2 PHE A   1     -10.518  17.451  68.885  1.00  0.00    -0.312 A  
ENDBRANCH  18  19
ENDBRANCH  14  18
ENDBRANCH  12  14
ENDBRANCH   7  10
TORSDOF 4
ENDMDL
MODEL       76
REMARK 921   NORMALIZED FREE ENERGY PREDICTED BY IDOCK:   -4.93 KCAL/MOL
REMARK 922        TOTAL FREE ENERGY PREDICTED BY IDOCK:   -7.11 KCAL/MOL
REMARK 923 INTER-LIGAND FREE ENERGY PREDICTED BY IDOCK:   -6.67 KCAL/MOL
REMARK 924 INTRA-LIGAND FREE ENERGY PREDICTED BY IDOCK:   -0.44 KCAL/MOL
REMARK 927      BINDING AFFINITY PREDICTED BY RF-SCORE:    0.00 PKD
ROOT
HETATM    1  C   UNK A   0     -10.521   7.754  67.286  1.00  0.00    -0.392 C  
HETATM    2  C   UNK A   0      -9.398   8.637  66.729  1.00  0.00    -0.229 C  
HETATM    3  C   UNK A   0      -8.833   7.942  65.478  1.00  0.00    -0.070 C  
HETATM    4  C   UNK A   0      -9.869  10.092  66.418  1.00  0.00    -0.283 C  
HETATM    5  C   UNK A   0     -10.397  10.886  67.636  1.00  0.00    -0.232 C  
HETATM    6  C   UNK A   0      -9.306  11.401  68.588  1.00  0.00    -0.155 C  
HETATM    7  C   UNK A   0      -8.113  12.085  67.891  1.00  0.00    -0.150 C  
HETATM    8  C   UNK A   0      -7.621  11.230  66.719  1.00  0.00    -0.151 C  
HETATM    9  C   UNK A   0      -8.770  10.939  65.756  1.00  0.00    -0.196 C  
ENDROOT
BRANCH   7  10
HETATM   10  C   UNK A   0      -8.403  13.530  67.447  1.00  0.00    -0.194 C  
HETATM   11  O   UNK A   0      -7.540  14.387  67.312  1.00  0.00    -0.188 OA 
ATOM     12  N   PHE A   1      -9.731  13.782  67.172  1.00  0.00    -0.238 N  
ATOM     13  H   PHE A   1     -10.413  13.046  67.359  1.00  0.00     0.000 HD 
BRANCH  12  14
ATOM     14  CA  PHE A   1     -10.210  15.054  66.625  1.00  0.00    -0.268 C  
ATOM     15  OXT PHE A   1     -10.580  13.753  64.596  1.00  0.00    -0.406 OA 
ATOM     16  C   PHE A   1     -10.559  14.849  65.145  1.00  0.00    -0.428 C  
ATOM     17  O   PHE A   1     -10.785  15.995  64.459  1.00  0.00    -0.542 OA 
BRANCH  14  18
ATOM     18  CB  PHE A   1     -11.363  15.707  67.413  1.00  0.00    -0.163 C  
BRANCH  18  19
ATOM     19  CG  PHE A   1     -11.574  15.253  68.841  1.00  0.00    -0.365 A  
ATOM     20  CD1 PHE A   1     -11.242  16.101  69.903  1.00  0.00    -0.349 A  
ATOM     21  CE1 PHE A   1     -11.463  15.716  71.226  1.00  0.00    -0.469 A  
ATOM     22  CZ  PHE A   1     -12.038  14.480  71.505  1.00  0.00    -0.400 A  
ATOM     23  CE2 PHE A   1     -12.385  13.627  70.458  1.00  0.00    -0.425 A  
ATOM     24  CD2 PHE A   1     -12.150  14.007  69.133  1.00  0.00    -0.375 A  
ENDBRANCH  18  19
ENDBRANCH  14  18
ENDBRANCH  12  14
ENDBRANCH   7  10
TORSDOF 4
ENDMDL
MODEL       77
REMARK 921   NORMALIZED FREE ENERGY PREDICTED BY IDOCK:   -4.92 KCAL/MOL
REMARK 922        TOTAL FREE ENERGY PREDICTED BY IDOCK:   -7.10 KCAL/MOL
REMARK 923 INTER-LIGAND FREE ENERGY PREDICTED BY IDOCK:   -6.15 KCAL/MOL
REMARK 924 INTRA-LIGAND FREE ENERGY PREDICTED BY IDOCK:   -0.94 KCAL/MOL
REMARK 927      BINDING AFFINITY PREDICTED BY RF-SCORE:    0.00 PKD
ROOT
HETATM    1  C   UNK A   0     -11.920  14.794  64.272  1.00  0.00    -0.387 C  
HETATM    2  C   UNK A   0     -11.964  13.364  64.822  1.00  0.00    -0.429 C  
HETATM    3  C   UNK A   0     -12.398  12.435  63.674  1.00  0.00    -0.647 C  
HETATM    4  C   UNK A   0     -10.608  12.913  65.448  1.00  0.00    -0.308 C  
HETATM    5  C   UNK A   0     -10.127  13.758  66.651  1.00  0.00    -0.277 C  
HETATM    6  C   UNK A   0     -10.871  13.484  67.967  1.00  0.00    -0.266 C  
HETATM    7  C   UNK A   0     -11.047  11.991  68.309  1.00  0.00    -0.290 C  
HETATM    8  C   UNK A   0     -11.556  11.222  67.086  1.00  0.00    -0.113 C  
HETATM    9  C   UNK A   0     -10.625  11.442  65.895  1.00  0.00    -0.317 C  
ENDROOT
BRANCH   7  10
HETATM   10  C   UNK A   0      -9.780  11.339  68.893  1.00  0.00    -0.127 C  
HETATM   11  O   UNK A   0      -8.649  11.776  68.722  1.00  0.00    -0.101 OA 
ATOM     12  N   PHE A   1     -10.023  10.225  69.669  1.00  0.00    -0.311 N  
ATOM     13  H   PHE A   1     -10.979   9.874  69.727  1.00  0.00     0.000 HD 
BRANCH  12  14
ATOM     14  CA  PHE A   1      -8.975   9.521  70.414  1.00  0.00    -0.243 C  
ATOM     15  OXT PHE A   1     -10.731   9.182  72.071  1.00  0.00    -0.341 OA 
ATOM     16  C   PHE A   1      -9.546   9.087  71.770  1.00  0.00    -0.208 C  
ATOM     17  O   PHE A   1      -8.620   8.640  72.651  1.00  0.00    -0.376 OA 
BRANCH  14  18
ATOM     18  CB  PHE A   1      -8.313   8.353  69.656  1.00  0.00    -0.122 C  
BRANCH  18  19
ATOM     19  CG  PHE A   1      -9.170   7.588  68.672  1.00  0.00    -0.144 A  
ATOM     20  CD1 PHE A   1      -9.041   7.824  67.298  1.00  0.00    -0.147 A  
ATOM     21  CE1 PHE A   1      -9.795   7.103  66.372  1.00  0.00    -0.116 A  
ATOM     22  CZ  PHE A   1     -10.679   6.120  66.807  1.00  0.00    -0.371 A  
ATOM     23  CE2 PHE A   1     -10.811   5.864  68.171  1.00  0.00    -0.323 A  
ATOM     24  CD2 PHE A   1     -10.065   6.597  69.100  1.00  0.00    -0.185 A  
ENDBRANCH  18  19
ENDBRANCH  14  18
ENDBRANCH  12  14
ENDBRANCH   7  10
TORSDOF 4
ENDMDL
MODEL       78
REMARK 921   NORMALIZED FREE ENERGY PREDICTED BY IDOCK:   -4.91 KCAL/MOL
REMARK 922        TOTAL FREE ENERGY PREDICTED BY IDOCK:   -7.09 KCAL/MOL
REMARK 923 INTER-LIGAND FREE ENERGY PREDICTED BY IDOCK:   -6.40 KCAL/MOL
REMARK 924 INTRA-LIGAND FREE ENERGY PREDICTED BY IDOCK:   -0.69 KCAL/MOL
REMARK 927      BINDING AFFINITY PREDICTED BY RF-SCORE:    0.00 PKD
ROOT
HETATM    1  C   UNK A   0     -10.696   7.342  66.993  1.00  0.00    -0.406 C  
HETATM    2  C   UNK A   0      -9.475   8.267  67.058  1.00  0.00    -0.226 C  
HETATM    3  C   UNK A   0      -8.280   7.506  66.457  1.00  0.00    -0.123 C  
HETATM    4  C   UNK A   0      -9.709   9.632  66.341  1.00  0.00    -0.285 C  
HETATM    5  C   UNK A   0     -10.856  10.491  66.922  1.00  0.00    -0.252 C  
HETATM    6  C   UNK A   0     -10.522  11.198  68.245  1.00  0.00    -0.215 C  
HETATM    7  C   UNK A   0      -9.158  11.918  68.264  1.00  0.00    -0.183 C  
HETATM    8  C   UNK A   0      -8.066  11.000  67.707  1.00  0.00    -0.116 C  
HETATM    9  C   UNK A   0      -8.446  10.508  66.312  1.00  0.00    -0.150 C  
ENDROOT
BRANCH   7  10
HETATM   10  C   UNK A   0      -9.169  13.278  67.543  1.00  0.00    -0.213 C  
HETATM   11  O   UNK A   0      -8.156  13.893  67.235  1.00  0.00    -0.178 OA 
ATOM     12  N   PHE A   1     -10.428  13.743  67.230  1.00  0.00    -0.263 N  
ATOM     13  H   PHE A   1     -11.236  13.217  67.564  1.00  0.00     0.000 HD 
BRANCH  12  14
ATOM     14  CA  PHE A   1     -10.664  14.957  66.443  1.00  0.00    -0.316 C  
ATOM     15  OXT PHE A   1     -12.351  13.600  65.322  1.00  0.00    -0.410 OA 
ATOM     16  C   PHE A   1     -11.715  14.648  65.370  1.00  0.00    -0.330 C  
ATOM     17  O   PHE A   1     -11.851  15.608  64.424  1.00  0.00    -0.367 OA 
BRANCH  14  18
ATOM     18  CB  PHE A   1     -11.021  16.208  67.269  1.00  0.00    -0.175 C  
BRANCH  18  19
ATOM     19  CG  PHE A   1     -10.241  17.474  66.988  1.00  0.00    -0.327 A  
ATOM     20  CD1 PHE A   1      -8.963  17.400  66.423  1.00  0.00    -0.274 A  
ATOM     21  CE1 PHE A   1      -8.242  18.556  66.122  1.00  0.00    -0.183 A  
ATOM     22  CZ  PHE A   1      -8.800  19.808  66.365  1.00  0.00    -0.428 A  
ATOM     23  CE2 PHE A   1     -10.077  19.900  66.915  1.00  0.00    -0.579 A  
ATOM     24  CD2 PHE A   1     -10.794  18.741  67.231  1.00  0.00    -0.408 A  
ENDBRANCH  18  19
ENDBRANCH  14  18
ENDBRANCH  12  14
ENDBRANCH   7  10
TORSDOF 4
ENDMDL
MODEL       79
REMARK 921   NORMALIZED FREE ENERGY PREDICTED BY IDOCK:   -4.90 KCAL/MOL
REMARK 922        TOTAL FREE ENERGY PREDICTED BY IDOCK:   -7.08 KCAL/MOL
REMARK 923 INTER-LIGAND FREE ENERGY PREDICTED BY IDOCK:   -6.89 KCAL/MOL
REMARK 924 INTRA-LIGAND FREE ENERGY PREDICTED BY IDOCK:   -0.19 KCAL/MOL
REMARK 927      BINDING AFFINITY PREDICTED BY RF-SCORE:    0.00 PKD
ROOT
HETATM    1  C   UNK A   0     -11.071  15.402  64.789  1.00  0.00    -0.416 C  
HETATM    2  C   UNK A   0     -10.633  15.013  66.207  1.00  0.00    -0.309 C  
HETATM    3  C   UNK A   0     -10.355  16.312  66.984  1.00  0.00    -0.292 C  
HETATM    4  C   UNK A   0     -11.678  14.115  66.939  1.00  0.00    -0.437 C  
HETATM    5  C   UNK A   0     -11.973  12.759  66.256  1.00  0.00    -0.460 C  
HETATM    6  C   UNK A   0     -10.877  11.698  66.437  1.00  0.00    -0.333 C  
HETATM    7  C   UNK A   0     -10.357  11.548  67.881  1.00  0.00    -0.203 C  
HETATM    8  C   UNK A   0     -10.055  12.924  68.482  1.00  0.00    -0.193 C  
HETATM    9  C   UNK A   0     -11.287  13.822  68.397  1.00  0.00    -0.326 C  
ENDROOT
BRANCH   7  10
HETATM   10  C   UNK A   0     -11.294  10.731  68.791  1.00  0.00    -0.288 C  
HETATM   11  O   UNK A   0     -12.491  10.959  68.915  1.00  0.00    -0.431 OA 
ATOM     12  N   PHE A   1     -10.679   9.682  69.440  1.00  0.00    -0.223 N  
ATOM     13  H   PHE A   1      -9.669   9.577  69.344  1.00  0.00     0.000 HD 
BRANCH  12  14
ATOM     14  CA  PHE A   1     -11.406   8.709  70.261  1.00  0.00    -0.136 C  
ATOM     15  OXT PHE A   1     -10.042   7.070  69.078  1.00  0.00    -0.170 OA 
ATOM     16  C   PHE A   1     -10.969   7.298  69.848  1.00  0.00    -0.243 C  
ATOM     17  O   PHE A   1     -11.734   6.303  70.357  1.00  0.00    -0.367 OA 
BRANCH  14  18
ATOM     18  CB  PHE A   1     -11.299   8.934  71.782  1.00  0.00    -0.431 C  
BRANCH  18  19
ATOM     19  CG  PHE A   1     -10.229   8.164  72.525  1.00  0.00    -0.383 A  
ATOM     20  CD1 PHE A   1      -8.880   8.499  72.359  1.00  0.00    -0.268 A  
ATOM     21  CE1 PHE A   1      -7.881   7.826  73.063  1.00  0.00    -0.156 A  
ATOM     22  CZ  PHE A   1      -8.220   6.818  73.960  1.00  0.00    -0.144 A  
ATOM     23  CE2 PHE A   1      -9.559   6.479  74.147  1.00  0.00    -0.256 A  
ATOM     24  CD2 PHE A   1     -10.559   7.144  73.430  1.00  0.00    -0.424 A  
ENDBRANCH  18  19
ENDBRANCH  14  18
ENDBRANCH  12  14
ENDBRANCH   7  10
TORSDOF 4
ENDMDL
MODEL       80
REMARK 921   NORMALIZED FREE ENERGY PREDICTED BY IDOCK:   -4.88 KCAL/MOL
REMARK 922        TOTAL FREE ENERGY PREDICTED BY IDOCK:   -7.05 KCAL/MOL
REMARK 923 INTER-LIGAND FREE ENERGY PREDICTED BY IDOCK:   -6.04 KCAL/MOL
REMARK 924 INTRA-LIGAND FREE ENERGY PREDICTED BY IDOCK:   -1.01 KCAL/MOL
REMARK 927      BINDING AFFINITY PREDICTED BY RF-SCORE:    0.00 PKD
ROOT
HETATM    1  C   UNK A   0      -7.076   8.403  65.689  1.00  0.00    -0.075 C  
HETATM    2  C   UNK A   0      -8.196   9.188  66.382  1.00  0.00    -0.114 C  
HETATM    3  C   UNK A   0      -9.186   9.646  65.296  1.00  0.00    -0.295 C  
HETATM    4  C   UNK A   0      -8.907   8.369  67.502  1.00  0.00    -0.139 C  
HETATM    5  C   UNK A   0      -7.995   7.919  68.667  1.00  0.00    -0.124 C  
HETATM    6  C   UNK A   0      -7.626   9.032  69.661  1.00  0.00    -0.077 C  
HETATM    7  C   UNK A   0      -8.812   9.902  70.123  1.00  0.00    -0.146 C  
HETATM    8  C   UNK A   0      -9.652  10.339  68.918  1.00  0.00    -0.193 C  
HETATM    9  C   UNK A   0     -10.101   9.120  68.115  1.00  0.00    -0.225 C  
ENDROOT
BRANCH   7  10
HETATM   10  C   UNK A   0      -9.685   9.233  71.201  1.00  0.00    -0.257 C  
HETATM   11  O   UNK A   0      -9.259   8.866  72.289  1.00  0.00    -0.376 OA 
ATOM     12  N   PHE A   1     -11.014   9.109  70.857  1.00  0.00    -0.258 N  
ATOM     13  H   PHE A   1     -11.298   9.379  69.915  1.00  0.00     0.000 HD 
BRANCH  12  14
ATOM     14  CA  PHE A   1     -12.039   8.609  71.778  1.00  0.00    -0.340 C  
ATOM     15  OXT PHE A   1     -13.379  10.438  70.882  1.00  0.00    -0.337 OA 
ATOM     16  C   PHE A   1     -13.256   9.539  71.707  1.00  0.00    -0.422 C  
ATOM     17  O   PHE A   1     -14.177   9.332  72.678  1.00  0.00    -0.498 OA 
BRANCH  14  18
ATOM     18  CB  PHE A   1     -12.420   7.128  71.583  1.00  0.00    -0.405 C  
BRANCH  18  19
ATOM     19  CG  PHE A   1     -11.344   6.194  71.075  1.00  0.00    -0.348 A  
ATOM     20  CD1 PHE A   1     -11.196   5.976  69.701  1.00  0.00    -0.428 A  
ATOM     21  CE1 PHE A   1     -10.187   5.147  69.210  1.00  0.00    -0.276 A  
ATOM     22  CZ  PHE A   1      -9.297   4.537  70.089  1.00  0.00    -0.217 A  
ATOM     23  CE2 PHE A   1      -9.423   4.752  71.460  1.00  0.00    -0.209 A  
ATOM     24  CD2 PHE A   1     -10.443   5.572  71.953  1.00  0.00    -0.282 A  
ENDBRANCH  18  19
ENDBRANCH  14  18
ENDBRANCH  12  14
ENDBRANCH   7  10
TORSDOF 4
ENDMDL
MODEL       81
REMARK 921   NORMALIZED FREE ENERGY PREDICTED BY IDOCK:   -4.88 KCAL/MOL
REMARK 922        TOTAL FREE ENERGY PREDICTED BY IDOCK:   -7.05 KCAL/MOL
REMARK 923 INTER-LIGAND FREE ENERGY PREDICTED BY IDOCK:   -6.40 KCAL/MOL
REMARK 924 INTRA-LIGAND FREE ENERGY PREDICTED BY IDOCK:   -0.65 KCAL/MOL
REMARK 927      BINDING AFFINITY PREDICTED BY RF-SCORE:    0.00 PKD
ROOT
HETATM    1  C   UNK A   0      -9.116  16.827  66.401  1.00  0.00    -0.321 C  
HETATM    2  C   UNK A   0     -10.316  15.880  66.278  1.00  0.00    -0.324 C  
HETATM    3  C   UNK A   0     -10.858  15.998  64.842  1.00  0.00    -0.391 C  
HETATM    4  C   UNK A   0      -9.965  14.405  66.643  1.00  0.00    -0.278 C  
HETATM    5  C   UNK A   0      -9.468  14.187  68.091  1.00  0.00    -0.213 C  
HETATM    6  C   UNK A   0     -10.570  14.231  69.161  1.00  0.00    -0.201 C  
HETATM    7  C   UNK A   0     -11.830  13.408  68.823  1.00  0.00    -0.386 C  
HETATM    8  C   UNK A   0     -12.285  13.697  67.390  1.00  0.00    -0.283 C  
HETATM    9  C   UNK A   0     -11.142  13.443  66.409  1.00  0.00    -0.312 C  
ENDROOT
BRANCH   7  10
HETATM   10  C   UNK A   0     -11.661  11.896  69.064  1.00  0.00    -0.331 C  
HETATM   11  O   UNK A   0     -12.498  11.060  68.747  1.00  0.00    -0.468 OA 
ATOM     12  N   PHE A   1     -10.459  11.545  69.639  1.00  0.00    -0.409 N  
ATOM     13  H   PHE A   1      -9.827  12.289  69.934  1.00  0.00     0.000 HD 
BRANCH  12  14
ATOM     14  CA  PHE A   1     -10.044  10.155  69.848  1.00  0.00    -0.222 C  
ATOM     15  OXT PHE A   1     -11.720  10.185  71.619  1.00  0.00    -0.307 OA 
ATOM     16  C   PHE A   1     -10.804   9.594  71.056  1.00  0.00    -0.342 C  
ATOM     17  O   PHE A   1     -10.342   8.403  71.505  1.00  0.00    -0.200 OA 
BRANCH  14  18
ATOM     18  CB  PHE A   1     -10.164   9.248  68.607  1.00  0.00    -0.220 C  
BRANCH  18  19
ATOM     19  CG  PHE A   1      -9.584   9.764  67.309  1.00  0.00    -0.194 A  
ATOM     20  CD1 PHE A   1     -10.253   9.535  66.101  1.00  0.00    -0.272 A  
ATOM     21  CE1 PHE A   1      -9.754  10.034  64.897  1.00  0.00    -0.377 A  
ATOM     22  CZ  PHE A   1      -8.585  10.788  64.888  1.00  0.00    -0.097 A  
ATOM     23  CE2 PHE A   1      -7.912  11.036  66.083  1.00  0.00    -0.129 A  
ATOM     24  CD2 PHE A   1      -8.404  10.523  67.287  1.00  0.00    -0.122 A  
ENDBRANCH  18  19
ENDBRANCH  14  18
ENDBRANCH  12  14
ENDBRANCH   7  10
TORSDOF 4
ENDMDL
MODEL       82
REMARK 921   NORMALIZED FREE ENERGY PREDICTED BY IDOCK:   -4.85 KCAL/MOL
REMARK 922        TOTAL FREE ENERGY PREDICTED BY IDOCK:   -7.02 KCAL/MOL
REMARK 923 INTER-LIGAND FREE ENERGY PREDICTED BY IDOCK:   -6.41 KCAL/MOL
REMARK 924 INTRA-LIGAND FREE ENERGY PREDICTED BY IDOCK:   -0.60 KCAL/MOL
REMARK 927      BINDING AFFINITY PREDICTED BY RF-SCORE:    0.00 PKD
ROOT
HETATM    1  C   UNK A   0     -10.016   3.439  72.180  1.00  0.00    -0.230 C  
HETATM    2  C   UNK A   0     -10.613   4.743  72.722  1.00  0.00    -0.272 C  
HETATM    3  C   UNK A   0     -10.517   4.699  74.257  1.00  0.00    -0.330 C  
HETATM    4  C   UNK A   0      -9.923   6.015  72.138  1.00  0.00    -0.189 C  
HETATM    5  C   UNK A   0     -10.024   6.171  70.603  1.00  0.00    -0.229 C  
HETATM    6  C   UNK A   0     -11.398   6.634  70.093  1.00  0.00    -0.440 C  
HETATM    7  C   UNK A   0     -12.003   7.826  70.863  1.00  0.00    -0.229 C  
HETATM    8  C   UNK A   0     -11.899   7.590  72.373  1.00  0.00    -0.305 C  
HETATM    9  C   UNK A   0     -10.450   7.315  72.769  1.00  0.00    -0.302 C  
ENDROOT
BRANCH   7  10
HETATM   10  C   UNK A   0     -11.400   9.186  70.466  1.00  0.00    -0.257 C  
HETATM   11  O   UNK A   0     -11.341  10.150  71.218  1.00  0.00    -0.325 OA 
ATOM     12  N   PHE A   1     -10.888   9.226  69.186  1.00  0.00    -0.375 N  
ATOM     13  H   PHE A   1     -11.018   8.411  68.586  1.00  0.00     0.000 HD 
BRANCH  12  14
ATOM     14  CA  PHE A   1     -10.166  10.382  68.646  1.00  0.00    -0.181 C  
ATOM     15  OXT PHE A   1      -8.189   9.213  69.466  1.00  0.00    -0.109 OA 
ATOM     16  C   PHE A   1      -8.677  10.227  68.979  1.00  0.00    -0.163 C  
ATOM     17  O   PHE A   1      -7.933  11.336  68.749  1.00  0.00    -0.141 OA 
BRANCH  14  18
ATOM     18  CB  PHE A   1     -10.406  10.655  67.148  1.00  0.00    -0.275 C  
BRANCH  18  19
ATOM     19  CG  PHE A   1     -10.708  12.080  66.740  1.00  0.00    -0.280 A  
ATOM     20  CD1 PHE A   1     -11.905  12.686  67.142  1.00  0.00    -0.399 A  
ATOM     21  CE1 PHE A   1     -12.186  14.011  66.808  1.00  0.00    -0.439 A  
ATOM     22  CZ  PHE A   1     -11.263  14.757  66.080  1.00  0.00    -0.337 A  
ATOM     23  CE2 PHE A   1     -10.062  14.173  65.683  1.00  0.00    -0.350 A  
ATOM     24  CD2 PHE A   1      -9.786  12.840  66.005  1.00  0.00    -0.258 A  
ENDBRANCH  18  19
ENDBRANCH  14  18
ENDBRANCH  12  14
ENDBRANCH   7  10
TORSDOF 4
ENDMDL
MODEL       83
REMARK 921   NORMALIZED FREE ENERGY PREDICTED BY IDOCK:   -4.84 KCAL/MOL
REMARK 922        TOTAL FREE ENERGY PREDICTED BY IDOCK:   -7.00 KCAL/MOL
REMARK 923 INTER-LIGAND FREE ENERGY PREDICTED BY IDOCK:   -6.28 KCAL/MOL
REMARK 924 INTRA-LIGAND FREE ENERGY PREDICTED BY IDOCK:   -0.72 KCAL/MOL
REMARK 927      BINDING AFFINITY PREDICTED BY RF-SCORE:    0.00 PKD
ROOT
HETATM    1  C   UNK A   0     -12.707  10.078  71.848  1.00  0.00    -0.493 C  
HETATM    2  C   UNK A   0     -11.793  10.584  70.725  1.00  0.00    -0.465 C  
HETATM    3  C   UNK A   0     -11.263   9.356  69.965  1.00  0.00    -0.217 C  
HETATM    4  C   UNK A   0     -12.507  11.590  69.769  1.00  0.00    -0.122 C  
HETATM    5  C   UNK A   0     -13.019  12.885  70.442  1.00  0.00     0.270 C  
HETATM    6  C   UNK A   0     -11.926  13.913  70.771  1.00  0.00    -0.348 C  
HETATM    7  C   UNK A   0     -10.927  14.180  69.627  1.00  0.00    -0.125 C  
HETATM    8  C   UNK A   0     -10.436  12.857  69.031  1.00  0.00    -0.022 C  
HETATM    9  C   UNK A   0     -11.622  12.005  68.582  1.00  0.00    -0.372 C  
ENDROOT
BRANCH   7  10
HETATM   10  C   UNK A   0     -11.475  15.118  68.536  1.00  0.00    -0.320 C  
HETATM   11  O   UNK A   0     -12.495  15.784  68.661  1.00  0.00     0.136 OA 
ATOM     12  N   PHE A   1     -10.697  15.181  67.400  1.00  0.00    -0.280 N  
ATOM     13  H   PHE A   1      -9.891  14.560  67.329  1.00  0.00     0.000 HD 
BRANCH  12  14
ATOM     14  CA  PHE A   1     -10.971  16.096  66.288  1.00  0.00    -0.031 C  
ATOM     15  OXT PHE A   1      -9.431  17.580  67.461  1.00  0.00    -0.250 OA 
ATOM     16  C   PHE A   1     -10.237  17.417  66.551  1.00  0.00    -0.329 C  
ATOM     17  O   PHE A   1     -10.595  18.431  65.727  1.00  0.00    -0.570 OA 
BRANCH  14  18
ATOM     18  CB  PHE A   1     -10.669  15.526  64.888  1.00  0.00    -0.415 C  
BRANCH  18  19
ATOM     19  CG  PHE A   1     -10.959  14.059  64.657  1.00  0.00    -0.401 A  
ATOM     20  CD1 PHE A   1     -11.932  13.675  63.727  1.00  0.00    -0.425 A  
ATOM     21  CE1 PHE A   1     -12.189  12.327  63.473  1.00  0.00    -0.669 A  
ATOM     22  CZ  PHE A   1     -11.461  11.342  64.133  1.00  0.00    -0.197 A  
ATOM     23  CE2 PHE A   1     -10.480  11.708  65.054  1.00  0.00    -0.336 A  
ATOM     24  CD2 PHE A   1     -10.233  13.059  65.320  1.00  0.00    -0.294 A  
ENDBRANCH  18  19
ENDBRANCH  14  18
ENDBRANCH  12  14
ENDBRANCH   7  10
TORSDOF 4
ENDMDL
MODEL       84
REMARK 921   NORMALIZED FREE ENERGY PREDICTED BY IDOCK:   -4.84 KCAL/MOL
REMARK 922        TOTAL FREE ENERGY PREDICTED BY IDOCK:   -7.00 KCAL/MOL
REMARK 923 INTER-LIGAND FREE ENERGY PREDICTED BY IDOCK:   -6.20 KCAL/MOL
REMARK 924 INTRA-LIGAND FREE ENERGY PREDICTED BY IDOCK:   -0.80 KCAL/MOL
REMARK 927      BINDING AFFINITY PREDICTED BY RF-SCORE:    0.00 PKD
ROOT
HETATM    1  C   UNK A   0     -13.589  13.353  71.986  1.00  0.00    -0.577 C  
HETATM    2  C   UNK A   0     -12.941  14.521  71.232  1.00  0.00    -0.403 C  
HETATM    3  C   UNK A   0     -12.829  15.704  72.209  1.00  0.00    -0.523 C  
HETATM    4  C   UNK A   0     -11.558  14.150  70.613  1.00  0.00    -0.169 C  
HETATM    5  C   UNK A   0     -11.589  13.007  69.572  1.00  0.00    -0.342 C  
HETATM    6  C   UNK A   0     -12.141  13.408  68.195  1.00  0.00    -0.267 C  
HETATM    7  C   UNK A   0     -11.571  14.725  67.631  1.00  0.00    -0.374 C  
HETATM    8  C   UNK A   0     -11.601  15.819  68.702  1.00  0.00    -0.392 C  
HETATM    9  C   UNK A   0     -10.863  15.355  69.956  1.00  0.00    -0.320 C  
ENDROOT
BRANCH   7  10
HETATM   10  C   UNK A   0     -10.165  14.577  67.021  1.00  0.00    -0.262 C  
HETATM   11  O   UNK A   0      -9.676  15.380  66.236  1.00  0.00    -0.257 OA 
ATOM     12  N   PHE A   1      -9.470  13.471  67.461  1.00  0.00    -0.215 N  
ATOM     13  H   PHE A   1      -9.950  12.807  68.069  1.00  0.00     0.000 HD 
BRANCH  12  14
ATOM     14  CA  PHE A   1      -8.075  13.201  67.099  1.00  0.00    -0.098 C  
ATOM     15  OXT PHE A   1      -7.567  14.671  68.978  1.00  0.00    -0.127 OA 
ATOM     16  C   PHE A   1      -7.164  14.033  68.011  1.00  0.00    -0.144 C  
ATOM     17  O   PHE A   1      -5.865  14.064  67.628  1.00  0.00    -0.289 OA 
BRANCH  14  18
ATOM     18  CB  PHE A   1      -7.685  11.710  67.083  1.00  0.00    -0.159 C  
BRANCH  18  19
ATOM     19  CG  PHE A   1      -8.615  10.740  67.779  1.00  0.00    -0.127 A  
ATOM     20  CD1 PHE A   1      -8.532  10.561  69.165  1.00  0.00    -0.152 A  
ATOM     21  CE1 PHE A   1      -9.405   9.699  69.831  1.00  0.00    -0.256 A  
ATOM     22  CZ  PHE A   1     -10.386   9.016  69.119  1.00  0.00    -0.229 A  
ATOM     23  CE2 PHE A   1     -10.490   9.192  67.741  1.00  0.00    -0.306 A  
ATOM     24  CD2 PHE A   1      -9.606  10.045  67.071  1.00  0.00    -0.212 A  
ENDBRANCH  18  19
ENDBRANCH  14  18
ENDBRANCH  12  14
ENDBRANCH   7  10
TORSDOF 4
ENDMDL
MODEL       85
REMARK 921   NORMALIZED FREE ENERGY PREDICTED BY IDOCK:   -4.83 KCAL/MOL
REMARK 922        TOTAL FREE ENERGY PREDICTED BY IDOCK:   -6.99 KCAL/MOL
REMARK 923 INTER-LIGAND FREE ENERGY PREDICTED BY IDOCK:   -6.35 KCAL/MOL
REMARK 924 INTRA-LIGAND FREE ENERGY PREDICTED BY IDOCK:   -0.64 KCAL/MOL
REMARK 927      BINDING AFFINITY PREDICTED BY RF-SCORE:    0.00 PKD
ROOT
HETATM    1  C   UNK A   0     -11.423  14.680  65.932  1.00  0.00    -0.338 C  
HETATM    2  C   UNK A   0     -10.223  13.932  66.526  1.00  0.00    -0.280 C  
HETATM    3  C   UNK A   0      -9.051  14.925  66.615  1.00  0.00    -0.309 C  
HETATM    4  C   UNK A   0     -10.536  13.283  67.909  1.00  0.00    -0.246 C  
HETATM    5  C   UNK A   0     -11.664  12.225  67.899  1.00  0.00    -0.410 C  
HETATM    6  C   UNK A   0     -11.262  10.865  67.308  1.00  0.00    -0.307 C  
HETATM    7  C   UNK A   0      -9.918  10.311  67.822  1.00  0.00    -0.203 C  
HETATM    8  C   UNK A   0      -8.842  11.400  67.774  1.00  0.00    -0.143 C  
HETATM    9  C   UNK A   0      -9.299  12.633  68.550  1.00  0.00    -0.082 C  
ENDROOT
BRANCH   7  10
HETATM   10  C   UNK A   0     -10.008   9.673  69.221  1.00  0.00    -0.191 C  
HETATM   11  O   UNK A   0      -9.121   9.749  70.061  1.00  0.00    -0.218 OA 
ATOM     12  N   PHE A   1     -11.201   9.031  69.474  1.00  0.00    -0.440 N  
ATOM     13  H   PHE A   1     -11.879   8.949  68.716  1.00  0.00     0.000 HD 
BRANCH  12  14
ATOM     14  CA  PHE A   1     -11.543   8.457  70.779  1.00  0.00    -0.232 C  
ATOM     15  OXT PHE A   1     -13.191  10.253  70.854  1.00  0.00    -0.395 OA 
ATOM     16  C   PHE A   1     -12.619   9.335  71.432  1.00  0.00    -0.336 C  
ATOM     17  O   PHE A   1     -12.853   9.057  72.737  1.00  0.00    -0.334 OA 
BRANCH  14  18
ATOM     18  CB  PHE A   1     -11.940   6.968  70.750  1.00  0.00    -0.392 C  
BRANCH  18  19
ATOM     19  CG  PHE A   1     -11.121   6.013  71.591  1.00  0.00    -0.333 A  
ATOM     20  CD1 PHE A   1      -9.783   5.762  71.265  1.00  0.00    -0.210 A  
ATOM     21  CE1 PHE A   1      -9.000   4.913  72.048  1.00  0.00    -0.146 A  
ATOM     22  CZ  PHE A   1      -9.542   4.317  73.183  1.00  0.00    -0.147 A  
ATOM     23  CE2 PHE A   1     -10.869   4.565  73.529  1.00  0.00    -0.360 A  
ATOM     24  CD2 PHE A   1     -11.658   5.404  72.735  1.00  0.00    -0.293 A  
ENDBRANCH  18  19
ENDBRANCH  14  18
ENDBRANCH  12  14
ENDBRANCH   7  10
TORSDOF 4
ENDMDL
MODEL       86
REMARK 921   NORMALIZED FREE ENERGY PREDICTED BY IDOCK:   -4.82 KCAL/MOL
REMARK 922        TOTAL FREE ENERGY PREDICTED BY IDOCK:   -6.98 KCAL/MOL
REMARK 923 INTER-LIGAND FREE ENERGY PREDICTED BY IDOCK:   -6.28 KCAL/MOL
REMARK 924 INTRA-LIGAND FREE ENERGY PREDICTED BY IDOCK:   -0.70 KCAL/MOL
REMARK 927      BINDING AFFINITY PREDICTED BY RF-SCORE:    0.00 PKD
ROOT
HETATM    1  C   UNK A   0      -8.244   6.861  69.824  1.00  0.00    -0.131 C  
HETATM    2  C   UNK A   0      -9.359   7.576  70.597  1.00  0.00    -0.163 C  
HETATM    3  C   UNK A   0      -9.302   7.091  72.056  1.00  0.00    -0.149 C  
HETATM    4  C   UNK A   0      -9.263   9.130  70.501  1.00  0.00    -0.286 C  
HETATM    5  C   UNK A   0      -9.373   9.708  69.071  1.00  0.00    -0.159 C  
HETATM    6  C   UNK A   0     -10.796   9.722  68.492  1.00  0.00    -0.227 C  
HETATM    7  C   UNK A   0     -11.876  10.265  69.448  1.00  0.00    -0.109 C  
HETATM    8  C   UNK A   0     -11.729   9.626  70.833  1.00  0.00    -0.412 C  
HETATM    9  C   UNK A   0     -10.315   9.841  71.369  1.00  0.00     0.184 C  
ENDROOT
BRANCH   7  10
HETATM   10  C   UNK A   0     -11.902  11.802  69.540  1.00  0.00    -0.337 C  
HETATM   11  O   UNK A   0     -12.205  12.418  70.554  1.00  0.00    -0.361 OA 
ATOM     12  N   PHE A   1     -11.517  12.444  68.383  1.00  0.00    -0.285 N  
ATOM     13  H   PHE A   1     -11.333  11.881  67.553  1.00  0.00     0.000 HD 
BRANCH  12  14
ATOM     14  CA  PHE A   1     -11.358  13.899  68.286  1.00  0.00    -0.294 C  
ATOM     15  OXT PHE A   1      -9.003  13.416  68.696  1.00  0.00    -0.111 OA 
ATOM     16  C   PHE A   1      -9.894  14.251  68.576  1.00  0.00    -0.231 C  
ATOM     17  O   PHE A   1      -9.660  15.573  68.756  1.00  0.00    -0.190 OA 
BRANCH  14  18
ATOM     18  CB  PHE A   1     -11.860  14.521  66.968  1.00  0.00    -0.408 C  
BRANCH  18  19
ATOM     19  CG  PHE A   1     -11.664  13.718  65.701  1.00  0.00    -0.360 A  
ATOM     20  CD1 PHE A   1     -10.383  13.572  65.155  1.00  0.00    -0.368 A  
ATOM     21  CE1 PHE A   1     -10.175  12.806  64.007  1.00  0.00    -0.323 A  
ATOM     22  CZ  PHE A   1     -11.246  12.157  63.399  1.00  0.00    -0.494 A  
ATOM     23  CE2 PHE A   1     -12.525  12.282  63.937  1.00  0.00    -0.586 A  
ATOM     24  CD2 PHE A   1     -12.736  13.062  65.079  1.00  0.00    -0.475 A  
ENDBRANCH  18  19
ENDBRANCH  14  18
ENDBRANCH  12  14
ENDBRANCH   7  10
TORSDOF 4
ENDMDL
MODEL       87
REMARK 921   NORMALIZED FREE ENERGY PREDICTED BY IDOCK:   -4.82 KCAL/MOL
REMARK 922        TOTAL FREE ENERGY PREDICTED BY IDOCK:   -6.98 KCAL/MOL
REMARK 923 INTER-LIGAND FREE ENERGY PREDICTED BY IDOCK:   -6.41 KCAL/MOL
REMARK 924 INTRA-LIGAND FREE ENERGY PREDICTED BY IDOCK:   -0.57 KCAL/MOL
REMARK 927      BINDING AFFINITY PREDICTED BY RF-SCORE:    0.00 PKD
ROOT
HETATM    1  C   UNK A   0     -11.262   6.238  71.498  1.00  0.00    -0.344 C  
HETATM    2  C   UNK A   0     -10.435   6.525  70.238  1.00  0.00    -0.261 C  
HETATM    3  C   UNK A   0     -10.482   5.267  69.353  1.00  0.00    -0.284 C  
HETATM    4  C   UNK A   0     -10.923   7.791  69.469  1.00  0.00    -0.092 C  
HETATM    5  C   UNK A   0     -10.852   9.113  70.267  1.00  0.00    -0.282 C  
HETATM    6  C   UNK A   0      -9.439   9.699  70.415  1.00  0.00    -0.280 C  
HETATM    7  C   UNK A   0      -8.617   9.735  69.111  1.00  0.00    -0.153 C  
HETATM    8  C   UNK A   0      -8.705   8.387  68.390  1.00  0.00    -0.136 C  
HETATM    9  C   UNK A   0     -10.164   8.008  68.149  1.00  0.00    -0.251 C  
ENDROOT
BRANCH   7  10
HETATM   10  C   UNK A   0      -8.997  10.897  68.174  1.00  0.00    -0.144 C  
HETATM   11  O   UNK A   0      -8.688  10.946  66.991  1.00  0.00    -0.138 OA 
ATOM     12  N   PHE A   1      -9.759  11.879  68.771  1.00  0.00    -0.394 N  
ATOM     13  H   PHE A   1      -9.935  11.814  69.774  1.00  0.00     0.000 HD 
BRANCH  12  14
ATOM     14  CA  PHE A   1     -10.326  13.013  68.036  1.00  0.00    -0.234 C  
ATOM     15  OXT PHE A   1     -12.238  11.532  67.727  1.00  0.00    -0.560 OA 
ATOM     16  C   PHE A   1     -11.682  12.590  67.456  1.00  0.00    -0.374 C  
ATOM     17  O   PHE A   1     -12.202  13.460  66.557  1.00  0.00    -0.399 OA 
BRANCH  14  18
ATOM     18  CB  PHE A   1     -10.416  14.327  68.837  1.00  0.00    -0.241 C  
BRANCH  18  19
ATOM     19  CG  PHE A   1     -10.046  15.606  68.119  1.00  0.00    -0.222 A  
ATOM     20  CD1 PHE A   1      -9.044  15.598  67.142  1.00  0.00    -0.227 A  
ATOM     21  CE1 PHE A   1      -8.713  16.759  66.443  1.00  0.00    -0.337 A  
ATOM     22  CZ  PHE A   1      -9.395  17.944  66.699  1.00  0.00    -0.293 A  
ATOM     23  CE2 PHE A   1     -10.404  17.968  67.660  1.00  0.00    -0.397 A  
ATOM     24  CD2 PHE A   1     -10.726  16.808  68.371  1.00  0.00    -0.362 A  
ENDBRANCH  18  19
ENDBRANCH  14  18
ENDBRANCH  12  14
ENDBRANCH   7  10
TORSDOF 4
ENDMDL
MODEL       88
REMARK 921   NORMALIZED FREE ENERGY PREDICTED BY IDOCK:   -4.81 KCAL/MOL
REMARK 922        TOTAL FREE ENERGY PREDICTED BY IDOCK:   -6.96 KCAL/MOL
REMARK 923 INTER-LIGAND FREE ENERGY PREDICTED BY IDOCK:   -6.87 KCAL/MOL
REMARK 924 INTRA-LIGAND FREE ENERGY PREDICTED BY IDOCK:   -0.09 KCAL/MOL
REMARK 927      BINDING AFFINITY PREDICTED BY RF-SCORE:    0.00 PKD
ROOT
HETATM    1  C   UNK A   0     -10.133   7.097  70.899  1.00  0.00    -0.200 C  
HETATM    2  C   UNK A   0     -11.205   8.189  70.996  1.00  0.00    -0.284 C  
HETATM    3  C   UNK A   0     -12.014   7.937  72.281  1.00  0.00    -0.387 C  
HETATM    4  C   UNK A   0     -10.608   9.630  70.963  1.00  0.00    -0.362 C  
HETATM    5  C   UNK A   0      -9.829   9.989  69.677  1.00  0.00    -0.261 C  
HETATM    6  C   UNK A   0     -10.710  10.285  68.453  1.00  0.00    -0.263 C  
HETATM    7  C   UNK A   0     -11.896  11.232  68.727  1.00  0.00    -0.396 C  
HETATM    8  C   UNK A   0     -12.640  10.799  69.993  1.00  0.00    -0.247 C  
HETATM    9  C   UNK A   0     -11.676  10.716  71.175  1.00  0.00    -0.248 C  
ENDROOT
BRANCH   7  10
HETATM   10  C   UNK A   0     -11.495  12.718  68.793  1.00  0.00    -0.304 C  
HETATM   11  O   UNK A   0     -11.042  13.343  67.842  1.00  0.00    -0.250 OA 
ATOM     12  N   PHE A   1     -11.723  13.312  70.016  1.00  0.00    -0.490 N  
ATOM     13  H   PHE A   1     -12.046  12.727  70.786  1.00  0.00     0.000 HD 
BRANCH  12  14
ATOM     14  CA  PHE A   1     -11.523  14.743  70.263  1.00  0.00    -0.260 C  
ATOM     15  OXT PHE A   1     -12.559  14.259  72.416  1.00  0.00    -0.301 OA 
ATOM     16  C   PHE A   1     -12.136  15.094  71.625  1.00  0.00    -0.359 C  
ATOM     17  O   PHE A   1     -12.234  16.422  71.869  1.00  0.00    -0.386 OA 
BRANCH  14  18
ATOM     18  CB  PHE A   1     -10.065  15.227  70.134  1.00  0.00    -0.116 C  
BRANCH  18  19
ATOM     19  CG  PHE A   1      -9.789  16.354  69.163  1.00  0.00    -0.272 A  
ATOM     20  CD1 PHE A   1     -10.852  17.021  68.542  1.00  0.00    -0.310 A  
ATOM     21  CE1 PHE A   1     -10.620  18.086  67.672  1.00  0.00    -0.413 A  
ATOM     22  CZ  PHE A   1      -9.319  18.512  67.423  1.00  0.00    -0.287 A  
ATOM     23  CE2 PHE A   1      -8.250  17.867  68.042  1.00  0.00    -0.257 A  
ATOM     24  CD2 PHE A   1      -8.481  16.790  68.903  1.00  0.00    -0.217 A  
ENDBRANCH  18  19
ENDBRANCH  14  18
ENDBRANCH  12  14
ENDBRANCH   7  10
TORSDOF 4
ENDMDL
MODEL       89
REMARK 921   NORMALIZED FREE ENERGY PREDICTED BY IDOCK:   -4.81 KCAL/MOL
REMARK 922        TOTAL FREE ENERGY PREDICTED BY IDOCK:   -6.96 KCAL/MOL
REMARK 923 INTER-LIGAND FREE ENERGY PREDICTED BY IDOCK:   -6.33 KCAL/MOL
REMARK 924 INTRA-LIGAND FREE ENERGY PREDICTED BY IDOCK:   -0.62 KCAL/MOL
REMARK 927      BINDING AFFINITY PREDICTED BY RF-SCORE:    0.00 PKD
ROOT
HETATM    1  C   UNK A   0     -10.643   8.432  72.358  1.00  0.00    -0.405 C  
HETATM    2  C   UNK A   0     -11.195   9.066  71.075  1.00  0.00    -0.361 C  
HETATM    3  C   UNK A   0     -12.319  10.036  71.478  1.00  0.00    -0.513 C  
HETATM    4  C   UNK A   0     -10.094   9.778  70.229  1.00  0.00    -0.323 C  
HETATM    5  C   UNK A   0      -8.953   8.861  69.729  1.00  0.00    -0.149 C  
HETATM    6  C   UNK A   0      -9.330   7.954  68.547  1.00  0.00    -0.141 C  
HETATM    7  C   UNK A   0     -10.080   8.665  67.403  1.00  0.00    -0.292 C  
HETATM    8  C   UNK A   0     -11.214   9.527  67.966  1.00  0.00     0.082 C  
HETATM    9  C   UNK A   0     -10.671  10.507  69.004  1.00  0.00    -0.259 C  
ENDROOT
BRANCH   7  10
HETATM   10  C   UNK A   0      -9.160   9.484  66.478  1.00  0.00    -0.151 C  
HETATM   11  O   UNK A   0      -8.156  10.069  66.862  1.00  0.00    -0.116 OA 
ATOM     12  N   PHE A   1      -9.540   9.478  65.152  1.00  0.00    -0.428 N  
ATOM     13  H   PHE A   1     -10.418   9.023  64.901  1.00  0.00     0.000 HD 
BRANCH  12  14
ATOM     14  CA  PHE A   1      -8.745  10.094  64.086  1.00  0.00    -0.204 C  
ATOM     15  OXT PHE A   1      -8.098   7.797  63.586  1.00  0.00    -0.130 OA 
ATOM     16  C   PHE A   1      -7.943   8.996  63.378  1.00  0.00    -0.149 C  
ATOM     17  O   PHE A   1      -6.988   9.455  62.534  1.00  0.00    -0.099 OA 
BRANCH  14  18
ATOM     18  CB  PHE A   1      -9.547  10.964  63.098  1.00  0.00    -0.384 C  
BRANCH  18  19
ATOM     19  CG  PHE A   1     -10.477  12.004  63.683  1.00  0.00    -0.494 A  
ATOM     20  CD1 PHE A   1     -11.863  11.854  63.559  1.00  0.00    -0.560 A  
ATOM     21  CE1 PHE A   1     -12.739  12.782  64.123  1.00  0.00    -0.314 A  
ATOM     22  CZ  PHE A   1     -12.239  13.867  64.837  1.00  0.00    -0.445 A  
ATOM     23  CE2 PHE A   1     -10.862  14.025  64.980  1.00  0.00    -0.401 A  
ATOM     24  CD2 PHE A   1      -9.984  13.103  64.402  1.00  0.00    -0.095 A  
ENDBRANCH  18  19
ENDBRANCH  14  18
ENDBRANCH  12  14
ENDBRANCH   7  10
TORSDOF 4
ENDMDL
MODEL       90
REMARK 921   NORMALIZED FREE ENERGY PREDICTED BY IDOCK:   -4.79 KCAL/MOL
REMARK 922        TOTAL FREE ENERGY PREDICTED BY IDOCK:   -6.94 KCAL/MOL
REMARK 923 INTER-LIGAND FREE ENERGY PREDICTED BY IDOCK:   -6.38 KCAL/MOL
REMARK 924 INTRA-LIGAND FREE ENERGY PREDICTED BY IDOCK:   -0.55 KCAL/MOL
REMARK 927      BINDING AFFINITY PREDICTED BY RF-SCORE:    0.00 PKD
ROOT
HETATM    1  C   UNK A   0     -10.511  19.839  65.964  1.00  0.00    -0.609 C  
HETATM    2  C   UNK A   0      -9.323  19.106  66.600  1.00  0.00    -0.375 C  
HETATM    3  C   UNK A   0      -8.474  20.150  67.347  1.00  0.00    -0.398 C  
HETATM    4  C   UNK A   0      -9.764  17.942  67.541  1.00  0.00    -0.278 C  
HETATM    5  C   UNK A   0     -10.573  16.815  66.857  1.00  0.00    -0.219 C  
HETATM    6  C   UNK A   0      -9.736  15.855  65.996  1.00  0.00    -0.375 C  
HETATM    7  C   UNK A   0      -8.442  15.350  66.666  1.00  0.00    -0.296 C  
HETATM    8  C   UNK A   0      -7.677  16.520  67.292  1.00  0.00    -0.193 C  
HETATM    9  C   UNK A   0      -8.575  17.284  68.262  1.00  0.00    -0.247 C  
ENDROOT
BRANCH   7  10
HETATM   10  C   UNK A   0      -8.677  14.223  67.688  1.00  0.00    -0.191 C  
HETATM   11  O   UNK A   0      -8.003  14.070  68.699  1.00  0.00    -0.138 OA 
ATOM     12  N   PHE A   1      -9.747  13.405  67.393  1.00  0.00    -0.217 N  
ATOM     13  H   PHE A   1     -10.235  13.545  66.508  1.00  0.00     0.000 HD 
BRANCH  12  14
ATOM     14  CA  PHE A   1     -10.218  12.345  68.289  1.00  0.00    -0.229 C  
ATOM     15  OXT PHE A   1     -12.193  12.361  66.858  1.00  0.00    -0.527 OA 
ATOM     16  C   PHE A   1     -11.643  11.953  67.875  1.00  0.00    -0.323 C  
ATOM     17  O   PHE A   1     -12.285  11.157  68.764  1.00  0.00    -0.555 OA 
BRANCH  14  18
ATOM     18  CB  PHE A   1      -9.283  11.124  68.398  1.00  0.00    -0.175 C  
BRANCH  18  19
ATOM     19  CG  PHE A   1      -8.735  10.550  67.110  1.00  0.00    -0.130 A  
ATOM     20  CD1 PHE A   1      -9.556   9.775  66.282  1.00  0.00    -0.271 A  
ATOM     21  CE1 PHE A   1      -9.081   9.267  65.073  1.00  0.00    -0.245 A  
ATOM     22  CZ  PHE A   1      -7.780   9.544  64.664  1.00  0.00    -0.120 A  
ATOM     23  CE2 PHE A   1      -6.953  10.324  65.470  1.00  0.00    -0.138 A  
ATOM     24  CD2 PHE A   1      -7.424  10.821  66.690  1.00  0.00    -0.135 A  
ENDBRANCH  18  19
ENDBRANCH  14  18
ENDBRANCH  12  14
ENDBRANCH   7  10
TORSDOF 4
ENDMDL
MODEL       91
REMARK 921   NORMALIZED FREE ENERGY PREDICTED BY IDOCK:   -4.77 KCAL/MOL
REMARK 922        TOTAL FREE ENERGY PREDICTED BY IDOCK:   -6.92 KCAL/MOL
REMARK 923 INTER-LIGAND FREE ENERGY PREDICTED BY IDOCK:   -6.21 KCAL/MOL
REMARK 924 INTRA-LIGAND FREE ENERGY PREDICTED BY IDOCK:   -0.71 KCAL/MOL
REMARK 927      BINDING AFFINITY PREDICTED BY RF-SCORE:    0.00 PKD
ROOT
HETATM    1  C   UNK A   0     -11.304   4.430  73.270  1.00  0.00    -0.334 C  
HETATM    2  C   UNK A   0     -10.186   5.438  72.976  1.00  0.00    -0.212 C  
HETATM    3  C   UNK A   0      -8.842   4.733  73.231  1.00  0.00    -0.107 C  
HETATM    4  C   UNK A   0     -10.264   6.026  71.533  1.00  0.00    -0.249 C  
HETATM    5  C   UNK A   0     -11.560   6.805  71.211  1.00  0.00    -0.366 C  
HETATM    6  C   UNK A   0     -11.635   8.210  71.830  1.00  0.00    -0.342 C  
HETATM    7  C   UNK A   0     -10.360   9.059  71.658  1.00  0.00    -0.420 C  
HETATM    8  C   UNK A   0      -9.121   8.237  72.025  1.00  0.00    -0.267 C  
HETATM    9  C   UNK A   0      -9.077   6.948  71.207  1.00  0.00    -0.149 C  
ENDROOT
BRANCH   7  10
HETATM   10  C   UNK A   0     -10.221   9.687  70.258  1.00  0.00    -0.277 C  
HETATM   11  O   UNK A   0      -9.191  10.201  69.842  1.00  0.00    -0.192 OA 
ATOM     12  N   PHE A   1     -11.356   9.593  69.481  1.00  0.00    -0.434 N  
ATOM     13  H   PHE A   1     -12.202   9.208  69.902  1.00  0.00     0.000 HD 
BRANCH  12  14
ATOM     14  CA  PHE A   1     -11.407  10.019  68.079  1.00  0.00     0.004 C  
ATOM     15  OXT PHE A   1     -11.417  12.266  69.025  1.00  0.00    -0.254 OA 
ATOM     16  C   PHE A   1     -11.524  11.548  68.037  1.00  0.00    -0.311 C  
ATOM     17  O   PHE A   1     -11.821  12.054  66.817  1.00  0.00    -0.581 OA 
BRANCH  14  18
ATOM     18  CB  PHE A   1     -10.255   9.495  67.199  1.00  0.00    -0.305 C  
BRANCH  18  19
ATOM     19  CG  PHE A   1      -9.912   8.025  67.304  1.00  0.00    -0.282 A  
ATOM     20  CD1 PHE A   1     -10.901   7.058  67.095  1.00  0.00    -0.427 A  
ATOM     21  CE1 PHE A   1     -10.598   5.697  67.152  1.00  0.00    -0.344 A  
ATOM     22  CZ  PHE A   1      -9.292   5.284  67.400  1.00  0.00    -0.122 A  
ATOM     23  CE2 PHE A   1      -8.293   6.235  67.599  1.00  0.00    -0.117 A  
ATOM     24  CD2 PHE A   1      -8.600   7.599  67.557  1.00  0.00    -0.119 A  
ENDBRANCH  18  19
ENDBRANCH  14  18
ENDBRANCH  12  14
ENDBRANCH   7  10
TORSDOF 4
ENDMDL
MODEL       92
REMARK 921   NORMALIZED FREE ENERGY PREDICTED BY IDOCK:   -4.77 KCAL/MOL
REMARK 922        TOTAL FREE ENERGY PREDICTED BY IDOCK:   -6.91 KCAL/MOL
REMARK 923 INTER-LIGAND FREE ENERGY PREDICTED BY IDOCK:   -6.52 KCAL/MOL
REMARK 924 INTRA-LIGAND FREE ENERGY PREDICTED BY IDOCK:   -0.38 KCAL/MOL
REMARK 927      BINDING AFFINITY PREDICTED BY RF-SCORE:    0.00 PKD
ROOT
HETATM    1  C   UNK A   0      -7.261   7.582  64.441  1.00  0.00    -0.081 C  
HETATM    2  C   UNK A   0      -7.855   6.423  65.250  1.00  0.00    -0.108 C  
HETATM    3  C   UNK A   0      -6.965   5.189  65.021  1.00  0.00    -0.061 C  
HETATM    4  C   UNK A   0      -8.002   6.755  66.767  1.00  0.00    -0.108 C  
HETATM    5  C   UNK A   0      -8.931   7.948  67.092  1.00  0.00    -0.142 C  
HETATM    6  C   UNK A   0     -10.432   7.644  66.973  1.00  0.00    -0.419 C  
HETATM    7  C   UNK A   0     -10.878   6.329  67.645  1.00  0.00    -0.433 C  
HETATM    8  C   UNK A   0      -9.936   5.187  67.255  1.00  0.00    -0.218 C  
HETATM    9  C   UNK A   0      -8.492   5.552  67.590  1.00  0.00    -0.102 C  
ENDROOT
BRANCH   7  10
HETATM   10  C   UNK A   0     -11.024   6.438  69.174  1.00  0.00    -0.355 C  
HETATM   11  O   UNK A   0     -10.803   5.513  69.946  1.00  0.00    -0.326 OA 
ATOM     12  N   PHE A   1     -11.394   7.688  69.620  1.00  0.00    -0.451 N  
ATOM     13  H   PHE A   1     -11.622   8.403  68.928  1.00  0.00     0.000 HD 
BRANCH  12  14
ATOM     14  CA  PHE A   1     -11.477   8.043  71.040  1.00  0.00    -0.279 C  
ATOM     15  OXT PHE A   1      -9.199   8.847  70.714  1.00  0.00    -0.183 OA 
ATOM     16  C   PHE A   1     -10.119   8.598  71.486  1.00  0.00    -0.274 C  
ATOM     17  O   PHE A   1      -9.983   8.739  72.826  1.00  0.00    -0.122 OA 
BRANCH  14  18
ATOM     18  CB  PHE A   1     -12.643   8.982  71.408  1.00  0.00    -0.370 C  
BRANCH  18  19
ATOM     19  CG  PHE A   1     -12.492  10.447  71.063  1.00  0.00    -0.488 A  
ATOM     20  CD1 PHE A   1     -11.971  10.824  69.819  1.00  0.00    -0.397 A  
ATOM     21  CE1 PHE A   1     -11.858  12.169  69.467  1.00  0.00    -0.386 A  
ATOM     22  CZ  PHE A   1     -12.282  13.159  70.348  1.00  0.00    -0.389 A  
ATOM     23  CE2 PHE A   1     -12.814  12.800  71.586  1.00  0.00    -0.363 A  
ATOM     24  CD2 PHE A   1     -12.915  11.452  71.945  1.00  0.00    -0.466 A  
ENDBRANCH  18  19
ENDBRANCH  14  18
ENDBRANCH  12  14
ENDBRANCH   7  10
TORSDOF 4
ENDMDL
MODEL       93
REMARK 921   NORMALIZED FREE ENERGY PREDICTED BY IDOCK:   -4.77 KCAL/MOL
REMARK 922        TOTAL FREE ENERGY PREDICTED BY IDOCK:   -6.91 KCAL/MOL
REMARK 923 INTER-LIGAND FREE ENERGY PREDICTED BY IDOCK:   -6.52 KCAL/MOL
REMARK 924 INTRA-LIGAND FREE ENERGY PREDICTED BY IDOCK:   -0.38 KCAL/MOL
REMARK 927      BINDING AFFINITY PREDICTED BY RF-SCORE:    0.00 PKD
ROOT
HETATM    1  C   UNK A   0      -8.874   8.895  65.242  1.00  0.00    -0.227 C  
HETATM    2  C   UNK A   0      -9.229  10.262  64.645  1.00  0.00    -0.290 C  
HETATM    3  C   UNK A   0      -9.598  10.045  63.167  1.00  0.00    -0.107 C  
HETATM    4  C   UNK A   0     -10.370  10.986  65.424  1.00  0.00    -0.330 C  
HETATM    5  C   UNK A   0     -10.058  11.298  66.906  1.00  0.00    -0.246 C  
HETATM    6  C   UNK A   0      -9.103  12.482  67.126  1.00  0.00    -0.205 C  
HETATM    7  C   UNK A   0      -9.437  13.741  66.300  1.00  0.00    -0.221 C  
HETATM    8  C   UNK A   0      -9.702  13.363  64.839  1.00  0.00     0.107 C  
HETATM    9  C   UNK A   0     -10.798  12.303  64.755  1.00  0.00    -0.345 C  
ENDROOT
BRANCH   7  10
HETATM   10  C   UNK A   0     -10.596  14.571  66.883  1.00  0.00    -0.279 C  
HETATM   11  O   UNK A   0     -11.719  14.607  66.396  1.00  0.00    -0.369 OA 
ATOM     12  N   PHE A   1     -10.279  15.253  68.038  1.00  0.00    -0.229 N  
ATOM     13  H   PHE A   1      -9.313  15.232  68.364  1.00  0.00     0.000 HD 
BRANCH  12  14
ATOM     14  CA  PHE A   1     -11.262  16.008  68.820  1.00  0.00    -0.360 C  
ATOM     15  OXT PHE A   1     -11.404  13.966  70.144  1.00  0.00    -0.148 OA 
ATOM     16  C   PHE A   1     -11.840  15.086  69.900  1.00  0.00    -0.324 C  
ATOM     17  O   PHE A   1     -12.928  15.582  70.538  1.00  0.00    -0.427 OA 
BRANCH  14  18
ATOM     18  CB  PHE A   1     -10.745  17.339  69.402  1.00  0.00     0.019 C  
BRANCH  18  19
ATOM     19  CG  PHE A   1     -10.122  18.325  68.437  1.00  0.00    -0.412 A  
ATOM     20  CD1 PHE A   1      -8.856  18.860  68.701  1.00  0.00    -0.374 A  
ATOM     21  CE1 PHE A   1      -8.249  19.742  67.806  1.00  0.00    -0.340 A  
ATOM     22  CZ  PHE A   1      -8.894  20.087  66.622  1.00  0.00    -0.417 A  
ATOM     23  CE2 PHE A   1     -10.150  19.554  66.338  1.00  0.00    -0.551 A  
ATOM     24  CD2 PHE A   1     -10.765  18.681  67.242  1.00  0.00    -0.449 A  
ENDBRANCH  18  19
ENDBRANCH  14  18
ENDBRANCH  12  14
ENDBRANCH   7  10
TORSDOF 4
ENDMDL
MODEL       94
REMARK 921   NORMALIZED FREE ENERGY PREDICTED BY IDOCK:   -4.77 KCAL/MOL
REMARK 922        TOTAL FREE ENERGY PREDICTED BY IDOCK:   -6.91 KCAL/MOL
REMARK 923 INTER-LIGAND FREE ENERGY PREDICTED BY IDOCK:   -5.86 KCAL/MOL
REMARK 924 INTRA-LIGAND FREE ENERGY PREDICTED BY IDOCK:   -1.05 KCAL/MOL
REMARK 927      BINDING AFFINITY PREDICTED BY RF-SCORE:    0.00 PKD
ROOT
HETATM    1  C   UNK A   0     -10.234  11.980  63.474  1.00  0.00    -0.477 C  
HETATM    2  C   UNK A   0     -10.716  12.172  64.918  1.00  0.00    -0.336 C  
HETATM    3  C   UNK A   0     -12.234  12.422  64.874  1.00  0.00    -0.485 C  
HETATM    4  C   UNK A   0     -10.356  10.968  65.842  1.00  0.00    -0.315 C  
HETATM    5  C   UNK A   0      -8.843  10.683  65.991  1.00  0.00    -0.187 C  
HETATM    6  C   UNK A   0      -8.093  11.662  66.908  1.00  0.00    -0.164 C  
HETATM    7  C   UNK A   0      -8.790  11.948  68.253  1.00  0.00    -0.174 C  
HETATM    8  C   UNK A   0     -10.274  12.253  68.028  1.00  0.00    -0.206 C  
HETATM    9  C   UNK A   0     -10.940  11.115  67.257  1.00  0.00    -0.354 C  
ENDROOT
BRANCH   7  10
HETATM   10  C   UNK A   0      -8.600  10.830  69.296  1.00  0.00    -0.033 C  
HETATM   11  O   UNK A   0      -7.509  10.480  69.726  1.00  0.00    -0.154 OA 
ATOM     12  N   PHE A   1      -9.776  10.268  69.744  1.00  0.00    -0.393 N  
ATOM     13  H   PHE A   1     -10.651  10.559  69.307  1.00  0.00     0.000 HD 
BRANCH  12  14
ATOM     14  CA  PHE A   1      -9.832   9.272  70.818  1.00  0.00    -0.283 C  
ATOM     15  OXT PHE A   1     -12.195   9.868  70.906  1.00  0.00    -0.300 OA 
ATOM     16  C   PHE A   1     -11.252   9.258  71.398  1.00  0.00    -0.362 C  
ATOM     17  O   PHE A   1     -11.379   8.559  72.551  1.00  0.00    -0.368 OA 
BRANCH  14  18
ATOM     18  CB  PHE A   1      -9.346   7.863  70.423  1.00  0.00    -0.159 C  
BRANCH  18  19
ATOM     19  CG  PHE A   1      -9.294   7.534  68.948  1.00  0.00    -0.142 A  
ATOM     20  CD1 PHE A   1     -10.478   7.455  68.204  1.00  0.00    -0.241 A  
ATOM     21  CE1 PHE A   1     -10.449   7.188  66.835  1.00  0.00    -0.364 A  
ATOM     22  CZ  PHE A   1      -9.231   7.015  66.184  1.00  0.00    -0.119 A  
ATOM     23  CE2 PHE A   1      -8.042   7.102  66.907  1.00  0.00    -0.116 A  
ATOM     24  CD2 PHE A   1      -8.072   7.355  68.283  1.00  0.00    -0.125 A  
ENDBRANCH  18  19
ENDBRANCH  14  18
ENDBRANCH  12  14
ENDBRANCH   7  10
TORSDOF 4
ENDMDL
MODEL       95
REMARK 921   NORMALIZED FREE ENERGY PREDICTED BY IDOCK:   -4.77 KCAL/MOL
REMARK 922        TOTAL FREE ENERGY PREDICTED BY IDOCK:   -6.91 KCAL/MOL
REMARK 923 INTER-LIGAND FREE ENERGY PREDICTED BY IDOCK:   -6.39 KCAL/MOL
REMARK 924 INTRA-LIGAND FREE ENERGY PREDICTED BY IDOCK:   -0.51 KCAL/MOL
REMARK 927      BINDING AFFINITY PREDICTED BY RF-SCORE:    0.00 PKD
ROOT
HETATM    1  C   UNK A   0     -10.451   6.814  71.002  1.00  0.00    -0.237 C  
HETATM    2  C   UNK A   0     -11.398   8.019  71.064  1.00  0.00    -0.294 C  
HETATM    3  C   UNK A   0     -12.251   7.879  72.337  1.00  0.00    -0.295 C  
HETATM    4  C   UNK A   0     -10.646   9.385  71.021  1.00  0.00    -0.400 C  
HETATM    5  C   UNK A   0      -9.810   9.635  69.744  1.00  0.00    -0.253 C  
HETATM    6  C   UNK A   0     -10.634  10.005  68.500  1.00  0.00    -0.245 C  
HETATM    7  C   UNK A   0     -11.712  11.081  68.738  1.00  0.00    -0.383 C  
HETATM    8  C   UNK A   0     -12.521  10.754  69.997  1.00  0.00    -0.317 C  
HETATM    9  C   UNK A   0     -11.591  10.585  71.197  1.00  0.00    -0.230 C  
ENDROOT
BRANCH   7  10
HETATM   10  C   UNK A   0     -11.151  12.515  68.789  1.00  0.00    -0.270 C  
HETATM   11  O   UNK A   0     -11.512  13.358  69.600  1.00  0.00    -0.261 OA 
ATOM     12  N   PHE A   1     -10.166  12.771  67.860  1.00  0.00    -0.223 N  
ATOM     13  H   PHE A   1      -9.948  12.049  67.173  1.00  0.00     0.000 HD 
BRANCH  12  14
ATOM     14  CA  PHE A   1      -9.416  14.029  67.810  1.00  0.00    -0.209 C  
ATOM     15  OXT PHE A   1      -7.527  12.590  67.255  1.00  0.00    -0.150 OA 
ATOM     16  C   PHE A   1      -7.940  13.709  67.542  1.00  0.00    -0.182 C  
ATOM     17  O   PHE A   1      -7.100  14.758  67.709  1.00  0.00    -0.140 OA 
BRANCH  14  18
ATOM     18  CB  PHE A   1      -9.975  15.079  66.829  1.00  0.00    -0.254 C  
BRANCH  18  19
ATOM     19  CG  PHE A   1      -9.978  16.523  67.283  1.00  0.00    -0.264 A  
ATOM     20  CD1 PHE A   1     -10.380  17.534  66.403  1.00  0.00    -0.334 A  
ATOM     21  CE1 PHE A   1     -10.425  18.867  66.813  1.00  0.00    -0.497 A  
ATOM     22  CZ  PHE A   1     -10.085  19.206  68.119  1.00  0.00    -0.486 A  
ATOM     23  CE2 PHE A   1      -9.693  18.210  69.012  1.00  0.00    -0.208 A  
ATOM     24  CD2 PHE A   1      -9.634  16.876  68.596  1.00  0.00    -0.265 A  
ENDBRANCH  18  19
ENDBRANCH  14  18
ENDBRANCH  12  14
ENDBRANCH   7  10
TORSDOF 4
ENDMDL
MODEL       96
REMARK 921   NORMALIZED FREE ENERGY PREDICTED BY IDOCK:   -4.72 KCAL/MOL
REMARK 922        TOTAL FREE ENERGY PREDICTED BY IDOCK:   -6.86 KCAL/MOL
REMARK 923 INTER-LIGAND FREE ENERGY PREDICTED BY IDOCK:   -5.40 KCAL/MOL
REMARK 924 INTRA-LIGAND FREE ENERGY PREDICTED BY IDOCK:   -1.45 KCAL/MOL
REMARK 927      BINDING AFFINITY PREDICTED BY RF-SCORE:    0.00 PKD
ROOT
HETATM    1  C   UNK A   0      -8.281  20.248  67.251  1.00  0.00    -0.393 C  
HETATM    2  C   UNK A   0      -8.604  19.033  68.127  1.00  0.00    -0.355 C  
HETATM    3  C   UNK A   0      -9.997  19.257  68.742  1.00  0.00    -0.511 C  
HETATM    4  C   UNK A   0      -8.529  17.685  67.346  1.00  0.00    -0.227 C  
HETATM    5  C   UNK A   0      -7.144  17.350  66.744  1.00  0.00    -0.245 C  
HETATM    6  C   UNK A   0      -6.102  16.863  67.764  1.00  0.00    -0.154 C  
HETATM    7  C   UNK A   0      -6.613  15.786  68.742  1.00  0.00    -0.113 C  
HETATM    8  C   UNK A   0      -7.969  16.197  69.324  1.00  0.00    -0.194 C  
HETATM    9  C   UNK A   0      -8.964  16.482  68.201  1.00  0.00    -0.207 C  
ENDROOT
BRANCH   7  10
HETATM   10  C   UNK A   0      -6.670  14.374  68.130  1.00  0.00    -0.127 C  
HETATM   11  O   UNK A   0      -6.279  14.105  67.001  1.00  0.00    -0.017 OA 
ATOM     12  N   PHE A   1      -7.170  13.409  68.978  1.00  0.00    -0.247 N  
ATOM     13  H   PHE A   1      -7.535  13.702  69.885  1.00  0.00     0.000 HD 
BRANCH  12  14
ATOM     14  CA  PHE A   1      -7.204  11.983  68.641  1.00  0.00    -0.110 C  
ATOM     15  OXT PHE A   1      -6.150  11.700  70.821  1.00  0.00    -0.342 OA 
ATOM     16  C   PHE A   1      -6.508  11.199  69.761  1.00  0.00    -0.137 C  
ATOM     17  O   PHE A   1      -6.257   9.901  69.464  1.00  0.00    -0.043 OA 
BRANCH  14  18
ATOM     18  CB  PHE A   1      -8.604  11.425  68.318  1.00  0.00    -0.156 C  
BRANCH  18  19
ATOM     19  CG  PHE A   1      -9.663  12.414  67.880  1.00  0.00    -0.204 A  
ATOM     20  CD1 PHE A   1      -9.664  12.905  66.570  1.00  0.00    -0.257 A  
ATOM     21  CE1 PHE A   1     -10.653  13.789  66.136  1.00  0.00    -0.291 A  
ATOM     22  CZ  PHE A   1     -11.667  14.181  67.004  1.00  0.00    -0.430 A  
ATOM     23  CE2 PHE A   1     -11.688  13.691  68.309  1.00  0.00    -0.398 A  
ATOM     24  CD2 PHE A   1     -10.689  12.817  68.748  1.00  0.00    -0.246 A  
ENDBRANCH  18  19
ENDBRANCH  14  18
ENDBRANCH  12  14
ENDBRANCH   7  10
TORSDOF 4
ENDMDL
MODEL       97
REMARK 921   NORMALIZED FREE ENERGY PREDICTED BY IDOCK:   -4.72 KCAL/MOL
REMARK 922        TOTAL FREE ENERGY PREDICTED BY IDOCK:   -6.85 KCAL/MOL
REMARK 923 INTER-LIGAND FREE ENERGY PREDICTED BY IDOCK:   -6.22 KCAL/MOL
REMARK 924 INTRA-LIGAND FREE ENERGY PREDICTED BY IDOCK:   -0.63 KCAL/MOL
REMARK 927      BINDING AFFINITY PREDICTED BY RF-SCORE:    0.00 PKD
ROOT
HETATM    1  C   UNK A   0      -7.634   7.508  65.596  1.00  0.00    -0.091 C  
HETATM    2  C   UNK A   0      -8.363   7.544  66.944  1.00  0.00    -0.125 C  
HETATM    3  C   UNK A   0      -7.748   6.452  67.838  1.00  0.00    -0.104 C  
HETATM    4  C   UNK A   0      -8.308   8.946  67.626  1.00  0.00    -0.110 C  
HETATM    5  C   UNK A   0      -8.961  10.094  66.821  1.00  0.00    -0.147 C  
HETATM    6  C   UNK A   0     -10.497  10.100  66.842  1.00  0.00    -0.286 C  
HETATM    7  C   UNK A   0     -11.123   9.908  68.239  1.00  0.00    -0.207 C  
HETATM    8  C   UNK A   0     -10.454   8.737  68.964  1.00  0.00    -0.220 C  
HETATM    9  C   UNK A   0      -8.942   8.946  69.027  1.00  0.00    -0.137 C  
ENDROOT
BRANCH   7  10
HETATM   10  C   UNK A   0     -11.109  11.184  69.101  1.00  0.00    -0.248 C  
HETATM   11  O   UNK A   0     -11.319  11.192  70.307  1.00  0.00    -0.268 OA 
ATOM     12  N   PHE A   1     -10.800  12.334  68.406  1.00  0.00    -0.220 N  
ATOM     13  H   PHE A   1     -10.693  12.274  67.393  1.00  0.00     0.000 HD 
BRANCH  12  14
ATOM     14  CA  PHE A   1     -10.618  13.638  69.051  1.00  0.00    -0.121 C  
ATOM     15  OXT PHE A   1      -9.117  14.072  67.178  1.00  0.00    -0.212 OA 
ATOM     16  C   PHE A   1      -9.573  14.433  68.258  1.00  0.00    -0.211 C  
ATOM     17  O   PHE A   1      -9.134  15.555  68.878  1.00  0.00    -0.188 OA 
BRANCH  14  18
ATOM     18  CB  PHE A   1     -11.916  14.438  69.276  1.00  0.00    -0.362 C  
BRANCH  18  19
ATOM     19  CG  PHE A   1     -12.272  14.798  70.702  1.00  0.00    -0.385 A  
ATOM     20  CD1 PHE A   1     -11.370  15.525  71.488  1.00  0.00    -0.466 A  
ATOM     21  CE1 PHE A   1     -11.694  15.899  72.793  1.00  0.00    -0.497 A  
ATOM     22  CZ  PHE A   1     -12.936  15.566  73.324  1.00  0.00    -0.654 A  
ATOM     23  CE2 PHE A   1     -13.851  14.854  72.551  1.00  0.00    -0.564 A  
ATOM     24  CD2 PHE A   1     -13.521  14.466  71.249  1.00  0.00    -0.401 A  
ENDBRANCH  18  19
ENDBRANCH  14  18
ENDBRANCH  12  14
ENDBRANCH   7  10
TORSDOF 4
ENDMDL
MODEL       98
REMARK 921   NORMALIZED FREE ENERGY PREDICTED BY IDOCK:   -4.72 KCAL/MOL
REMARK 922        TOTAL FREE ENERGY PREDICTED BY IDOCK:   -6.85 KCAL/MOL
REMARK 923 INTER-LIGAND FREE ENERGY PREDICTED BY IDOCK:   -6.02 KCAL/MOL
REMARK 924 INTRA-LIGAND FREE ENERGY PREDICTED BY IDOCK:   -0.83 KCAL/MOL
REMARK 927      BINDING AFFINITY PREDICTED BY RF-SCORE:    0.00 PKD
ROOT
HETATM    1  C   UNK A   0     -10.662  15.863  65.058  1.00  0.00    -0.426 C  
HETATM    2  C   UNK A   0     -11.395  14.568  65.429  1.00  0.00    -0.341 C  
HETATM    3  C   UNK A   0     -12.142  14.078  64.176  1.00  0.00    -0.456 C  
HETATM    4  C   UNK A   0     -10.441  13.472  65.996  1.00  0.00    -0.299 C  
HETATM    5  C   UNK A   0      -9.693  13.859  67.293  1.00  0.00    -0.245 C  
HETATM    6  C   UNK A   0     -10.554  13.823  68.566  1.00  0.00    -0.261 C  
HETATM    7  C   UNK A   0     -11.421  12.557  68.722  1.00  0.00    -0.353 C  
HETATM    8  C   UNK A   0     -12.156  12.253  67.413  1.00  0.00    -0.021 C  
HETATM    9  C   UNK A   0     -11.162  12.139  66.260  1.00  0.00    -0.382 C  
ENDROOT
BRANCH   7  10
HETATM   10  C   UNK A   0     -10.636  11.331  69.223  1.00  0.00    -0.148 C  
HETATM   11  O   UNK A   0      -9.425  11.199  69.095  1.00  0.00    -0.117 OA 
ATOM     12  N   PHE A   1     -11.408  10.391  69.871  1.00  0.00    -0.281 N  
ATOM     13  H   PHE A   1     -12.418  10.526  69.896  1.00  0.00     0.000 HD 
BRANCH  12  14
ATOM     14  CA  PHE A   1     -10.847   9.205  70.527  1.00  0.00    -0.255 C  
ATOM     15  OXT PHE A   1     -12.627   9.574  72.153  1.00  0.00    -0.370 OA 
ATOM     16  C   PHE A   1     -11.614   8.961  71.833  1.00  0.00    -0.371 C  
ATOM     17  O   PHE A   1     -11.046   8.045  72.653  1.00  0.00    -0.344 OA 
BRANCH  14  18
ATOM     18  CB  PHE A   1     -10.780   7.945  69.643  1.00  0.00    -0.218 C  
BRANCH  18  19
ATOM     19  CG  PHE A   1      -9.828   7.970  68.467  1.00  0.00    -0.185 A  
ATOM     20  CD1 PHE A   1      -8.469   7.696  68.659  1.00  0.00    -0.129 A  
ATOM     21  CE1 PHE A   1      -7.581   7.678  67.583  1.00  0.00    -0.109 A  
ATOM     22  CZ  PHE A   1      -8.045   7.916  66.293  1.00  0.00    -0.110 A  
ATOM     23  CE2 PHE A   1      -9.397   8.178  66.082  1.00  0.00    -0.232 A  
ATOM     24  CD2 PHE A   1     -10.285   8.211  67.163  1.00  0.00    -0.366 A  
ENDBRANCH  18  19
ENDBRANCH  14  18
ENDBRANCH  12  14
ENDBRANCH   7  10
TORSDOF 4
ENDMDL
MODEL       99
REMARK 921   NORMALIZED FREE ENERGY PREDICTED BY IDOCK:   -4.71 KCAL/MOL
REMARK 922        TOTAL FREE ENERGY PREDICTED BY IDOCK:   -6.84 KCAL/MOL
REMARK 923 INTER-LIGAND FREE ENERGY PREDICTED BY IDOCK:   -6.99 KCAL/MOL
REMARK 924 INTRA-LIGAND FREE ENERGY PREDICTED BY IDOCK:    0.15 KCAL/MOL
REMARK 927      BINDING AFFINITY PREDICTED BY RF-SCORE:    0.00 PKD
ROOT
HETATM    1  C   UNK A   0     -10.337  12.043  63.669  1.00  0.00    -0.482 C  
HETATM    2  C   UNK A   0     -10.779  12.392  65.095  1.00  0.00    -0.327 C  
HETATM    3  C   UNK A   0     -12.096  13.181  64.997  1.00  0.00    -0.458 C  
HETATM    4  C   UNK A   0     -10.926  11.135  66.008  1.00  0.00    -0.189 C  
HETATM    5  C   UNK A   0      -9.631  10.315  66.211  1.00  0.00    -0.238 C  
HETATM    6  C   UNK A   0      -8.616  10.947  67.177  1.00  0.00    -0.130 C  
HETATM    7  C   UNK A   0      -9.219  11.462  68.499  1.00  0.00    -0.174 C  
HETATM    8  C   UNK A   0     -10.477  12.291  68.222  1.00  0.00    -0.236 C  
HETATM    9  C   UNK A   0     -11.478  11.480  67.402  1.00  0.00    -0.349 C  
ENDROOT
BRANCH   7  10
HETATM   10  C   UNK A   0      -9.498  10.348  69.526  1.00  0.00    -0.139 C  
HETATM   11  O   UNK A   0      -8.681   9.492  69.839  1.00  0.00    -0.172 OA 
ATOM     12  N   PHE A   1     -10.748  10.410  70.104  1.00  0.00    -0.406 N  
ATOM     13  H   PHE A   1     -11.406  11.110  69.761  1.00  0.00     0.000 HD 
BRANCH  12  14
ATOM     14  CA  PHE A   1     -11.177   9.521  71.187  1.00  0.00    -0.376 C  
ATOM     15  OXT PHE A   1     -13.326  10.641  70.915  1.00  0.00    -0.243 OA 
ATOM     16  C   PHE A   1     -12.626   9.864  71.556  1.00  0.00    -0.416 C  
ATOM     17  O   PHE A   1     -13.065   9.284  72.698  1.00  0.00    -0.390 OA 
BRANCH  14  18
ATOM     18  CB  PHE A   1     -10.984   8.017  70.907  1.00  0.00    -0.260 C  
BRANCH  18  19
ATOM     19  CG  PHE A   1     -10.812   7.104  72.101  1.00  0.00    -0.255 A  
ATOM     20  CD1 PHE A   1     -11.372   5.821  72.089  1.00  0.00    -0.317 A  
ATOM     21  CE1 PHE A   1     -11.194   4.950  73.165  1.00  0.00    -0.403 A  
ATOM     22  CZ  PHE A   1     -10.436   5.345  74.263  1.00  0.00    -0.294 A  
ATOM     23  CE2 PHE A   1      -9.861   6.615  74.286  1.00  0.00    -0.353 A  
ATOM     24  CD2 PHE A   1     -10.052   7.493  73.214  1.00  0.00    -0.386 A  
ENDBRANCH  18  19
ENDBRANCH  14  18
ENDBRANCH  12  14
ENDBRANCH   7  10
TORSDOF 4
ENDMDL
MODEL      100
REMARK 921   NORMALIZED FREE ENERGY PREDICTED BY IDOCK:   -4.71 KCAL/MOL
REMARK 922        TOTAL FREE ENERGY PREDICTED BY IDOCK:   -6.84 KCAL/MOL
REMARK 923 INTER-LIGAND FREE ENERGY PREDICTED BY IDOCK:   -6.90 KCAL/MOL
REMARK 924 INTRA-LIGAND FREE ENERGY PREDICTED BY IDOCK:    0.06 KCAL/MOL
REMARK 927      BINDING AFFINITY PREDICTED BY RF-SCORE:    0.00 PKD
ROOT
HETATM    1  C   UNK A   0     -11.210  15.939  64.788  1.00  0.00    -0.364 C  
HETATM    2  C   UNK A   0     -10.686  15.493  66.158  1.00  0.00    -0.315 C  
HETATM    3  C   UNK A   0     -10.413  16.759  66.989  1.00  0.00    -0.285 C  
HETATM    4  C   UNK A   0     -11.659  14.519  66.892  1.00  0.00    -0.399 C  
HETATM    5  C   UNK A   0     -11.941  13.191  66.152  1.00  0.00    -0.478 C  
HETATM    6  C   UNK A   0     -10.800  12.163  66.219  1.00  0.00    -0.317 C  
HETATM    7  C   UNK A   0     -10.201  11.957  67.625  1.00  0.00    -0.215 C  
HETATM    8  C   UNK A   0      -9.917  13.310  68.285  1.00  0.00    -0.236 C  
HETATM    9  C   UNK A   0     -11.182  14.165  68.310  1.00  0.00    -0.295 C  
ENDROOT
BRANCH   7  10
HETATM   10  C   UNK A   0     -11.059  11.059  68.536  1.00  0.00    -0.243 C  
HETATM   11  O   UNK A   0     -11.949  10.325  68.124  1.00  0.00    -0.121 OA 
ATOM     12  N   PHE A   1     -10.720  11.117  69.870  1.00  0.00    -0.454 N  
ATOM     13  H   PHE A   1     -10.011  11.790  70.162  1.00  0.00     0.000 HD 
BRANCH  12  14
ATOM     14  CA  PHE A   1     -11.328  10.260  70.892  1.00  0.00    -0.295 C  
ATOM     15  OXT PHE A   1     -13.187  11.832  70.745  1.00  0.00     0.081 OA 
ATOM     16  C   PHE A   1     -12.669  10.877  71.312  1.00  0.00    -0.437 C  
ATOM     17  O   PHE A   1     -13.220  10.318  72.416  1.00  0.00    -0.323 OA 
BRANCH  14  18
ATOM     18  CB  PHE A   1     -11.464   8.776  70.497  1.00  0.00    -0.222 C  
BRANCH  18  19
ATOM     19  CG  PHE A   1     -11.234   7.745  71.580  1.00  0.00    -0.286 A  
ATOM     20  CD1 PHE A   1     -11.696   6.434  71.411  1.00  0.00    -0.364 A  
ATOM     21  CE1 PHE A   1     -11.462   5.459  72.381  1.00  0.00    -0.212 A  
ATOM     22  CZ  PHE A   1     -10.744   5.778  73.529  1.00  0.00    -0.300 A  
ATOM     23  CE2 PHE A   1     -10.266   7.074  73.709  1.00  0.00    -0.401 A  
ATOM     24  CD2 PHE A   1     -10.514   8.056  72.743  1.00  0.00    -0.415 A  
ENDBRANCH  18  19
ENDBRANCH  14  18
ENDBRANCH  12  14
ENDBRANCH   7  10
TORSDOF 4
ENDMDL
MODEL      101
REMARK 921   NORMALIZED FREE ENERGY PREDICTED BY IDOCK:   -4.71 KCAL/MOL
REMARK 922        TOTAL FREE ENERGY PREDICTED BY IDOCK:   -6.84 KCAL/MOL
REMARK 923 INTER-LIGAND FREE ENERGY PREDICTED BY IDOCK:   -6.33 KCAL/MOL
REMARK 924 INTRA-LIGAND FREE ENERGY PREDICTED BY IDOCK:   -0.51 KCAL/MOL
REMARK 927      BINDING AFFINITY PREDICTED BY RF-SCORE:    0.00 PKD
ROOT
HETATM    1  C   UNK A   0     -10.004  10.117  65.003  1.00  0.00    -0.375 C  
HETATM    2  C   UNK A   0     -10.467  10.478  66.420  1.00  0.00    -0.258 C  
HETATM    3  C   UNK A   0     -10.611   9.167  67.213  1.00  0.00    -0.303 C  
HETATM    4  C   UNK A   0      -9.508  11.481  67.134  1.00  0.00    -0.186 C  
HETATM    5  C   UNK A   0      -9.352  12.851  66.434  1.00  0.00    -0.192 C  
HETATM    6  C   UNK A   0     -10.545  13.803  66.613  1.00  0.00    -0.274 C  
HETATM    7  C   UNK A   0     -11.066  13.919  68.060  1.00  0.00    -0.279 C  
HETATM    8  C   UNK A   0     -11.228  12.527  68.679  1.00  0.00    -0.319 C  
HETATM    9  C   UNK A   0      -9.916  11.751  68.592  1.00  0.00    -0.181 C  
ENDROOT
BRANCH   7  10
HETATM   10  C   UNK A   0     -10.206  14.832  68.954  1.00  0.00    -0.237 C  
HETATM   11  O   UNK A   0     -10.546  15.208  70.069  1.00  0.00    -0.256 OA 
ATOM     12  N   PHE A   1      -8.986  15.171  68.409  1.00  0.00    -0.177 N  
ATOM     13  H   PHE A   1      -8.783  14.877  67.454  1.00  0.00     0.000 HD 
BRANCH  12  14
ATOM     14  CA  PHE A   1      -7.967  15.934  69.135  1.00  0.00    -0.233 C  
ATOM     15  OXT PHE A   1      -6.850  13.775  69.331  1.00  0.00    -0.107 OA 
ATOM     16  C   PHE A   1      -6.897  14.960  69.645  1.00  0.00    -0.181 C  
ATOM     17  O   PHE A   1      -6.027  15.497  70.533  1.00  0.00    -0.110 OA 
BRANCH  14  18
ATOM     18  CB  PHE A   1      -7.358  17.114  68.352  1.00  0.00    -0.220 C  
BRANCH  18  19
ATOM     19  CG  PHE A   1      -8.304  18.196  67.879  1.00  0.00    -0.254 A  
ATOM     20  CD1 PHE A   1      -8.068  18.853  66.665  1.00  0.00    -0.290 A  
ATOM     21  CE1 PHE A   1      -8.948  19.828  66.193  1.00  0.00    -0.387 A  
ATOM     22  CZ  PHE A   1     -10.089  20.147  66.922  1.00  0.00    -0.592 A  
ATOM     23  CE2 PHE A   1     -10.346  19.495  68.127  1.00  0.00    -0.550 A  
ATOM     24  CD2 PHE A   1      -9.456  18.528  68.607  1.00  0.00    -0.373 A  
ENDBRANCH  18  19
ENDBRANCH  14  18
ENDBRANCH  12  14
ENDBRANCH   7  10
TORSDOF 4
ENDMDL
MODEL      102
REMARK 921   NORMALIZED FREE ENERGY PREDICTED BY IDOCK:   -4.70 KCAL/MOL
REMARK 922        TOTAL FREE ENERGY PREDICTED BY IDOCK:   -6.83 KCAL/MOL
REMARK 923 INTER-LIGAND FREE ENERGY PREDICTED BY IDOCK:   -6.36 KCAL/MOL
REMARK 924 INTRA-LIGAND FREE ENERGY PREDICTED BY IDOCK:   -0.46 KCAL/MOL
REMARK 927      BINDING AFFINITY PREDICTED BY RF-SCORE:    0.00 PKD
ROOT
HETATM    1  C   UNK A   0      -9.998  15.223  65.650  1.00  0.00    -0.397 C  
HETATM    2  C   UNK A   0     -10.646  13.834  65.705  1.00  0.00    -0.302 C  
HETATM    3  C   UNK A   0     -10.750  13.310  64.262  1.00  0.00    -0.408 C  
HETATM    4  C   UNK A   0      -9.872  12.840  66.625  1.00  0.00    -0.250 C  
HETATM    5  C   UNK A   0      -9.772  13.261  68.110  1.00  0.00    -0.227 C  
HETATM    6  C   UNK A   0     -11.063  13.068  68.920  1.00  0.00    -0.307 C  
HETATM    7  C   UNK A   0     -11.748  11.701  68.724  1.00  0.00    -0.392 C  
HETATM    8  C   UNK A   0     -11.843  11.363  67.234  1.00  0.00     0.032 C  
HETATM    9  C   UNK A   0     -10.461  11.420  66.587  1.00  0.00    -0.285 C  
ENDROOT
BRANCH   7  10
HETATM   10  C   UNK A   0     -11.083  10.559  69.516  1.00  0.00    -0.268 C  
HETATM   11  O   UNK A   0      -9.905  10.558  69.849  1.00  0.00    -0.107 OA 
ATOM     12  N   PHE A   1     -11.941   9.536  69.862  1.00  0.00    -0.428 N  
ATOM     13  H   PHE A   1     -12.897   9.563  69.507  1.00  0.00     0.000 HD 
BRANCH  12  14
ATOM     14  CA  PHE A   1     -11.545   8.410  70.713  1.00  0.00    -0.232 C  
ATOM     15  OXT PHE A   1     -12.889   9.543  72.403  1.00  0.00    -0.363 OA 
ATOM     16  C   PHE A   1     -12.106   8.643  72.122  1.00  0.00    -0.381 C  
ATOM     17  O   PHE A   1     -11.616   7.803  73.066  1.00  0.00    -0.330 OA 
BRANCH  14  18
ATOM     18  CB  PHE A   1     -11.910   7.018  70.160  1.00  0.00    -0.190 C  
BRANCH  18  19
ATOM     19  CG  PHE A   1     -10.806   5.986  70.091  1.00  0.00    -0.409 A  
ATOM     20  CD1 PHE A   1     -10.408   5.306  71.248  1.00  0.00    -0.292 A  
ATOM     21  CE1 PHE A   1      -9.418   4.324  71.199  1.00  0.00    -0.233 A  
ATOM     22  CZ  PHE A   1      -8.822   3.996  69.985  1.00  0.00    -0.134 A  
ATOM     23  CE2 PHE A   1      -9.214   4.655  68.821  1.00  0.00    -0.179 A  
ATOM     24  CD2 PHE A   1     -10.197   5.649  68.873  1.00  0.00    -0.279 A  
ENDBRANCH  18  19
ENDBRANCH  14  18
ENDBRANCH  12  14
ENDBRANCH   7  10
TORSDOF 4
ENDMDL
MODEL      103
REMARK 921   NORMALIZED FREE ENERGY PREDICTED BY IDOCK:   -4.69 KCAL/MOL
REMARK 922        TOTAL FREE ENERGY PREDICTED BY IDOCK:   -6.82 KCAL/MOL
REMARK 923 INTER-LIGAND FREE ENERGY PREDICTED BY IDOCK:   -6.31 KCAL/MOL
REMARK 924 INTRA-LIGAND FREE ENERGY PREDICTED BY IDOCK:   -0.50 KCAL/MOL
REMARK 927      BINDING AFFINITY PREDICTED BY RF-SCORE:    0.00 PKD
ROOT
HETATM    1  C   UNK A   0     -10.306  17.929  68.574  1.00  0.00    -0.365 C  
HETATM    2  C   UNK A   0     -10.647  17.177  67.282  1.00  0.00    -0.270 C  
HETATM    3  C   UNK A   0     -10.231  18.069  66.099  1.00  0.00    -0.364 C  
HETATM    4  C   UNK A   0      -9.979  15.769  67.206  1.00  0.00    -0.238 C  
HETATM    5  C   UNK A   0     -10.389  14.786  68.327  1.00  0.00    -0.238 C  
HETATM    6  C   UNK A   0     -11.789  14.174  68.163  1.00  0.00    -0.387 C  
HETATM    7  C   UNK A   0     -12.099  13.643  66.749  1.00  0.00    -0.445 C  
HETATM    8  C   UNK A   0     -11.699  14.678  65.693  1.00  0.00    -0.304 C  
HETATM    9  C   UNK A   0     -10.232  15.068  65.861  1.00  0.00    -0.335 C  
ENDROOT
BRANCH   7  10
HETATM   10  C   UNK A   0     -11.467  12.269  66.454  1.00  0.00    -0.378 C  
HETATM   11  O   UNK A   0     -11.346  11.804  65.328  1.00  0.00    -0.298 OA 
ATOM     12  N   PHE A   1     -11.007  11.607  67.572  1.00  0.00    -0.242 N  
ATOM     13  H   PHE A   1     -11.188  12.017  68.488  1.00  0.00     0.000 HD 
BRANCH  12  14
ATOM     14  CA  PHE A   1     -10.269  10.342  67.508  1.00  0.00    -0.210 C  
ATOM     15  OXT PHE A   1      -8.302  11.782  67.443  1.00  0.00    -0.145 OA 
ATOM     16  C   PHE A   1      -8.775  10.654  67.353  1.00  0.00    -0.125 C  
ATOM     17  O   PHE A   1      -8.008   9.582  67.043  1.00  0.00    -0.107 OA 
BRANCH  14  18
ATOM     18  CB  PHE A   1     -10.546   9.369  68.672  1.00  0.00    -0.230 C  
BRANCH  18  19
ATOM     19  CG  PHE A   1     -10.528   7.889  68.360  1.00  0.00    -0.207 A  
ATOM     20  CD1 PHE A   1     -10.688   7.447  67.042  1.00  0.00    -0.389 A  
ATOM     21  CE1 PHE A   1     -10.637   6.088  66.728  1.00  0.00    -0.359 A  
ATOM     22  CZ  PHE A   1     -10.406   5.151  67.730  1.00  0.00    -0.157 A  
ATOM     23  CE2 PHE A   1     -10.233   5.574  69.047  1.00  0.00    -0.298 A  
ATOM     24  CD2 PHE A   1     -10.298   6.935  69.363  1.00  0.00    -0.220 A  
ENDBRANCH  18  19
ENDBRANCH  14  18
ENDBRANCH  12  14
ENDBRANCH   7  10
TORSDOF 4
ENDMDL
MODEL      104
REMARK 921   NORMALIZED FREE ENERGY PREDICTED BY IDOCK:   -4.68 KCAL/MOL
REMARK 922        TOTAL FREE ENERGY PREDICTED BY IDOCK:   -6.80 KCAL/MOL
REMARK 923 INTER-LIGAND FREE ENERGY PREDICTED BY IDOCK:   -6.73 KCAL/MOL
REMARK 924 INTRA-LIGAND FREE ENERGY PREDICTED BY IDOCK:   -0.08 KCAL/MOL
REMARK 927      BINDING AFFINITY PREDICTED BY RF-SCORE:    0.00 PKD
ROOT
HETATM    1  C   UNK A   0     -11.033   6.251  68.487  1.00  0.00    -0.421 C  
HETATM    2  C   UNK A   0      -9.831   7.089  68.036  1.00  0.00    -0.156 C  
HETATM    3  C   UNK A   0      -9.062   6.274  66.981  1.00  0.00    -0.125 C  
HETATM    4  C   UNK A   0     -10.241   8.494  67.495  1.00  0.00    -0.307 C  
HETATM    5  C   UNK A   0     -10.967   9.404  68.512  1.00  0.00    -0.076 C  
HETATM    6  C   UNK A   0     -10.054  10.037  69.574  1.00  0.00    -0.248 C  
HETATM    7  C   UNK A   0      -8.758  10.662  69.019  1.00  0.00    -0.152 C  
HETATM    8  C   UNK A   0      -8.075   9.696  68.047  1.00  0.00    -0.105 C  
HETATM    9  C   UNK A   0      -9.044   9.284  66.940  1.00  0.00    -0.158 C  
ENDROOT
BRANCH   7  10
HETATM   10  C   UNK A   0      -8.967  12.047  68.379  1.00  0.00    -0.153 C  
HETATM   11  O   UNK A   0      -8.292  12.477  67.452  1.00  0.00    -0.164 OA 
ATOM     12  N   PHE A   1     -10.016  12.765  68.913  1.00  0.00    -0.420 N  
ATOM     13  H   PHE A   1     -10.505  12.381  69.721  1.00  0.00     0.000 HD 
BRANCH  12  14
ATOM     14  CA  PHE A   1     -10.463  14.054  68.376  1.00  0.00    -0.253 C  
ATOM     15  OXT PHE A   1     -12.148  12.710  67.236  1.00  0.00    -0.448 OA 
ATOM     16  C   PHE A   1     -11.611  13.801  67.391  1.00  0.00    -0.362 C  
ATOM     17  O   PHE A   1     -11.956  14.878  66.644  1.00  0.00    -0.247 OA 
BRANCH  14  18
ATOM     18  CB  PHE A   1     -10.825  15.110  69.439  1.00  0.00    -0.265 C  
BRANCH  18  19
ATOM     19  CG  PHE A   1     -11.698  14.665  70.592  1.00  0.00    -0.339 A  
ATOM     20  CD1 PHE A   1     -12.360  13.434  70.536  1.00  0.00    -0.401 A  
ATOM     21  CE1 PHE A   1     -13.141  12.989  71.604  1.00  0.00    -0.440 A  
ATOM     22  CZ  PHE A   1     -13.254  13.764  72.754  1.00  0.00    -0.492 A  
ATOM     23  CE2 PHE A   1     -12.592  14.988  72.831  1.00  0.00    -0.510 A  
ATOM     24  CD2 PHE A   1     -11.821  15.440  71.755  1.00  0.00    -0.483 A  
ENDBRANCH  18  19
ENDBRANCH  14  18
ENDBRANCH  12  14
ENDBRANCH   7  10
TORSDOF 4
ENDMDL
MODEL      105
REMARK 921   NORMALIZED FREE ENERGY PREDICTED BY IDOCK:   -4.66 KCAL/MOL
REMARK 922        TOTAL FREE ENERGY PREDICTED BY IDOCK:   -6.77 KCAL/MOL
REMARK 923 INTER-LIGAND FREE ENERGY PREDICTED BY IDOCK:   -6.13 KCAL/MOL
REMARK 924 INTRA-LIGAND FREE ENERGY PREDICTED BY IDOCK:   -0.64 KCAL/MOL
REMARK 927      BINDING AFFINITY PREDICTED BY RF-SCORE:    0.00 PKD
ROOT
HETATM    1  C   UNK A   0     -12.355  13.316  65.232  1.00  0.00    -0.525 C  
HETATM    2  C   UNK A   0     -11.388  12.183  64.867  1.00  0.00    -0.378 C  
HETATM    3  C   UNK A   0     -10.784  12.509  63.490  1.00  0.00    -0.417 C  
HETATM    4  C   UNK A   0     -10.282  11.960  65.944  1.00  0.00    -0.270 C  
HETATM    5  C   UNK A   0     -10.800  11.568  67.348  1.00  0.00    -0.294 C  
HETATM    6  C   UNK A   0     -11.272  10.110  67.473  1.00  0.00    -0.123 C  
HETATM    7  C   UNK A   0     -10.309   9.067  66.871  1.00  0.00    -0.324 C  
HETATM    8  C   UNK A   0      -9.863   9.502  65.472  1.00  0.00    -0.304 C  
HETATM    9  C   UNK A   0      -9.250  10.900  65.520  1.00  0.00    -0.232 C  
ENDROOT
BRANCH   7  10
HETATM   10  C   UNK A   0      -9.100   8.751  67.772  1.00  0.00    -0.135 C  
HETATM   11  O   UNK A   0      -8.070   8.227  67.368  1.00  0.00    -0.118 OA 
ATOM     12  N   PHE A   1      -9.254   9.144  69.084  1.00  0.00    -0.143 N  
ATOM     13  H   PHE A   1     -10.156   9.521  69.375  1.00  0.00     0.000 HD 
BRANCH  12  14
ATOM     14  CA  PHE A   1      -8.186   9.045  70.083  1.00  0.00    -0.136 C  
ATOM     15  OXT PHE A   1      -7.646  11.310  69.362  1.00  0.00    -0.072 OA 
ATOM     16  C   PHE A   1      -7.342  10.325  70.025  1.00  0.00    -0.149 C  
ATOM     17  O   PHE A   1      -6.184  10.264  70.724  1.00  0.00    -0.181 OA 
BRANCH  14  18
ATOM     18  CB  PHE A   1      -8.662   8.721  71.513  1.00  0.00    -0.274 C  
BRANCH  18  19
ATOM     19  CG  PHE A   1     -10.095   8.266  71.683  1.00  0.00    -0.279 A  
ATOM     20  CD1 PHE A   1     -11.120   9.210  71.811  1.00  0.00    -0.437 A  
ATOM     21  CE1 PHE A   1     -12.452   8.812  71.932  1.00  0.00    -0.434 A  
ATOM     22  CZ  PHE A   1     -12.779   7.460  71.908  1.00  0.00    -0.310 A  
ATOM     23  CE2 PHE A   1     -11.772   6.506  71.769  1.00  0.00    -0.373 A  
ATOM     24  CD2 PHE A   1     -10.436   6.905  71.663  1.00  0.00    -0.224 A  
ENDBRANCH  18  19
ENDBRANCH  14  18
ENDBRANCH  12  14
ENDBRANCH   7  10
TORSDOF 4
ENDMDL
MODEL      106
REMARK 921   NORMALIZED FREE ENERGY PREDICTED BY IDOCK:   -4.65 KCAL/MOL
REMARK 922        TOTAL FREE ENERGY PREDICTED BY IDOCK:   -6.76 KCAL/MOL
REMARK 923 INTER-LIGAND FREE ENERGY PREDICTED BY IDOCK:   -6.50 KCAL/MOL
REMARK 924 INTRA-LIGAND FREE ENERGY PREDICTED BY IDOCK:   -0.27 KCAL/MOL
REMARK 927      BINDING AFFINITY PREDICTED BY RF-SCORE:    0.00 PKD
ROOT
HETATM    1  C   UNK A   0      -6.445   7.375  67.213  1.00  0.00    -0.060 C  
HETATM    2  C   UNK A   0      -7.725   7.847  66.512  1.00  0.00    -0.097 C  
HETATM    3  C   UNK A   0      -8.280   6.662  65.703  1.00  0.00    -0.137 C  
HETATM    4  C   UNK A   0      -8.785   8.414  67.506  1.00  0.00    -0.136 C  
HETATM    5  C   UNK A   0      -8.331   9.649  68.319  1.00  0.00    -0.117 C  
HETATM    6  C   UNK A   0      -8.310  10.966  67.527  1.00  0.00    -0.117 C  
HETATM    7  C   UNK A   0      -9.572  11.230  66.682  1.00  0.00    -0.218 C  
HETATM    8  C   UNK A   0      -9.945   9.980  65.880  1.00  0.00    -0.339 C  
HETATM    9  C   UNK A   0     -10.108   8.781  66.811  1.00  0.00    -0.359 C  
ENDROOT
BRANCH   7  10
HETATM   10  C   UNK A   0     -10.768  11.746  67.504  1.00  0.00    -0.221 C  
HETATM   11  O   UNK A   0     -11.932  11.663  67.136  1.00  0.00    -0.614 OA 
ATOM     12  N   PHE A   1     -10.424  12.286  68.725  1.00  0.00    -0.347 N  
ATOM     13  H   PHE A   1      -9.434  12.382  68.952  1.00  0.00     0.000 HD 
BRANCH  12  14
ATOM     14  CA  PHE A   1     -11.412  12.729  69.714  1.00  0.00    -0.129 C  
ATOM     15  OXT PHE A   1     -11.565  14.711  68.301  1.00  0.00    -0.296 OA 
ATOM     16  C   PHE A   1     -11.869  14.146  69.346  1.00  0.00    -0.330 C  
ATOM     17  O   PHE A   1     -12.597  14.766  70.305  1.00  0.00    -0.341 OA 
BRANCH  14  18
ATOM     18  CB  PHE A   1     -12.597  11.767  69.924  1.00  0.00     0.040 C  
BRANCH  18  19
ATOM     19  CG  PHE A   1     -12.345  10.521  70.745  1.00  0.00    -0.474 A  
ATOM     20  CD1 PHE A   1     -11.059   9.974  70.812  1.00  0.00    -0.407 A  
ATOM     21  CE1 PHE A   1     -10.798   8.847  71.593  1.00  0.00    -0.420 A  
ATOM     22  CZ  PHE A   1     -11.820   8.261  72.333  1.00  0.00    -0.461 A  
ATOM     23  CE2 PHE A   1     -13.104   8.800  72.287  1.00  0.00    -0.458 A  
ATOM     24  CD2 PHE A   1     -13.369   9.921  71.493  1.00  0.00    -0.462 A  
ENDBRANCH  18  19
ENDBRANCH  14  18
ENDBRANCH  12  14
ENDBRANCH   7  10
TORSDOF 4
ENDMDL
MODEL      107
REMARK 921   NORMALIZED FREE ENERGY PREDICTED BY IDOCK:   -4.64 KCAL/MOL
REMARK 922        TOTAL FREE ENERGY PREDICTED BY IDOCK:   -6.76 KCAL/MOL
REMARK 923 INTER-LIGAND FREE ENERGY PREDICTED BY IDOCK:   -6.28 KCAL/MOL
REMARK 924 INTRA-LIGAND FREE ENERGY PREDICTED BY IDOCK:   -0.47 KCAL/MOL
REMARK 927      BINDING AFFINITY PREDICTED BY RF-SCORE:    0.00 PKD
ROOT
HETATM    1  C   UNK A   0      -6.737   6.876  67.871  1.00  0.00    -0.064 C  
HETATM    2  C   UNK A   0      -8.116   7.546  67.919  1.00  0.00    -0.119 C  
HETATM    3  C   UNK A   0      -9.120   6.514  68.460  1.00  0.00    -0.127 C  
HETATM    4  C   UNK A   0      -8.123   8.857  68.766  1.00  0.00    -0.114 C  
HETATM    5  C   UNK A   0      -7.184   9.974  68.255  1.00  0.00    -0.077 C  
HETATM    6  C   UNK A   0      -7.695  10.726  67.016  1.00  0.00    -0.121 C  
HETATM    7  C   UNK A   0      -9.171  11.164  67.091  1.00  0.00    -0.165 C  
HETATM    8  C   UNK A   0     -10.046  10.002  67.571  1.00  0.00    -0.243 C  
HETATM    9  C   UNK A   0      -9.530   9.463  68.903  1.00  0.00    -0.154 C  
ENDROOT
BRANCH   7  10
HETATM   10  C   UNK A   0      -9.397  12.425  67.946  1.00  0.00    -0.195 C  
HETATM   11  O   UNK A   0      -8.491  13.081  68.443  1.00  0.00    -0.164 OA 
ATOM     12  N   PHE A   1     -10.720  12.788  68.080  1.00  0.00    -0.219 N  
ATOM     13  H   PHE A   1     -11.435  12.171  67.693  1.00  0.00     0.000 HD 
BRANCH  12  14
ATOM     14  CA  PHE A   1     -11.152  14.018  68.752  1.00  0.00    -0.264 C  
ATOM     15  OXT PHE A   1     -10.926  15.010  66.536  1.00  0.00    -0.321 OA 
ATOM     16  C   PHE A   1     -11.120  15.167  67.737  1.00  0.00    -0.313 C  
ATOM     17  O   PHE A   1     -11.263  16.399  68.280  1.00  0.00    -0.355 OA 
BRANCH  14  18
ATOM     18  CB  PHE A   1     -12.506  13.918  69.482  1.00  0.00    -0.141 C  
BRANCH  18  19
ATOM     19  CG  PHE A   1     -12.646  14.662  70.792  1.00  0.00    -0.415 A  
ATOM     20  CD1 PHE A   1     -13.886  14.716  71.439  1.00  0.00    -0.473 A  
ATOM     21  CE1 PHE A   1     -14.029  15.365  72.665  1.00  0.00    -0.590 A  
ATOM     22  CZ  PHE A   1     -12.925  15.956  73.273  1.00  0.00    -0.677 A  
ATOM     23  CE2 PHE A   1     -11.681  15.902  72.649  1.00  0.00    -0.527 A  
ATOM     24  CD2 PHE A   1     -11.541  15.263  71.412  1.00  0.00    -0.446 A  
ENDBRANCH  18  19
ENDBRANCH  14  18
ENDBRANCH  12  14
ENDBRANCH   7  10
TORSDOF 4
ENDMDL
MODEL      108
REMARK 921   NORMALIZED FREE ENERGY PREDICTED BY IDOCK:   -4.64 KCAL/MOL
REMARK 922        TOTAL FREE ENERGY PREDICTED BY IDOCK:   -6.75 KCAL/MOL
REMARK 923 INTER-LIGAND FREE ENERGY PREDICTED BY IDOCK:   -6.92 KCAL/MOL
REMARK 924 INTRA-LIGAND FREE ENERGY PREDICTED BY IDOCK:    0.17 KCAL/MOL
REMARK 927      BINDING AFFINITY PREDICTED BY RF-SCORE:    0.00 PKD
ROOT
HETATM    1  C   UNK A   0     -11.930  13.217  63.394  1.00  0.00    -0.552 C  
HETATM    2  C   UNK A   0     -11.397  13.750  64.730  1.00  0.00    -0.367 C  
HETATM    3  C   UNK A   0     -11.662  15.265  64.768  1.00  0.00    -0.276 C  
HETATM    4  C   UNK A   0     -12.017  13.024  65.963  1.00  0.00    -0.498 C  
HETATM    5  C   UNK A   0     -11.746  11.503  66.035  1.00  0.00     0.180 C  
HETATM    6  C   UNK A   0     -10.324  11.125  66.479  1.00  0.00    -0.290 C  
HETATM    7  C   UNK A   0      -9.810  11.891  67.715  1.00  0.00    -0.187 C  
HETATM    8  C   UNK A   0     -10.081  13.390  67.561  1.00  0.00    -0.227 C  
HETATM    9  C   UNK A   0     -11.565  13.637  67.298  1.00  0.00    -0.387 C  
ENDROOT
BRANCH   7  10
HETATM   10  C   UNK A   0     -10.365  11.355  69.048  1.00  0.00    -0.142 C  
HETATM   11  O   UNK A   0      -9.812  10.491  69.717  1.00  0.00    -0.160 OA 
ATOM     12  N   PHE A   1     -11.535  11.957  69.457  1.00  0.00    -0.361 N  
ATOM     13  H   PHE A   1     -11.981  12.628  68.830  1.00  0.00     0.000 HD 
BRANCH  12  14
ATOM     14  CA  PHE A   1     -12.172  11.682  70.748  1.00  0.00    -0.344 C  
ATOM     15  OXT PHE A   1     -13.035  13.951  70.522  1.00  0.00    -0.240 OA 
ATOM     16  C   PHE A   1     -12.894  12.951  71.218  1.00  0.00    -0.270 C  
ATOM     17  O   PHE A   1     -13.320  12.911  72.503  1.00  0.00    -0.499 OA 
BRANCH  14  18
ATOM     18  CB  PHE A   1     -13.090  10.444  70.769  1.00  0.00    -0.362 C  
BRANCH  18  19
ATOM     19  CG  PHE A   1     -12.529   9.172  71.367  1.00  0.00    -0.396 A  
ATOM     20  CD1 PHE A   1     -11.314   9.200  72.062  1.00  0.00    -0.333 A  
ATOM     21  CE1 PHE A   1     -10.798   8.046  72.653  1.00  0.00    -0.436 A  
ATOM     22  CZ  PHE A   1     -11.502   6.848  72.572  1.00  0.00    -0.268 A  
ATOM     23  CE2 PHE A   1     -12.719   6.805  71.894  1.00  0.00    -0.298 A  
ATOM     24  CD2 PHE A   1     -13.229   7.959  71.289  1.00  0.00    -0.211 A  
ENDBRANCH  18  19
ENDBRANCH  14  18
ENDBRANCH  12  14
ENDBRANCH   7  10
TORSDOF 4
ENDMDL
MODEL      109
REMARK 921   NORMALIZED FREE ENERGY PREDICTED BY IDOCK:   -4.63 KCAL/MOL
REMARK 922        TOTAL FREE ENERGY PREDICTED BY IDOCK:   -6.74 KCAL/MOL
REMARK 923 INTER-LIGAND FREE ENERGY PREDICTED BY IDOCK:   -5.79 KCAL/MOL
REMARK 924 INTRA-LIGAND FREE ENERGY PREDICTED BY IDOCK:   -0.96 KCAL/MOL
REMARK 927      BINDING AFFINITY PREDICTED BY RF-SCORE:    0.00 PKD
ROOT
HETATM    1  C   UNK A   0      -9.892   9.981  65.208  1.00  0.00    -0.388 C  
HETATM    2  C   UNK A   0     -10.100  11.497  65.095  1.00  0.00    -0.313 C  
HETATM    3  C   UNK A   0     -11.222  11.739  64.071  1.00  0.00    -0.461 C  
HETATM    4  C   UNK A   0     -10.417  12.169  66.467  1.00  0.00    -0.254 C  
HETATM    5  C   UNK A   0      -9.312  12.025  67.540  1.00  0.00    -0.179 C  
HETATM    6  C   UNK A   0      -8.092  12.935  67.330  1.00  0.00    -0.181 C  
HETATM    7  C   UNK A   0      -8.432  14.404  67.006  1.00  0.00    -0.206 C  
HETATM    8  C   UNK A   0      -9.506  14.472  65.915  1.00  0.00    -0.219 C  
HETATM    9  C   UNK A   0     -10.735  13.667  66.331  1.00  0.00    -0.281 C  
ENDROOT
BRANCH   7  10
HETATM   10  C   UNK A   0      -8.834  15.231  68.241  1.00  0.00    -0.171 C  
HETATM   11  O   UNK A   0      -8.430  15.003  69.374  1.00  0.00    -0.191 OA 
ATOM     12  N   PHE A   1      -9.670  16.292  67.964  1.00  0.00    -0.228 N  
ATOM     13  H   PHE A   1     -10.020  16.398  67.012  1.00  0.00     0.000 HD 
BRANCH  12  14
ATOM     14  CA  PHE A   1     -10.080  17.275  68.971  1.00  0.00    -0.302 C  
ATOM     15  OXT PHE A   1      -9.491  18.905  67.255  1.00  0.00    -0.295 OA 
ATOM     16  C   PHE A   1      -9.824  18.681  68.414  1.00  0.00    -0.384 C  
ATOM     17  O   PHE A   1      -9.933  19.674  69.329  1.00  0.00    -0.436 OA 
BRANCH  14  18
ATOM     18  CB  PHE A   1     -11.520  17.106  69.494  1.00  0.00     1.033 C  
BRANCH  18  19
ATOM     19  CG  PHE A   1     -11.803  15.912  70.381  1.00  0.00    -0.358 A  
ATOM     20  CD1 PHE A   1     -11.804  16.057  71.773  1.00  0.00    -0.599 A  
ATOM     21  CE1 PHE A   1     -12.098  14.978  72.607  1.00  0.00    -0.435 A  
ATOM     22  CZ  PHE A   1     -12.413  13.739  72.057  1.00  0.00    -0.150 A  
ATOM     23  CE2 PHE A   1     -12.428  13.580  70.673  1.00  0.00    -0.405 A  
ATOM     24  CD2 PHE A   1     -12.119  14.658  69.837  1.00  0.00    -0.385 A  
ENDBRANCH  18  19
ENDBRANCH  14  18
ENDBRANCH  12  14
ENDBRANCH   7  10
TORSDOF 4
ENDMDL
MODEL      110
REMARK 921   NORMALIZED FREE ENERGY PREDICTED BY IDOCK:   -4.63 KCAL/MOL
REMARK 922        TOTAL FREE ENERGY PREDICTED BY IDOCK:   -6.74 KCAL/MOL
REMARK 923 INTER-LIGAND FREE ENERGY PREDICTED BY IDOCK:   -6.51 KCAL/MOL
REMARK 924 INTRA-LIGAND FREE ENERGY PREDICTED BY IDOCK:   -0.24 KCAL/MOL
REMARK 927      BINDING AFFINITY PREDICTED BY RF-SCORE:    0.00 PKD
ROOT
HETATM    1  C   UNK A   0     -10.261  16.578  66.956  1.00  0.00    -0.288 C  
HETATM    2  C   UNK A   0     -10.885  15.417  66.173  1.00  0.00    -0.313 C  
HETATM    3  C   UNK A   0     -11.151  15.910  64.740  1.00  0.00    -0.397 C  
HETATM    4  C   UNK A   0     -10.000  14.132  66.186  1.00  0.00    -0.328 C  
HETATM    5  C   UNK A   0      -9.732  13.533  67.587  1.00  0.00    -0.229 C  
HETATM    6  C   UNK A   0     -10.919  12.770  68.196  1.00  0.00    -0.273 C  
HETATM    7  C   UNK A   0     -11.609  11.780  67.236  1.00  0.00    -0.344 C  
HETATM    8  C   UNK A   0     -11.873  12.448  65.883  1.00  0.00    -0.467 C  
HETATM    9  C   UNK A   0     -10.576  13.010  65.306  1.00  0.00    -0.320 C  
ENDROOT
BRANCH   7  10
HETATM   10  C   UNK A   0     -10.846  10.452  67.066  1.00  0.00    -0.203 C  
HETATM   11  O   UNK A   0     -10.157  10.184  66.090  1.00  0.00    -0.238 OA 
ATOM     12  N   PHE A   1     -10.970   9.588  68.133  1.00  0.00    -0.479 N  
ATOM     13  H   PHE A   1     -11.604   9.841  68.891  1.00  0.00     0.000 HD 
BRANCH  12  14
ATOM     14  CA  PHE A   1     -10.236   8.323  68.231  1.00  0.00    -0.208 C  
ATOM     15  OXT PHE A   1      -8.609   9.653  69.468  1.00  0.00    -0.143 OA 
ATOM     16  C   PHE A   1      -8.900   8.586  68.938  1.00  0.00    -0.139 C  
ATOM     17  O   PHE A   1      -8.023   7.556  68.881  1.00  0.00    -0.121 OA 
BRANCH  14  18
ATOM     18  CB  PHE A   1     -11.022   7.164  68.876  1.00  0.00    -0.109 C  
BRANCH  18  19
ATOM     19  CG  PHE A   1     -11.008   7.070  70.386  1.00  0.00    -0.301 A  
ATOM     20  CD1 PHE A   1     -10.361   6.000  71.016  1.00  0.00    -0.270 A  
ATOM     21  CE1 PHE A   1     -10.305   5.914  72.407  1.00  0.00    -0.230 A  
ATOM     22  CZ  PHE A   1     -10.882   6.910  73.190  1.00  0.00    -0.328 A  
ATOM     23  CE2 PHE A   1     -11.520   7.988  72.579  1.00  0.00    -0.471 A  
ATOM     24  CD2 PHE A   1     -11.588   8.066  71.185  1.00  0.00    -0.307 A  
ENDBRANCH  18  19
ENDBRANCH  14  18
ENDBRANCH  12  14
ENDBRANCH   7  10
TORSDOF 4
ENDMDL
MODEL      111
REMARK 921   NORMALIZED FREE ENERGY PREDICTED BY IDOCK:   -4.62 KCAL/MOL
REMARK 922        TOTAL FREE ENERGY PREDICTED BY IDOCK:   -6.73 KCAL/MOL
REMARK 923 INTER-LIGAND FREE ENERGY PREDICTED BY IDOCK:   -7.59 KCAL/MOL
REMARK 924 INTRA-LIGAND FREE ENERGY PREDICTED BY IDOCK:    0.86 KCAL/MOL
REMARK 927      BINDING AFFINITY PREDICTED BY RF-SCORE:    0.00 PKD
ROOT
HETATM    1  C   UNK A   0      -9.885  10.989  68.945  1.00  0.00    -0.189 C  
HETATM    2  C   UNK A   0     -10.928  12.042  68.549  1.00  0.00    -0.280 C  
HETATM    3  C   UNK A   0     -11.968  12.118  69.680  1.00  0.00    -0.351 C  
HETATM    4  C   UNK A   0     -10.298  13.437  68.249  1.00  0.00    -0.251 C  
HETATM    5  C   UNK A   0      -9.283  13.463  67.082  1.00  0.00    -0.240 C  
HETATM    6  C   UNK A   0      -9.914  13.403  65.682  1.00  0.00    -0.249 C  
HETATM    7  C   UNK A   0     -11.104  14.360  65.470  1.00  0.00    -0.326 C  
HETATM    8  C   UNK A   0     -12.083  14.258  66.643  1.00  0.00    -0.448 C  
HETATM    9  C   UNK A   0     -11.358  14.514  67.963  1.00  0.00    -0.326 C  
ENDROOT
BRANCH   7  10
HETATM   10  C   UNK A   0     -10.684  15.819  65.215  1.00  0.00    -0.428 C  
HETATM   11  O   UNK A   0     -11.183  16.530  64.351  1.00  0.00    -0.919 OA 
ATOM     12  N   PHE A   1      -9.712  16.286  66.073  1.00  0.00    -0.325 N  
ATOM     13  H   PHE A   1      -9.292  15.632  66.733  1.00  0.00     0.000 HD 
BRANCH  12  14
ATOM     14  CA  PHE A   1      -9.250  17.678  66.082  1.00  0.00    -0.119 C  
ATOM     15  OXT PHE A   1     -10.618  17.854  68.093  1.00  0.00    -0.387 OA 
ATOM     16  C   PHE A   1      -9.937  18.413  67.240  1.00  0.00    -0.335 C  
ATOM     17  O   PHE A   1      -9.786  19.758  67.218  1.00  0.00    -0.329 OA 
BRANCH  14  18
ATOM     18  CB  PHE A   1      -7.719  17.854  66.103  1.00  0.00    -0.272 C  
BRANCH  18  19
ATOM     19  CG  PHE A   1      -7.138  18.769  67.159  1.00  0.00    -0.212 A  
ATOM     20  CD1 PHE A   1      -6.883  18.281  68.446  1.00  0.00    -0.239 A  
ATOM     21  CE1 PHE A   1      -6.314  19.098  69.423  1.00  0.00    -0.330 A  
ATOM     22  CZ  PHE A   1      -5.973  20.413  69.120  1.00  0.00    -0.381 A  
ATOM     23  CE2 PHE A   1      -6.210  20.911  67.840  1.00  0.00    -0.393 A  
ATOM     24  CD2 PHE A   1      -6.794  20.096  66.865  1.00  0.00    -0.262 A  
ENDBRANCH  18  19
ENDBRANCH  14  18
ENDBRANCH  12  14
ENDBRANCH   7  10
TORSDOF 4
ENDMDL
MODEL      112
REMARK 921   NORMALIZED FREE ENERGY PREDICTED BY IDOCK:   -4.61 KCAL/MOL
REMARK 922        TOTAL FREE ENERGY PREDICTED BY IDOCK:   -6.71 KCAL/MOL
REMARK 923 INTER-LIGAND FREE ENERGY PREDICTED BY IDOCK:   -6.19 KCAL/MOL
REMARK 924 INTRA-LIGAND FREE ENERGY PREDICTED BY IDOCK:   -0.52 KCAL/MOL
REMARK 927      BINDING AFFINITY PREDICTED BY RF-SCORE:    0.00 PKD
ROOT
HETATM    1  C   UNK A   0      -9.942   8.607  68.752  1.00  0.00    -0.194 C  
HETATM    2  C   UNK A   0     -10.717   9.927  68.851  1.00  0.00    -0.244 C  
HETATM    3  C   UNK A   0     -11.130  10.118  70.321  1.00  0.00    -0.384 C  
HETATM    4  C   UNK A   0      -9.906  11.147  68.317  1.00  0.00    -0.195 C  
HETATM    5  C   UNK A   0      -9.501  11.066  66.826  1.00  0.00    -0.203 C  
HETATM    6  C   UNK A   0     -10.643  11.341  65.835  1.00  0.00    -0.309 C  
HETATM    7  C   UNK A   0     -11.496  12.583  66.163  1.00  0.00    -0.426 C  
HETATM    8  C   UNK A   0     -11.888  12.582  67.644  1.00  0.00    -0.381 C  
HETATM    9  C   UNK A   0     -10.643  12.482  68.523  1.00  0.00    -0.262 C  
ENDROOT
BRANCH   7  10
HETATM   10  C   UNK A   0     -10.830  13.912  65.761  1.00  0.00    -0.289 C  
HETATM   11  O   UNK A   0     -10.380  14.136  64.644  1.00  0.00    -0.432 OA 
ATOM     12  N   PHE A   1     -10.812  14.862  66.759  1.00  0.00    -0.314 N  
ATOM     13  H   PHE A   1     -11.149  14.598  67.686  1.00  0.00     0.000 HD 
BRANCH  12  14
ATOM     14  CA  PHE A   1     -10.333  16.232  66.556  1.00  0.00    -0.307 C  
ATOM     15  OXT PHE A   1     -11.292  16.627  68.763  1.00  0.00    -0.274 OA 
ATOM     16  C   PHE A   1     -10.775  17.087  67.751  1.00  0.00    -0.318 C  
ATOM     17  O   PHE A   1     -10.607  18.420  67.579  1.00  0.00    -0.408 OA 
BRANCH  14  18
ATOM     18  CB  PHE A   1      -8.823  16.357  66.274  1.00  0.00    -0.367 C  
BRANCH  18  19
ATOM     19  CG  PHE A   1      -7.872  15.838  67.330  1.00  0.00    -0.203 A  
ATOM     20  CD1 PHE A   1      -7.841  14.472  67.636  1.00  0.00    -0.194 A  
ATOM     21  CE1 PHE A   1      -6.947  13.968  68.581  1.00  0.00    -0.106 A  
ATOM     22  CZ  PHE A   1      -6.055  14.823  69.222  1.00  0.00    -0.106 A  
ATOM     23  CE2 PHE A   1      -6.065  16.184  68.921  1.00  0.00    -0.125 A  
ATOM     24  CD2 PHE A   1      -6.971  16.691  67.984  1.00  0.00    -0.156 A  
ENDBRANCH  18  19
ENDBRANCH  14  18
ENDBRANCH  12  14
ENDBRANCH   7  10
TORSDOF 4
ENDMDL
MODEL      113
REMARK 921   NORMALIZED FREE ENERGY PREDICTED BY IDOCK:   -4.55 KCAL/MOL
REMARK 922        TOTAL FREE ENERGY PREDICTED BY IDOCK:   -6.64 KCAL/MOL
REMARK 923 INTER-LIGAND FREE ENERGY PREDICTED BY IDOCK:   -6.25 KCAL/MOL
REMARK 924 INTRA-LIGAND FREE ENERGY PREDICTED BY IDOCK:   -0.39 KCAL/MOL
REMARK 927      BINDING AFFINITY PREDICTED BY RF-SCORE:    0.00 PKD
ROOT
HETATM    1  C   UNK A   0     -11.322  15.906  69.430  1.00  0.00    -0.349 C  
HETATM    2  C   UNK A   0     -11.129  15.199  68.083  1.00  0.00    -0.306 C  
HETATM    3  C   UNK A   0     -10.585  16.235  67.084  1.00  0.00    -0.291 C  
HETATM    4  C   UNK A   0     -10.200  13.949  68.182  1.00  0.00    -0.249 C  
HETATM    5  C   UNK A   0     -10.704  12.829  69.122  1.00  0.00    -0.061 C  
HETATM    6  C   UNK A   0     -11.850  11.980  68.551  1.00  0.00    -0.369 C  
HETATM    7  C   UNK A   0     -11.639  11.503  67.099  1.00  0.00    -0.249 C  
HETATM    8  C   UNK A   0     -11.173  12.668  66.220  1.00  0.00    -0.354 C  
HETATM    9  C   UNK A   0      -9.921  13.311  66.811  1.00  0.00    -0.263 C  
ENDROOT
BRANCH   7  10
HETATM   10  C   UNK A   0     -10.689  10.296  66.979  1.00  0.00    -0.216 C  
HETATM   11  O   UNK A   0      -9.772  10.230  66.170  1.00  0.00    -0.189 OA 
ATOM     12  N   PHE A   1     -10.931   9.293  67.893  1.00  0.00    -0.500 N  
ATOM     13  H   PHE A   1     -11.744   9.378  68.503  1.00  0.00     0.000 HD 
BRANCH  12  14
ATOM     14  CA  PHE A   1     -10.076   8.110  68.032  1.00  0.00    -0.197 C  
ATOM     15  OXT PHE A   1      -8.846   9.494  69.618  1.00  0.00    -0.156 OA 
ATOM     16  C   PHE A   1      -8.917   8.452  68.976  1.00  0.00    -0.147 C  
ATOM     17  O   PHE A   1      -7.925   7.530  69.002  1.00  0.00    -0.117 OA 
BRANCH  14  18
ATOM     18  CB  PHE A   1     -10.813   6.822  68.452  1.00  0.00    -0.284 C  
BRANCH  18  19
ATOM     19  CG  PHE A   1     -10.926   6.538  69.933  1.00  0.00    -0.393 A  
ATOM     20  CD1 PHE A   1     -11.679   7.384  70.755  1.00  0.00    -0.305 A  
ATOM     21  CE1 PHE A   1     -11.827   7.119  72.117  1.00  0.00    -0.315 A  
ATOM     22  CZ  PHE A   1     -11.236   5.989  72.674  1.00  0.00    -0.326 A  
ATOM     23  CE2 PHE A   1     -10.492   5.129  71.868  1.00  0.00    -0.272 A  
ATOM     24  CD2 PHE A   1     -10.333   5.403  70.506  1.00  0.00    -0.344 A  
ENDBRANCH  18  19
ENDBRANCH  14  18
ENDBRANCH  12  14
ENDBRANCH   7  10
TORSDOF 4
ENDMDL
MODEL      114
REMARK 921   NORMALIZED FREE ENERGY PREDICTED BY IDOCK:   -4.54 KCAL/MOL
REMARK 922        TOTAL FREE ENERGY PREDICTED BY IDOCK:   -6.62 KCAL/MOL
REMARK 923 INTER-LIGAND FREE ENERGY PREDICTED BY IDOCK:   -6.02 KCAL/MOL
REMARK 924 INTRA-LIGAND FREE ENERGY PREDICTED BY IDOCK:   -0.61 KCAL/MOL
REMARK 927      BINDING AFFINITY PREDICTED BY RF-SCORE:    0.00 PKD
ROOT
HETATM    1  C   UNK A   0     -11.623   4.469  73.240  1.00  0.00    -0.254 C  
HETATM    2  C   UNK A   0     -10.334   5.265  73.003  1.00  0.00    -0.228 C  
HETATM    3  C   UNK A   0      -9.147   4.323  73.271  1.00  0.00    -0.113 C  
HETATM    4  C   UNK A   0     -10.262   5.891  71.576  1.00  0.00    -0.254 C  
HETATM    5  C   UNK A   0     -11.386   6.899  71.243  1.00  0.00    -0.319 C  
HETATM    6  C   UNK A   0     -11.226   8.279  71.899  1.00  0.00    -0.365 C  
HETATM    7  C   UNK A   0      -9.814   8.888  71.782  1.00  0.00    -0.386 C  
HETATM    8  C   UNK A   0      -8.754   7.847  72.157  1.00  0.00    -0.189 C  
HETATM    9  C   UNK A   0      -8.920   6.591  71.305  1.00  0.00    -0.141 C  
ENDROOT
BRANCH   7  10
HETATM   10  C   UNK A   0      -9.523   9.512  70.405  1.00  0.00    -0.262 C  
HETATM   11  O   UNK A   0      -8.426   9.938  70.069  1.00  0.00    -0.193 OA 
ATOM     12  N   PHE A   1     -10.604   9.522  69.549  1.00  0.00    -0.214 N  
ATOM     13  H   PHE A   1     -11.507   9.208  69.904  1.00  0.00     0.000 HD 
BRANCH  12  14
ATOM     14  CA  PHE A   1     -10.519   9.962  68.153  1.00  0.00    -0.215 C  
ATOM     15  OXT PHE A   1     -10.494   7.573  67.664  1.00  0.00    -0.223 OA 
ATOM     16  C   PHE A   1     -10.379   8.724  67.258  1.00  0.00    -0.290 C  
ATOM     17  O   PHE A   1     -10.050   8.997  65.972  1.00  0.00    -0.278 OA 
BRANCH  14  18
ATOM     18  CB  PHE A   1     -11.660  10.891  67.694  1.00  0.00    -0.171 C  
BRANCH  18  19
ATOM     19  CG  PHE A   1     -11.401  12.381  67.729  1.00  0.00    -0.356 A  
ATOM     20  CD1 PHE A   1     -10.540  12.921  68.692  1.00  0.00    -0.256 A  
ATOM     21  CE1 PHE A   1     -10.260  14.288  68.719  1.00  0.00    -0.226 A  
ATOM     22  CZ  PHE A   1     -10.824  15.133  67.768  1.00  0.00    -0.292 A  
ATOM     23  CE2 PHE A   1     -11.674  14.610  66.795  1.00  0.00    -0.355 A  
ATOM     24  CD2 PHE A   1     -11.967  13.243  66.778  1.00  0.00    -0.438 A  
ENDBRANCH  18  19
ENDBRANCH  14  18
ENDBRANCH  12  14
ENDBRANCH   7  10
TORSDOF 4
ENDMDL
MODEL      115
REMARK 921   NORMALIZED FREE ENERGY PREDICTED BY IDOCK:   -4.53 KCAL/MOL
REMARK 922        TOTAL FREE ENERGY PREDICTED BY IDOCK:   -6.62 KCAL/MOL
REMARK 923 INTER-LIGAND FREE ENERGY PREDICTED BY IDOCK:   -6.18 KCAL/MOL
REMARK 924 INTRA-LIGAND FREE ENERGY PREDICTED BY IDOCK:   -0.44 KCAL/MOL
REMARK 927      BINDING AFFINITY PREDICTED BY RF-SCORE:    0.00 PKD
ROOT
HETATM    1  C   UNK A   0      -7.899   9.226  68.387  1.00  0.00    -0.094 C  
HETATM    2  C   UNK A   0      -9.243   9.557  67.726  1.00  0.00    -0.136 C  
HETATM    3  C   UNK A   0     -10.125   8.299  67.805  1.00  0.00    -0.262 C  
HETATM    4  C   UNK A   0      -9.945  10.795  68.366  1.00  0.00    -0.174 C  
HETATM    5  C   UNK A   0      -9.151  12.119  68.277  1.00  0.00    -0.191 C  
HETATM    6  C   UNK A   0      -9.161  12.781  66.890  1.00  0.00    -0.221 C  
HETATM    7  C   UNK A   0     -10.549  12.862  66.224  1.00  0.00    -0.281 C  
HETATM    8  C   UNK A   0     -11.264  11.510  66.320  1.00  0.00    -0.286 C  
HETATM    9  C   UNK A   0     -11.341  11.052  67.774  1.00  0.00    -0.365 C  
ENDROOT
BRANCH   7  10
HETATM   10  C   UNK A   0     -11.430  14.001  66.771  1.00  0.00    -0.363 C  
HETATM   11  O   UNK A   0     -12.508  14.319  66.287  1.00  0.00    -0.445 OA 
ATOM     12  N   PHE A   1     -10.920  14.623  67.890  1.00  0.00    -0.269 N  
ATOM     13  H   PHE A   1      -9.990  14.355  68.213  1.00  0.00     0.000 HD 
BRANCH  12  14
ATOM     14  CA  PHE A   1     -11.647  15.652  68.639  1.00  0.00    -0.382 C  
ATOM     15  OXT PHE A   1     -11.907  13.895  70.310  1.00  0.00    -0.302 OA 
ATOM     16  C   PHE A   1     -12.195  15.024  69.926  1.00  0.00    -0.309 C  
ATOM     17  O   PHE A   1     -13.087  15.796  70.592  1.00  0.00    -0.497 OA 
BRANCH  14  18
ATOM     18  CB  PHE A   1     -10.851  16.944  68.910  1.00  0.00    -0.274 C  
BRANCH  18  19
ATOM     19  CG  PHE A   1      -9.342  16.858  68.839  1.00  0.00    -0.229 A  
ATOM     20  CD1 PHE A   1      -8.679  15.730  69.336  1.00  0.00    -0.230 A  
ATOM     21  CE1 PHE A   1      -7.291  15.615  69.246  1.00  0.00    -0.207 A  
ATOM     22  CZ  PHE A   1      -6.547  16.622  68.639  1.00  0.00    -0.159 A  
ATOM     23  CE2 PHE A   1      -7.192  17.747  68.128  1.00  0.00    -0.225 A  
ATOM     24  CD2 PHE A   1      -8.581  17.868  68.231  1.00  0.00    -0.277 A  
ENDBRANCH  18  19
ENDBRANCH  14  18
ENDBRANCH  12  14
ENDBRANCH   7  10
TORSDOF 4
ENDMDL
MODEL      116
REMARK 921   NORMALIZED FREE ENERGY PREDICTED BY IDOCK:   -4.52 KCAL/MOL
REMARK 922        TOTAL FREE ENERGY PREDICTED BY IDOCK:   -6.60 KCAL/MOL
REMARK 923 INTER-LIGAND FREE ENERGY PREDICTED BY IDOCK:   -5.74 KCAL/MOL
REMARK 924 INTRA-LIGAND FREE ENERGY PREDICTED BY IDOCK:   -0.86 KCAL/MOL
REMARK 927      BINDING AFFINITY PREDICTED BY RF-SCORE:    0.00 PKD
ROOT
HETATM    1  C   UNK A   0     -11.217  16.533  69.303  1.00  0.00    -0.213 C  
HETATM    2  C   UNK A   0     -10.385  15.980  68.140  1.00  0.00    -0.260 C  
HETATM    3  C   UNK A   0      -8.901  16.204  68.478  1.00  0.00    -0.200 C  
HETATM    4  C   UNK A   0     -10.688  14.479  67.839  1.00  0.00    -0.245 C  
HETATM    5  C   UNK A   0     -12.147  14.172  67.430  1.00  0.00    -0.379 C  
HETATM    6  C   UNK A   0     -12.510  14.574  65.992  1.00  0.00    -0.187 C  
HETATM    7  C   UNK A   0     -11.481  14.148  64.925  1.00  0.00    -0.366 C  
HETATM    8  C   UNK A   0     -10.064  14.512  65.379  1.00  0.00    -0.394 C  
HETATM    9  C   UNK A   0      -9.772  13.900  66.748  1.00  0.00    -0.282 C  
ENDROOT
BRANCH   7  10
HETATM   10  C   UNK A   0     -11.580  12.663  64.532  1.00  0.00    -0.345 C  
HETATM   11  O   UNK A   0     -12.598  12.141  64.097  1.00  0.00    -0.468 OA 
ATOM     12  N   PHE A   1     -10.402  11.960  64.673  1.00  0.00    -0.271 N  
ATOM     13  H   PHE A   1      -9.603  12.433  65.096  1.00  0.00     0.000 HD 
BRANCH  12  14
ATOM     14  CA  PHE A   1     -10.243  10.566  64.248  1.00  0.00    -0.244 C  
ATOM     15  OXT PHE A   1      -8.841  11.525  62.498  1.00  0.00    -0.319 OA 
ATOM     16  C   PHE A   1      -9.406  10.540  62.963  1.00  0.00    -0.322 C  
ATOM     17  O   PHE A   1      -9.384   9.342  62.332  1.00  0.00    -0.129 OA 
BRANCH  14  18
ATOM     18  CB  PHE A   1      -9.687   9.617  65.328  1.00  0.00    -0.330 C  
BRANCH  18  19
ATOM     19  CG  PHE A   1      -8.832  10.227  66.417  1.00  0.00    -0.158 A  
ATOM     20  CD1 PHE A   1      -9.200  10.085  67.760  1.00  0.00    -0.143 A  
ATOM     21  CE1 PHE A   1      -8.406  10.608  68.782  1.00  0.00    -0.144 A  
ATOM     22  CZ  PHE A   1      -7.220  11.268  68.473  1.00  0.00    -0.094 A  
ATOM     23  CE2 PHE A   1      -6.833  11.408  67.142  1.00  0.00    -0.124 A  
ATOM     24  CD2 PHE A   1      -7.636  10.896  66.118  1.00  0.00    -0.119 A  
ENDBRANCH  18  19
ENDBRANCH  14  18
ENDBRANCH  12  14
ENDBRANCH   7  10
TORSDOF 4
ENDMDL
MODEL      117
REMARK 921   NORMALIZED FREE ENERGY PREDICTED BY IDOCK:   -4.51 KCAL/MOL
REMARK 922        TOTAL FREE ENERGY PREDICTED BY IDOCK:   -6.59 KCAL/MOL
REMARK 923 INTER-LIGAND FREE ENERGY PREDICTED BY IDOCK:   -6.62 KCAL/MOL
REMARK 924 INTRA-LIGAND FREE ENERGY PREDICTED BY IDOCK:    0.03 KCAL/MOL
REMARK 927      BINDING AFFINITY PREDICTED BY RF-SCORE:    0.00 PKD
ROOT
HETATM    1  C   UNK A   0      -9.630   3.108  70.740  1.00  0.00    -0.219 C  
HETATM    2  C   UNK A   0      -9.932   4.191  71.784  1.00  0.00    -0.246 C  
HETATM    3  C   UNK A   0      -9.183   3.818  73.075  1.00  0.00    -0.121 C  
HETATM    4  C   UNK A   0      -9.561   5.625  71.295  1.00  0.00    -0.198 C  
HETATM    5  C   UNK A   0     -10.314   6.105  70.033  1.00  0.00    -0.267 C  
HETATM    6  C   UNK A   0     -11.773   6.524  70.277  1.00  0.00    -0.430 C  
HETATM    7  C   UNK A   0     -11.983   7.446  71.495  1.00  0.00    -0.337 C  
HETATM    8  C   UNK A   0     -11.238   6.894  72.714  1.00  0.00    -0.277 C  
HETATM    9  C   UNK A   0      -9.760   6.690  72.385  1.00  0.00    -0.162 C  
ENDROOT
BRANCH   7  10
HETATM   10  C   UNK A   0     -11.609   8.916  71.227  1.00  0.00    -0.304 C  
HETATM   11  O   UNK A   0     -10.591   9.447  71.653  1.00  0.00    -0.340 OA 
ATOM     12  N   PHE A   1     -12.504   9.591  70.426  1.00  0.00    -0.475 N  
ATOM     13  H   PHE A   1     -13.363   9.115  70.150  1.00  0.00     0.000 HD 
BRANCH  12  14
ATOM     14  CA  PHE A   1     -12.284  10.961  69.952  1.00  0.00    -0.336 C  
ATOM     15  OXT PHE A   1     -13.039  11.587  72.184  1.00  0.00    -0.466 OA 
ATOM     16  C   PHE A   1     -12.723  11.935  71.051  1.00  0.00    -0.258 C  
ATOM     17  O   PHE A   1     -12.798  13.229  70.656  1.00  0.00    -0.183 OA 
BRANCH  14  18
ATOM     18  CB  PHE A   1     -10.856  11.251  69.447  1.00  0.00    -0.239 C  
BRANCH  18  19
ATOM     19  CG  PHE A   1     -10.505  10.790  68.050  1.00  0.00    -0.225 A  
ATOM     20  CD1 PHE A   1     -10.352   9.425  67.779  1.00  0.00    -0.291 A  
ATOM     21  CE1 PHE A   1     -10.064   8.976  66.490  1.00  0.00    -0.354 A  
ATOM     22  CZ  PHE A   1      -9.944   9.888  65.446  1.00  0.00    -0.349 A  
ATOM     23  CE2 PHE A   1     -10.105  11.250  65.695  1.00  0.00    -0.295 A  
ATOM     24  CD2 PHE A   1     -10.379  11.701  66.990  1.00  0.00    -0.248 A  
ENDBRANCH  18  19
ENDBRANCH  14  18
ENDBRANCH  12  14
ENDBRANCH   7  10
TORSDOF 4
ENDMDL
MODEL      118
REMARK 921   NORMALIZED FREE ENERGY PREDICTED BY IDOCK:   -4.51 KCAL/MOL
REMARK 922        TOTAL FREE ENERGY PREDICTED BY IDOCK:   -6.59 KCAL/MOL
REMARK 923 INTER-LIGAND FREE ENERGY PREDICTED BY IDOCK:   -5.13 KCAL/MOL
REMARK 924 INTRA-LIGAND FREE ENERGY PREDICTED BY IDOCK:   -1.46 KCAL/MOL
REMARK 927      BINDING AFFINITY PREDICTED BY RF-SCORE:    0.00 PKD
ROOT
HETATM    1  C   UNK A   0     -12.640  11.419  70.841  1.00  0.00    -0.453 C  
HETATM    2  C   UNK A   0     -11.733  10.298  70.321  1.00  0.00    -0.388 C  
HETATM    3  C   UNK A   0     -10.588  10.952  69.528  1.00  0.00    -0.217 C  
HETATM    4  C   UNK A   0     -11.194   9.377  71.459  1.00  0.00    -0.457 C  
HETATM    5  C   UNK A   0     -12.278   8.631  72.270  1.00  0.00    -0.447 C  
HETATM    6  C   UNK A   0     -12.909   7.431  71.546  1.00  0.00    -0.416 C  
HETATM    7  C   UNK A   0     -11.899   6.482  70.870  1.00  0.00    -0.391 C  
HETATM    8  C   UNK A   0     -10.877   7.285  70.059  1.00  0.00    -0.271 C  
HETATM    9  C   UNK A   0     -10.196   8.326  70.945  1.00  0.00    -0.224 C  
ENDROOT
BRANCH   7  10
HETATM   10  C   UNK A   0     -11.205   5.520  71.852  1.00  0.00    -0.119 C  
HETATM   11  O   UNK A   0     -11.661   5.222  72.948  1.00  0.00    -0.310 OA 
ATOM     12  N   PHE A   1     -10.028   4.981  71.379  1.00  0.00    -0.185 N  
ATOM     13  H   PHE A   1      -9.668   5.311  70.483  1.00  0.00     0.000 HD 
BRANCH  12  14
ATOM     14  CA  PHE A   1      -9.267   3.956  72.100  1.00  0.00    -0.119 C  
ATOM     15  OXT PHE A   1      -9.525   2.674  70.042  1.00  0.00    -0.132 OA 
ATOM     16  C   PHE A   1      -9.166   2.708  71.213  1.00  0.00    -0.123 C  
ATOM     17  O   PHE A   1      -8.698   1.607  71.848  1.00  0.00    -0.057 OA 
BRANCH  14  18
ATOM     18  CB  PHE A   1      -7.892   4.416  72.623  1.00  0.00    -0.086 C  
BRANCH  18  19
ATOM     19  CG  PHE A   1      -7.760   5.860  73.057  1.00  0.00    -0.103 A  
ATOM     20  CD1 PHE A   1      -6.985   6.750  72.305  1.00  0.00    -0.067 A  
ATOM     21  CE1 PHE A   1      -6.880   8.093  72.667  1.00  0.00    -0.099 A  
ATOM     22  CZ  PHE A   1      -7.566   8.571  73.779  1.00  0.00    -0.090 A  
ATOM     23  CE2 PHE A   1      -8.352   7.701  74.532  1.00  0.00    -0.245 A  
ATOM     24  CD2 PHE A   1      -8.446   6.351  74.178  1.00  0.00    -0.129 A  
ENDBRANCH  18  19
ENDBRANCH  14  18
ENDBRANCH  12  14
ENDBRANCH   7  10
TORSDOF 4
ENDMDL
MODEL      119
REMARK 921   NORMALIZED FREE ENERGY PREDICTED BY IDOCK:   -4.50 KCAL/MOL
REMARK 922        TOTAL FREE ENERGY PREDICTED BY IDOCK:   -6.58 KCAL/MOL
REMARK 923 INTER-LIGAND FREE ENERGY PREDICTED BY IDOCK:   -6.83 KCAL/MOL
REMARK 924 INTRA-LIGAND FREE ENERGY PREDICTED BY IDOCK:    0.25 KCAL/MOL
REMARK 927      BINDING AFFINITY PREDICTED BY RF-SCORE:    0.00 PKD
ROOT
HETATM    1  C   UNK A   0      -6.602  18.493  68.498  1.00  0.00    -0.246 C  
HETATM    2  C   UNK A   0      -7.636  18.057  67.453  1.00  0.00    -0.213 C  
HETATM    3  C   UNK A   0      -7.050  18.358  66.062  1.00  0.00    -0.307 C  
HETATM    4  C   UNK A   0      -8.045  16.558  67.594  1.00  0.00    -0.177 C  
HETATM    5  C   UNK A   0      -8.700  16.179  68.943  1.00  0.00    -0.248 C  
HETATM    6  C   UNK A   0     -10.160  16.633  69.097  1.00  0.00    -0.285 C  
HETATM    7  C   UNK A   0     -11.061  16.333  67.883  1.00  0.00    -0.270 C  
HETATM    8  C   UNK A   0     -10.366  16.762  66.587  1.00  0.00    -0.297 C  
HETATM    9  C   UNK A   0      -8.995  16.098  66.475  1.00  0.00    -0.322 C  
ENDROOT
BRANCH   7  10
HETATM   10  C   UNK A   0     -11.527  14.867  67.809  1.00  0.00    -0.338 C  
HETATM   11  O   UNK A   0     -12.250  14.427  66.924  1.00  0.00    -0.415 OA 
ATOM     12  N   PHE A   1     -11.031  14.064  68.814  1.00  0.00    -0.255 N  
ATOM     13  H   PHE A   1     -10.482  14.498  69.555  1.00  0.00     0.000 HD 
BRANCH  12  14
ATOM     14  CA  PHE A   1     -11.253  12.616  68.868  1.00  0.00    -0.280 C  
ATOM     15  OXT PHE A   1     -12.614  13.152  70.819  1.00  0.00    -0.324 OA 
ATOM     16  C   PHE A   1     -12.093  12.297  70.111  1.00  0.00    -0.287 C  
ATOM     17  O   PHE A   1     -12.169  10.979  70.413  1.00  0.00    -0.315 OA 
BRANCH  14  18
ATOM     18  CB  PHE A   1     -11.848  12.001  67.586  1.00  0.00    -0.294 C  
BRANCH  18  19
ATOM     19  CG  PHE A   1     -10.954  11.093  66.770  1.00  0.00    -0.309 A  
ATOM     20  CD1 PHE A   1     -10.652   9.807  67.233  1.00  0.00    -0.320 A  
ATOM     21  CE1 PHE A   1      -9.859   8.941  66.478  1.00  0.00    -0.344 A  
ATOM     22  CZ  PHE A   1      -9.372   9.344  65.239  1.00  0.00    -0.303 A  
ATOM     23  CE2 PHE A   1      -9.674  10.617  64.758  1.00  0.00    -0.350 A  
ATOM     24  CD2 PHE A   1     -10.456  11.490  65.520  1.00  0.00    -0.327 A  
ENDBRANCH  18  19
ENDBRANCH  14  18
ENDBRANCH  12  14
ENDBRANCH   7  10
TORSDOF 4
ENDMDL
MODEL      120
REMARK 921   NORMALIZED FREE ENERGY PREDICTED BY IDOCK:   -4.49 KCAL/MOL
REMARK 922        TOTAL FREE ENERGY PREDICTED BY IDOCK:   -6.56 KCAL/MOL
REMARK 923 INTER-LIGAND FREE ENERGY PREDICTED BY IDOCK:   -5.08 KCAL/MOL
REMARK 924 INTRA-LIGAND FREE ENERGY PREDICTED BY IDOCK:   -1.48 KCAL/MOL
REMARK 927      BINDING AFFINITY PREDICTED BY RF-SCORE:    0.00 PKD
ROOT
HETATM    1  C   UNK A   0      -9.984  15.105  66.101  1.00  0.00    -0.317 C  
HETATM    2  C   UNK A   0     -10.455  13.651  65.978  1.00  0.00    -0.300 C  
HETATM    3  C   UNK A   0     -10.193  13.195  64.532  1.00  0.00    -0.333 C  
HETATM    4  C   UNK A   0      -9.775  12.703  67.014  1.00  0.00    -0.225 C  
HETATM    5  C   UNK A   0     -10.038  13.054  68.497  1.00  0.00    -0.195 C  
HETATM    6  C   UNK A   0     -11.437  12.674  69.008  1.00  0.00    -0.354 C  
HETATM    7  C   UNK A   0     -11.895  11.250  68.633  1.00  0.00    -0.369 C  
HETATM    8  C   UNK A   0     -11.636  10.983  67.147  1.00  0.00     0.053 C  
HETATM    9  C   UNK A   0     -10.167  11.230  66.812  1.00  0.00    -0.263 C  
ENDROOT
BRANCH   7  10
HETATM   10  C   UNK A   0     -11.276  10.151  69.516  1.00  0.00    -0.238 C  
HETATM   11  O   UNK A   0     -11.219  10.211  70.738  1.00  0.00    -0.321 OA 
ATOM     12  N   PHE A   1     -10.816   9.055  68.817  1.00  0.00    -0.423 N  
ATOM     13  H   PHE A   1     -10.837   9.087  67.798  1.00  0.00     0.000 HD 
BRANCH  12  14
ATOM     14  CA  PHE A   1     -10.298   7.848  69.467  1.00  0.00    -0.217 C  
ATOM     15  OXT PHE A   1     -11.172   6.715  67.492  1.00  0.00    -0.319 OA 
ATOM     16  C   PHE A   1     -10.673   6.632  68.609  1.00  0.00    -0.254 C  
ATOM     17  O   PHE A   1     -10.467   5.437  69.211  1.00  0.00    -0.256 OA 
BRANCH  14  18
ATOM     18  CB  PHE A   1      -8.794   7.886  69.804  1.00  0.00    -0.141 C  
BRANCH  18  19
ATOM     19  CG  PHE A   1      -7.956   8.946  69.124  1.00  0.00    -0.105 A  
ATOM     20  CD1 PHE A   1      -7.452   8.724  67.837  1.00  0.00    -0.093 A  
ATOM     21  CE1 PHE A   1      -6.707   9.703  67.179  1.00  0.00    -0.075 A  
ATOM     22  CZ  PHE A   1      -6.472  10.929  67.793  1.00  0.00    -0.063 A  
ATOM     23  CE2 PHE A   1      -6.977  11.172  69.069  1.00  0.00    -0.101 A  
ATOM     24  CD2 PHE A   1      -7.711  10.185  69.735  1.00  0.00    -0.176 A  
ENDBRANCH  18  19
ENDBRANCH  14  18
ENDBRANCH  12  14
ENDBRANCH   7  10
TORSDOF 4
ENDMDL
MODEL      121
REMARK 921   NORMALIZED FREE ENERGY PREDICTED BY IDOCK:   -4.48 KCAL/MOL
REMARK 922        TOTAL FREE ENERGY PREDICTED BY IDOCK:   -6.55 KCAL/MOL
REMARK 923 INTER-LIGAND FREE ENERGY PREDICTED BY IDOCK:   -7.02 KCAL/MOL
REMARK 924 INTRA-LIGAND FREE ENERGY PREDICTED BY IDOCK:    0.47 KCAL/MOL
REMARK 927      BINDING AFFINITY PREDICTED BY RF-SCORE:    0.00 PKD
ROOT
HETATM    1  C   UNK A   0      -8.127  10.165  64.092  1.00  0.00    -0.158 C  
HETATM    2  C   UNK A   0      -9.215  11.176  64.474  1.00  0.00    -0.126 C  
HETATM    3  C   UNK A   0      -9.879  11.662  63.174  1.00  0.00    -0.407 C  
HETATM    4  C   UNK A   0     -10.260  10.593  65.474  1.00  0.00    -0.329 C  
HETATM    5  C   UNK A   0      -9.685  10.135  66.834  1.00  0.00    -0.233 C  
HETATM    6  C   UNK A   0      -9.339  11.277  67.802  1.00  0.00    -0.163 C  
HETATM    7  C   UNK A   0     -10.431  12.358  67.940  1.00  0.00    -0.227 C  
HETATM    8  C   UNK A   0     -10.931  12.787  66.557  1.00  0.00    -0.291 C  
HETATM    9  C   UNK A   0     -11.409  11.572  65.765  1.00  0.00    -0.160 C  
ENDROOT
BRANCH   7  10
HETATM   10  C   UNK A   0     -11.599  11.941  68.853  1.00  0.00    -0.311 C  
HETATM   11  O   UNK A   0     -12.532  11.238  68.487  1.00  0.00    -0.434 OA 
ATOM     12  N   PHE A   1     -11.493  12.397  70.150  1.00  0.00    -0.520 N  
ATOM     13  H   PHE A   1     -10.725  13.027  70.382  1.00  0.00     0.000 HD 
BRANCH  12  14
ATOM     14  CA  PHE A   1     -12.432  12.022  71.212  1.00  0.00    -0.198 C  
ATOM     15  OXT PHE A   1     -13.313  14.271  70.882  1.00  0.00    -0.330 OA 
ATOM     16  C   PHE A   1     -13.312  13.235  71.538  1.00  0.00    -0.249 C  
ATOM     17  O   PHE A   1     -14.057  13.102  72.661  1.00  0.00    -0.701 OA 
BRANCH  14  18
ATOM     18  CB  PHE A   1     -13.263  10.755  70.927  1.00  0.00    -0.160 C  
BRANCH  18  19
ATOM     19  CG  PHE A   1     -12.652   9.423  71.301  1.00  0.00    -0.403 A  
ATOM     20  CD1 PHE A   1     -11.345   9.366  71.799  1.00  0.00    -0.387 A  
ATOM     21  CE1 PHE A   1     -10.775   8.152  72.184  1.00  0.00    -0.360 A  
ATOM     22  CZ  PHE A   1     -11.515   6.976  72.095  1.00  0.00    -0.312 A  
ATOM     23  CE2 PHE A   1     -12.822   7.017  71.613  1.00  0.00    -0.408 A  
ATOM     24  CD2 PHE A   1     -13.387   8.232  71.213  1.00  0.00    -0.153 A  
ENDBRANCH  18  19
ENDBRANCH  14  18
ENDBRANCH  12  14
ENDBRANCH   7  10
TORSDOF 4
ENDMDL
MODEL      122
REMARK 921   NORMALIZED FREE ENERGY PREDICTED BY IDOCK:   -4.48 KCAL/MOL
REMARK 922        TOTAL FREE ENERGY PREDICTED BY IDOCK:   -6.55 KCAL/MOL
REMARK 923 INTER-LIGAND FREE ENERGY PREDICTED BY IDOCK:   -5.60 KCAL/MOL
REMARK 924 INTRA-LIGAND FREE ENERGY PREDICTED BY IDOCK:   -0.95 KCAL/MOL
REMARK 927      BINDING AFFINITY PREDICTED BY RF-SCORE:    0.00 PKD
ROOT
HETATM    1  C   UNK A   0      -6.862   5.093  65.493  1.00  0.00    -0.061 C  
HETATM    2  C   UNK A   0      -7.993   5.832  66.219  1.00  0.00    -0.102 C  
HETATM    3  C   UNK A   0      -8.369   5.005  67.461  1.00  0.00    -0.105 C  
HETATM    4  C   UNK A   0      -7.616   7.298  66.595  1.00  0.00    -0.093 C  
HETATM    5  C   UNK A   0      -7.281   8.218  65.397  1.00  0.00    -0.071 C  
HETATM    6  C   UNK A   0      -8.501   8.696  64.594  1.00  0.00    -0.150 C  
HETATM    7  C   UNK A   0      -9.672   9.220  65.451  1.00  0.00    -0.170 C  
HETATM    8  C   UNK A   0      -9.970   8.246  66.595  1.00  0.00    -0.348 C  
HETATM    9  C   UNK A   0      -8.710   7.995  67.421  1.00  0.00    -0.124 C  
ENDROOT
BRANCH   7  10
HETATM   10  C   UNK A   0      -9.459  10.652  65.975  1.00  0.00    -0.193 C  
HETATM   11  O   UNK A   0      -8.378  11.225  65.968  1.00  0.00    -0.153 OA 
ATOM     12  N   PHE A   1     -10.608  11.266  66.426  1.00  0.00    -0.258 N  
ATOM     13  H   PHE A   1     -11.469  10.719  66.461  1.00  0.00     0.000 HD 
BRANCH  12  14
ATOM     14  CA  PHE A   1     -10.655  12.666  66.857  1.00  0.00    -0.240 C  
ATOM     15  OXT PHE A   1     -12.752  12.718  65.615  1.00  0.00    -0.549 OA 
ATOM     16  C   PHE A   1     -11.886  13.331  66.229  1.00  0.00    -0.395 C  
ATOM     17  O   PHE A   1     -11.917  14.680  66.350  1.00  0.00    -0.356 OA 
BRANCH  14  18
ATOM     18  CB  PHE A   1     -10.589  12.878  68.383  1.00  0.00    -0.267 C  
BRANCH  18  19
ATOM     19  CG  PHE A   1     -10.974  11.709  69.264  1.00  0.00    -0.246 A  
ATOM     20  CD1 PHE A   1     -10.043  10.700  69.537  1.00  0.00    -0.164 A  
ATOM     21  CE1 PHE A   1     -10.366   9.633  70.376  1.00  0.00    -0.350 A  
ATOM     22  CZ  PHE A   1     -11.622   9.571  70.972  1.00  0.00    -0.419 A  
ATOM     23  CE2 PHE A   1     -12.557  10.574  70.721  1.00  0.00    -0.474 A  
ATOM     24  CD2 PHE A   1     -12.238  11.636  69.868  1.00  0.00    -0.310 A  
ENDBRANCH  18  19
ENDBRANCH  14  18
ENDBRANCH  12  14
ENDBRANCH   7  10
TORSDOF 4
ENDMDL
MODEL      123
REMARK 921   NORMALIZED FREE ENERGY PREDICTED BY IDOCK:   -4.47 KCAL/MOL
REMARK 922        TOTAL FREE ENERGY PREDICTED BY IDOCK:   -6.55 KCAL/MOL
REMARK 923 INTER-LIGAND FREE ENERGY PREDICTED BY IDOCK:   -6.10 KCAL/MOL
REMARK 924 INTRA-LIGAND FREE ENERGY PREDICTED BY IDOCK:   -0.44 KCAL/MOL
REMARK 927      BINDING AFFINITY PREDICTED BY RF-SCORE:    0.00 PKD
ROOT
HETATM    1  C   UNK A   0     -11.826   7.038  71.961  1.00  0.00    -0.336 C  
HETATM    2  C   UNK A   0     -12.672   8.250  71.552  1.00  0.00    -0.326 C  
HETATM    3  C   UNK A   0     -13.914   8.282  72.459  1.00  0.00    -0.144 C  
HETATM    4  C   UNK A   0     -11.878   9.592  71.614  1.00  0.00    -0.468 C  
HETATM    5  C   UNK A   0     -10.645   9.669  70.684  1.00  0.00    -0.386 C  
HETATM    6  C   UNK A   0     -10.973   9.887  69.199  1.00  0.00    -0.233 C  
HETATM    7  C   UNK A   0     -12.009  10.996  68.923  1.00  0.00    -0.332 C  
HETATM    8  C   UNK A   0     -13.215  10.839  69.854  1.00  0.00     0.525 C  
HETATM    9  C   UNK A   0     -12.761  10.814  71.312  1.00  0.00    -0.546 C  
ENDROOT
BRANCH   7  10
HETATM   10  C   UNK A   0     -11.424  12.419  68.999  1.00  0.00    -0.300 C  
HETATM   11  O   UNK A   0     -11.866  13.298  69.728  1.00  0.00    -0.308 OA 
ATOM     12  N   PHE A   1     -10.321  12.620  68.198  1.00  0.00    -0.227 N  
ATOM     13  H   PHE A   1     -10.034  11.870  67.569  1.00  0.00     0.000 HD 
BRANCH  12  14
ATOM     14  CA  PHE A   1      -9.539  13.861  68.204  1.00  0.00    -0.218 C  
ATOM     15  OXT PHE A   1      -7.640  12.367  68.529  1.00  0.00    -0.123 OA 
ATOM     16  C   PHE A   1      -8.073  13.513  68.489  1.00  0.00    -0.108 C  
ATOM     17  O   PHE A   1      -7.286  14.582  68.759  1.00  0.00    -0.116 OA 
BRANCH  14  18
ATOM     18  CB  PHE A   1      -9.701  14.735  66.945  1.00  0.00    -0.247 C  
BRANCH  18  19
ATOM     19  CG  PHE A   1     -10.474  14.149  65.784  1.00  0.00    -0.320 A  
ATOM     20  CD1 PHE A   1      -9.914  13.122  65.016  1.00  0.00    -0.163 A  
ATOM     21  CE1 PHE A   1     -10.626  12.542  63.965  1.00  0.00    -0.451 A  
ATOM     22  CZ  PHE A   1     -11.918  12.970  63.678  1.00  0.00    -0.608 A  
ATOM     23  CE2 PHE A   1     -12.495  13.984  64.441  1.00  0.00    -0.326 A  
ATOM     24  CD2 PHE A   1     -11.777  14.575  65.486  1.00  0.00    -0.343 A  
ENDBRANCH  18  19
ENDBRANCH  14  18
ENDBRANCH  12  14
ENDBRANCH   7  10
TORSDOF 4
ENDMDL
MODEL      124
REMARK 921   NORMALIZED FREE ENERGY PREDICTED BY IDOCK:   -4.47 KCAL/MOL
REMARK 922        TOTAL FREE ENERGY PREDICTED BY IDOCK:   -6.54 KCAL/MOL
REMARK 923 INTER-LIGAND FREE ENERGY PREDICTED BY IDOCK:   -5.87 KCAL/MOL
REMARK 924 INTRA-LIGAND FREE ENERGY PREDICTED BY IDOCK:   -0.67 KCAL/MOL
REMARK 927      BINDING AFFINITY PREDICTED BY RF-SCORE:    0.00 PKD
ROOT
HETATM    1  C   UNK A   0      -9.159   3.758  69.421  1.00  0.00    -0.197 C  
HETATM    2  C   UNK A   0      -9.428   5.218  69.804  1.00  0.00    -0.207 C  
HETATM    3  C   UNK A   0      -9.031   5.395  71.280  1.00  0.00    -0.155 C  
HETATM    4  C   UNK A   0      -8.687   6.234  68.881  1.00  0.00    -0.125 C  
HETATM    5  C   UNK A   0      -9.072   6.166  67.385  1.00  0.00    -0.110 C  
HETATM    6  C   UNK A   0     -10.434   6.791  67.044  1.00  0.00    -0.369 C  
HETATM    7  C   UNK A   0     -10.682   8.178  67.670  1.00  0.00    -0.203 C  
HETATM    8  C   UNK A   0     -10.311   8.164  69.156  1.00  0.00    -0.228 C  
HETATM    9  C   UNK A   0      -8.870   7.691  69.339  1.00  0.00    -0.139 C  
ENDROOT
BRANCH   7  10
HETATM   10  C   UNK A   0      -9.973   9.325  66.926  1.00  0.00    -0.233 C  
HETATM   11  O   UNK A   0      -9.456  10.283  67.487  1.00  0.00    -0.150 OA 
ATOM     12  N   PHE A   1      -9.931   9.172  65.557  1.00  0.00    -0.389 N  
ATOM     13  H   PHE A   1     -10.429   8.384  65.142  1.00  0.00     0.000 HD 
BRANCH  12  14
ATOM     14  CA  PHE A   1      -9.206  10.084  64.668  1.00  0.00    -0.258 C  
ATOM     15  OXT PHE A   1      -7.968   8.081  64.035  1.00  0.00    -0.142 OA 
ATOM     16  C   PHE A   1      -8.090   9.299  63.966  1.00  0.00    -0.150 C  
ATOM     17  O   PHE A   1      -7.195  10.069  63.302  1.00  0.00    -0.128 OA 
BRANCH  14  18
ATOM     18  CB  PHE A   1     -10.090  10.861  63.673  1.00  0.00    -0.414 C  
BRANCH  18  19
ATOM     19  CG  PHE A   1     -10.640  12.196  64.126  1.00  0.00    -0.403 A  
ATOM     20  CD1 PHE A   1     -11.679  12.805  63.414  1.00  0.00    -0.556 A  
ATOM     21  CE1 PHE A   1     -12.224  14.018  63.836  1.00  0.00    -0.336 A  
ATOM     22  CZ  PHE A   1     -11.749  14.631  64.991  1.00  0.00    -0.385 A  
ATOM     23  CE2 PHE A   1     -10.723  14.032  65.720  1.00  0.00    -0.294 A  
ATOM     24  CD2 PHE A   1     -10.166  12.824  65.288  1.00  0.00    -0.296 A  
ENDBRANCH  18  19
ENDBRANCH  14  18
ENDBRANCH  12  14
ENDBRANCH   7  10
TORSDOF 4
ENDMDL
MODEL      125
REMARK 921   NORMALIZED FREE ENERGY PREDICTED BY IDOCK:   -4.47 KCAL/MOL
REMARK 922        TOTAL FREE ENERGY PREDICTED BY IDOCK:   -6.54 KCAL/MOL
REMARK 923 INTER-LIGAND FREE ENERGY PREDICTED BY IDOCK:   -6.12 KCAL/MOL
REMARK 924 INTRA-LIGAND FREE ENERGY PREDICTED BY IDOCK:   -0.41 KCAL/MOL
REMARK 927      BINDING AFFINITY PREDICTED BY RF-SCORE:    0.00 PKD
ROOT
HETATM    1  C   UNK A   0     -11.906  15.148  70.678  1.00  0.00    -0.371 C  
HETATM    2  C   UNK A   0     -11.915  13.616  70.607  1.00  0.00    -0.328 C  
HETATM    3  C   UNK A   0     -13.125  13.117  71.416  1.00  0.00    -0.352 C  
HETATM    4  C   UNK A   0     -11.939  13.077  69.143  1.00  0.00    -0.320 C  
HETATM    5  C   UNK A   0     -10.726  13.482  68.274  1.00  0.00    -0.271 C  
HETATM    6  C   UNK A   0      -9.432  12.710  68.578  1.00  0.00    -0.094 C  
HETATM    7  C   UNK A   0      -9.607  11.182  68.700  1.00  0.00    -0.200 C  
HETATM    8  C   UNK A   0     -10.803  10.854  69.598  1.00  0.00    -0.271 C  
HETATM    9  C   UNK A   0     -12.062  11.546  69.079  1.00  0.00    -0.303 C  
ENDROOT
BRANCH   7  10
HETATM   10  C   UNK A   0      -9.713  10.464  67.341  1.00  0.00    -0.163 C  
HETATM   11  O   UNK A   0     -10.561   9.619  67.083  1.00  0.00    -0.256 OA 
ATOM     12  N   PHE A   1      -8.786  10.878  66.408  1.00  0.00    -0.165 N  
ATOM     13  H   PHE A   1      -8.068  11.541  66.699  1.00  0.00     0.000 HD 
BRANCH  12  14
ATOM     14  CA  PHE A   1      -8.782  10.411  65.019  1.00  0.00    -0.182 C  
ATOM     15  OXT PHE A   1      -8.258   8.247  66.012  1.00  0.00    -0.107 OA 
ATOM     16  C   PHE A   1      -8.380   8.931  65.002  1.00  0.00    -0.165 C  
ATOM     17  O   PHE A   1      -8.104   8.439  63.770  1.00  0.00    -0.155 OA 
BRANCH  14  18
ATOM     18  CB  PHE A   1     -10.087  10.673  64.242  1.00  0.00    -0.411 C  
BRANCH  18  19
ATOM     19  CG  PHE A   1     -10.817  11.968  64.524  1.00  0.00    -0.363 A  
ATOM     20  CD1 PHE A   1     -10.171  13.194  64.332  1.00  0.00    -0.319 A  
ATOM     21  CE1 PHE A   1     -10.838  14.400  64.552  1.00  0.00    -0.271 A  
ATOM     22  CZ  PHE A   1     -12.171  14.395  64.951  1.00  0.00    -0.440 A  
ATOM     23  CE2 PHE A   1     -12.834  13.183  65.136  1.00  0.00    -0.367 A  
ATOM     24  CD2 PHE A   1     -12.161  11.975  64.930  1.00  0.00    -0.247 A  
ENDBRANCH  18  19
ENDBRANCH  14  18
ENDBRANCH  12  14
ENDBRANCH   7  10
TORSDOF 4
ENDMDL
MODEL      126
REMARK 921   NORMALIZED FREE ENERGY PREDICTED BY IDOCK:   -4.46 KCAL/MOL
REMARK 922        TOTAL FREE ENERGY PREDICTED BY IDOCK:   -6.53 KCAL/MOL
REMARK 923 INTER-LIGAND FREE ENERGY PREDICTED BY IDOCK:   -6.00 KCAL/MOL
REMARK 924 INTRA-LIGAND FREE ENERGY PREDICTED BY IDOCK:   -0.54 KCAL/MOL
REMARK 927      BINDING AFFINITY PREDICTED BY RF-SCORE:    0.00 PKD
ROOT
HETATM    1  C   UNK A   0     -10.862   6.705  67.080  1.00  0.00    -0.471 C  
HETATM    2  C   UNK A   0      -9.633   7.599  66.876  1.00  0.00    -0.249 C  
HETATM    3  C   UNK A   0      -8.765   6.958  65.779  1.00  0.00    -0.120 C  
HETATM    4  C   UNK A   0     -10.007   9.073  66.528  1.00  0.00    -0.355 C  
HETATM    5  C   UNK A   0     -10.831   9.814  67.607  1.00  0.00    -0.301 C  
HETATM    6  C   UNK A   0     -10.022  10.268  68.832  1.00  0.00    -0.209 C  
HETATM    7  C   UNK A   0      -8.689  10.968  68.501  1.00  0.00    -0.159 C  
HETATM    8  C   UNK A   0      -7.912  10.164  67.454  1.00  0.00    -0.110 C  
HETATM    9  C   UNK A   0      -8.774   9.936  66.214  1.00  0.00    -0.152 C  
ENDROOT
BRANCH   7  10
HETATM   10  C   UNK A   0      -8.854  12.438  68.071  1.00  0.00    -0.187 C  
HETATM   11  O   UNK A   0      -8.366  12.907  67.051  1.00  0.00    -0.174 OA 
ATOM     12  N   PHE A   1      -9.640  13.190  68.917  1.00  0.00    -0.398 N  
ATOM     13  H   PHE A   1      -9.971  12.762  69.782  1.00  0.00     0.000 HD 
BRANCH  12  14
ATOM     14  CA  PHE A   1     -10.022  14.578  68.637  1.00  0.00    -0.237 C  
ATOM     15  OXT PHE A   1     -12.102  13.965  69.753  1.00  0.00    -0.313 OA 
ATOM     16  C   PHE A   1     -11.467  14.790  69.105  1.00  0.00    -0.299 C  
ATOM     17  O   PHE A   1     -12.026  15.952  68.690  1.00  0.00    -0.338 OA 
BRANCH  14  18
ATOM     18  CB  PHE A   1      -9.061  15.643  69.200  1.00  0.00    -0.256 C  
BRANCH  18  19
ATOM     19  CG  PHE A   1      -8.583  16.720  68.251  1.00  0.00    -0.226 A  
ATOM     20  CD1 PHE A   1      -8.077  16.373  66.993  1.00  0.00    -0.235 A  
ATOM     21  CE1 PHE A   1      -7.665  17.353  66.089  1.00  0.00    -0.311 A  
ATOM     22  CZ  PHE A   1      -7.772  18.699  66.424  1.00  0.00    -0.292 A  
ATOM     23  CE2 PHE A   1      -8.285  19.063  67.668  1.00  0.00    -0.302 A  
ATOM     24  CD2 PHE A   1      -8.684  18.080  68.580  1.00  0.00    -0.304 A  
ENDBRANCH  18  19
ENDBRANCH  14  18
ENDBRANCH  12  14
ENDBRANCH   7  10
TORSDOF 4
ENDMDL
MODEL      127
REMARK 921   NORMALIZED FREE ENERGY PREDICTED BY IDOCK:   -4.46 KCAL/MOL
REMARK 922        TOTAL FREE ENERGY PREDICTED BY IDOCK:   -6.53 KCAL/MOL
REMARK 923 INTER-LIGAND FREE ENERGY PREDICTED BY IDOCK:   -6.07 KCAL/MOL
REMARK 924 INTRA-LIGAND FREE ENERGY PREDICTED BY IDOCK:   -0.46 KCAL/MOL
REMARK 927      BINDING AFFINITY PREDICTED BY RF-SCORE:    0.00 PKD
ROOT
HETATM    1  C   UNK A   0     -10.440  16.426  67.097  1.00  0.00    -0.297 C  
HETATM    2  C   UNK A   0     -10.859  15.113  66.423  1.00  0.00    -0.326 C  
HETATM    3  C   UNK A   0     -11.008  15.388  64.916  1.00  0.00    -0.453 C  
HETATM    4  C   UNK A   0      -9.865  13.944  66.701  1.00  0.00    -0.288 C  
HETATM    5  C   UNK A   0      -9.701  13.561  68.190  1.00  0.00    -0.233 C  
HETATM    6  C   UNK A   0     -10.872  12.757  68.778  1.00  0.00    -0.270 C  
HETATM    7  C   UNK A   0     -11.353  11.584  67.901  1.00  0.00    -0.372 C  
HETATM    8  C   UNK A   0     -11.525  12.042  66.450  1.00  0.00    -0.417 C  
HETATM    9  C   UNK A   0     -10.230  12.664  65.932  1.00  0.00    -0.290 C  
ENDROOT
BRANCH   7  10
HETATM   10  C   UNK A   0     -10.455  10.336  67.992  1.00  0.00    -0.196 C  
HETATM   11  O   UNK A   0      -9.242  10.382  68.156  1.00  0.00    -0.141 OA 
ATOM     12  N   PHE A   1     -11.136   9.141  67.911  1.00  0.00    -0.489 N  
ATOM     13  H   PHE A   1     -12.137   9.165  67.716  1.00  0.00     0.000 HD 
BRANCH  12  14
ATOM     14  CA  PHE A   1     -10.493   7.836  68.092  1.00  0.00    -0.176 C  
ATOM     15  OXT PHE A   1     -11.229   8.074  70.404  1.00  0.00    -0.268 OA 
ATOM     16  C   PHE A   1     -10.577   7.450  69.574  1.00  0.00    -0.237 C  
ATOM     17  O   PHE A   1      -9.814   6.386  69.920  1.00  0.00    -0.164 OA 
BRANCH  14  18
ATOM     18  CB  PHE A   1     -11.017   6.721  67.166  1.00  0.00    -0.458 C  
BRANCH  18  19
ATOM     19  CG  PHE A   1      -9.990   5.851  66.474  1.00  0.00    -0.196 A  
ATOM     20  CD1 PHE A   1      -8.653   6.262  66.408  1.00  0.00    -0.133 A  
ATOM     21  CE1 PHE A   1      -7.684   5.458  65.807  1.00  0.00    -0.087 A  
ATOM     22  CZ  PHE A   1      -8.036   4.220  65.278  1.00  0.00    -0.101 A  
ATOM     23  CE2 PHE A   1      -9.360   3.791  65.345  1.00  0.00    -0.159 A  
ATOM     24  CD2 PHE A   1     -10.335   4.603  65.935  1.00  0.00    -0.315 A  
ENDBRANCH  18  19
ENDBRANCH  14  18
ENDBRANCH  12  14
ENDBRANCH   7  10
TORSDOF 4
ENDMDL
MODEL      128
REMARK 921   NORMALIZED FREE ENERGY PREDICTED BY IDOCK:   -4.45 KCAL/MOL
REMARK 922        TOTAL FREE ENERGY PREDICTED BY IDOCK:   -6.52 KCAL/MOL
REMARK 923 INTER-LIGAND FREE ENERGY PREDICTED BY IDOCK:   -5.84 KCAL/MOL
REMARK 924 INTRA-LIGAND FREE ENERGY PREDICTED BY IDOCK:   -0.68 KCAL/MOL
REMARK 927      BINDING AFFINITY PREDICTED BY RF-SCORE:    0.00 PKD
ROOT
HETATM    1  C   UNK A   0      -9.834   4.985  70.270  1.00  0.00    -0.304 C  
HETATM    2  C   UNK A   0      -9.495   6.448  69.957  1.00  0.00    -0.165 C  
HETATM    3  C   UNK A   0      -8.384   6.453  68.893  1.00  0.00    -0.121 C  
HETATM    4  C   UNK A   0     -10.737   7.272  69.498  1.00  0.00    -0.244 C  
HETATM    5  C   UNK A   0     -11.881   7.370  70.534  1.00  0.00    -0.187 C  
HETATM    6  C   UNK A   0     -11.615   8.343  71.694  1.00  0.00    -0.348 C  
HETATM    7  C   UNK A   0     -11.066   9.719  71.268  1.00  0.00    -0.375 C  
HETATM    8  C   UNK A   0      -9.917   9.546  70.269  1.00  0.00    -0.310 C  
HETATM    9  C   UNK A   0     -10.371   8.706  69.078  1.00  0.00    -0.226 C  
ENDROOT
BRANCH   7  10
HETATM   10  C   UNK A   0     -12.145  10.671  70.721  1.00  0.00    -0.374 C  
HETATM   11  O   UNK A   0     -13.337  10.393  70.674  1.00  0.00    -0.288 OA 
ATOM     12  N   PHE A   1     -11.665  11.898  70.316  1.00  0.00    -0.519 N  
ATOM     13  H   PHE A   1     -10.657  12.051  70.324  1.00  0.00     0.000 HD 
BRANCH  12  14
ATOM     14  CA  PHE A   1     -12.533  12.994  69.873  1.00  0.00     0.004 C  
ATOM     15  OXT PHE A   1     -12.137  13.877  72.111  1.00  0.00     0.043 OA 
ATOM     16  C   PHE A   1     -12.745  13.955  71.049  1.00  0.00    -0.357 C  
ATOM     17  O   PHE A   1     -13.715  14.879  70.850  1.00  0.00    -0.343 OA 
BRANCH  14  18
ATOM     18  CB  PHE A   1     -12.061  13.722  68.599  1.00  0.00    -0.333 C  
BRANCH  18  19
ATOM     19  CG  PHE A   1     -10.898  14.680  68.735  1.00  0.00    -0.261 A  
ATOM     20  CD1 PHE A   1      -9.599  14.186  68.909  1.00  0.00    -0.053 A  
ATOM     21  CE1 PHE A   1      -8.509  15.052  69.000  1.00  0.00    -0.200 A  
ATOM     22  CZ  PHE A   1      -8.700  16.426  68.900  1.00  0.00    -0.253 A  
ATOM     23  CE2 PHE A   1      -9.985  16.934  68.716  1.00  0.00    -0.276 A  
ATOM     24  CD2 PHE A   1     -11.080  16.067  68.639  1.00  0.00    -0.349 A  
ENDBRANCH  18  19
ENDBRANCH  14  18
ENDBRANCH  12  14
ENDBRANCH   7  10
TORSDOF 4
ENDMDL
MODEL      129
REMARK 921   NORMALIZED FREE ENERGY PREDICTED BY IDOCK:   -4.45 KCAL/MOL
REMARK 922        TOTAL FREE ENERGY PREDICTED BY IDOCK:   -6.52 KCAL/MOL
REMARK 923 INTER-LIGAND FREE ENERGY PREDICTED BY IDOCK:   -6.26 KCAL/MOL
REMARK 924 INTRA-LIGAND FREE ENERGY PREDICTED BY IDOCK:   -0.26 KCAL/MOL
REMARK 927      BINDING AFFINITY PREDICTED BY RF-SCORE:    0.00 PKD
ROOT
HETATM    1  C   UNK A   0      -8.191   6.053  65.381  1.00  0.00    -0.141 C  
HETATM    2  C   UNK A   0      -8.683   6.791  66.631  1.00  0.00    -0.128 C  
HETATM    3  C   UNK A   0      -8.272   5.958  67.858  1.00  0.00    -0.108 C  
HETATM    4  C   UNK A   0      -8.149   8.254  66.721  1.00  0.00    -0.103 C  
HETATM    5  C   UNK A   0      -8.567   9.179  65.555  1.00  0.00    -0.192 C  
HETATM    6  C   UNK A   0     -10.023   9.667  65.613  1.00  0.00    -0.321 C  
HETATM    7  C   UNK A   0     -10.474  10.190  66.992  1.00  0.00    -0.302 C  
HETATM    8  C   UNK A   0     -10.057   9.210  68.094  1.00  0.00    -0.225 C  
HETATM    9  C   UNK A   0      -8.553   8.950  68.031  1.00  0.00    -0.130 C  
ENDROOT
BRANCH   7  10
HETATM   10  C   UNK A   0      -9.987  11.618  67.298  1.00  0.00    -0.191 C  
HETATM   11  O   UNK A   0      -8.889  11.875  67.777  1.00  0.00    -0.153 OA 
ATOM     12  N   PHE A   1     -10.882  12.608  66.952  1.00  0.00    -0.249 N  
ATOM     13  H   PHE A   1     -11.803  12.331  66.613  1.00  0.00     0.000 HD 
BRANCH  12  14
ATOM     14  CA  PHE A   1     -10.576  14.038  67.049  1.00  0.00    -0.279 C  
ATOM     15  OXT PHE A   1     -10.291  13.884  64.632  1.00  0.00    -0.432 OA 
ATOM     16  C   PHE A   1     -10.186  14.550  65.657  1.00  0.00    -0.357 C  
ATOM     17  O   PHE A   1      -9.649  15.793  65.646  1.00  0.00    -0.329 OA 
BRANCH  14  18
ATOM     18  CB  PHE A   1     -11.678  14.896  67.702  1.00  0.00    -0.329 C  
BRANCH  18  19
ATOM     19  CG  PHE A   1     -11.787  14.858  69.210  1.00  0.00    -0.350 A  
ATOM     20  CD1 PHE A   1     -12.265  13.709  69.850  1.00  0.00    -0.367 A  
ATOM     21  CE1 PHE A   1     -12.339  13.640  71.242  1.00  0.00    -0.359 A  
ATOM     22  CZ  PHE A   1     -11.917  14.717  72.016  1.00  0.00    -0.372 A  
ATOM     23  CE2 PHE A   1     -11.428  15.865  71.395  1.00  0.00    -0.484 A  
ATOM     24  CD2 PHE A   1     -11.367  15.939  70.000  1.00  0.00    -0.358 A  
ENDBRANCH  18  19
ENDBRANCH  14  18
ENDBRANCH  12  14
ENDBRANCH   7  10
TORSDOF 4
ENDMDL
MODEL      130
REMARK 921   NORMALIZED FREE ENERGY PREDICTED BY IDOCK:   -4.43 KCAL/MOL
REMARK 922        TOTAL FREE ENERGY PREDICTED BY IDOCK:   -6.49 KCAL/MOL
REMARK 923 INTER-LIGAND FREE ENERGY PREDICTED BY IDOCK:   -5.78 KCAL/MOL
REMARK 924 INTRA-LIGAND FREE ENERGY PREDICTED BY IDOCK:   -0.71 KCAL/MOL
REMARK 927      BINDING AFFINITY PREDICTED BY RF-SCORE:    0.00 PKD
ROOT
HETATM    1  C   UNK A   0     -10.708   7.632  72.811  1.00  0.00    -0.401 C  
HETATM    2  C   UNK A   0     -10.284   7.171  71.411  1.00  0.00    -0.203 C  
HETATM    3  C   UNK A   0     -10.628   5.676  71.287  1.00  0.00    -0.321 C  
HETATM    4  C   UNK A   0     -10.941   8.010  70.272  1.00  0.00    -0.242 C  
HETATM    5  C   UNK A   0     -10.598   9.518  70.286  1.00  0.00    -0.317 C  
HETATM    6  C   UNK A   0      -9.188   9.861  69.779  1.00  0.00    -0.252 C  
HETATM    7  C   UNK A   0      -8.789   9.161  68.464  1.00  0.00    -0.129 C  
HETATM    8  C   UNK A   0      -9.125   7.669  68.532  1.00  0.00    -0.131 C  
HETATM    9  C   UNK A   0     -10.601   7.472  68.872  1.00  0.00    -0.184 C  
ENDROOT
BRANCH   7  10
HETATM   10  C   UNK A   0      -9.395   9.816  67.208  1.00  0.00    -0.138 C  
HETATM   11  O   UNK A   0      -9.662   9.202  66.183  1.00  0.00    -0.248 OA 
ATOM     12  N   PHE A   1      -9.655  11.163  67.342  1.00  0.00    -0.168 N  
ATOM     13  H   PHE A   1      -9.357  11.632  68.197  1.00  0.00     0.000 HD 
BRANCH  12  14
ATOM     14  CA  PHE A   1     -10.337  11.955  66.314  1.00  0.00    -0.224 C  
ATOM     15  OXT PHE A   1     -12.269  11.737  67.786  1.00  0.00    -0.536 OA 
ATOM     16  C   PHE A   1     -11.813  12.095  66.705  1.00  0.00    -0.228 C  
ATOM     17  O   PHE A   1     -12.607  12.596  65.728  1.00  0.00    -0.575 OA 
BRANCH  14  18
ATOM     18  CB  PHE A   1      -9.682  13.315  66.001  1.00  0.00    -0.230 C  
BRANCH  18  19
ATOM     19  CG  PHE A   1      -9.111  14.096  67.165  1.00  0.00    -0.240 A  
ATOM     20  CD1 PHE A   1      -9.966  14.773  68.042  1.00  0.00    -0.218 A  
ATOM     21  CE1 PHE A   1      -9.463  15.468  69.142  1.00  0.00    -0.246 A  
ATOM     22  CZ  PHE A   1      -8.094  15.481  69.390  1.00  0.00    -0.241 A  
ATOM     23  CE2 PHE A   1      -7.229  14.803  68.533  1.00  0.00    -0.115 A  
ATOM     24  CD2 PHE A   1      -7.732  14.118  67.423  1.00  0.00    -0.189 A  
ENDBRANCH  18  19
ENDBRANCH  14  18
ENDBRANCH  12  14
ENDBRANCH   7  10
TORSDOF 4
ENDMDL
MODEL      131
REMARK 921   NORMALIZED FREE ENERGY PREDICTED BY IDOCK:   -4.43 KCAL/MOL
REMARK 922        TOTAL FREE ENERGY PREDICTED BY IDOCK:   -6.49 KCAL/MOL
REMARK 923 INTER-LIGAND FREE ENERGY PREDICTED BY IDOCK:   -7.16 KCAL/MOL
REMARK 924 INTRA-LIGAND FREE ENERGY PREDICTED BY IDOCK:    0.67 KCAL/MOL
REMARK 927      BINDING AFFINITY PREDICTED BY RF-SCORE:    0.00 PKD
ROOT
HETATM    1  C   UNK A   0     -13.689  12.971  72.139  1.00  0.00    -0.547 C  
HETATM    2  C   UNK A   0     -13.349  14.204  71.294  1.00  0.00    -0.370 C  
HETATM    3  C   UNK A   0     -13.696  15.451  72.125  1.00  0.00    -0.618 C  
HETATM    4  C   UNK A   0     -11.863  14.223  70.819  1.00  0.00    -0.336 C  
HETATM    5  C   UNK A   0     -11.443  13.033  69.925  1.00  0.00    -0.151 C  
HETATM    6  C   UNK A   0     -11.948  13.110  68.475  1.00  0.00    -0.324 C  
HETATM    7  C   UNK A   0     -11.746  14.479  67.795  1.00  0.00    -0.403 C  
HETATM    8  C   UNK A   0     -12.212  15.607  68.721  1.00  0.00     0.023 C  
HETATM    9  C   UNK A   0     -11.499  15.515  70.069  1.00  0.00    -0.344 C  
ENDROOT
BRANCH   7  10
HETATM   10  C   UNK A   0     -10.306  14.717  67.303  1.00  0.00    -0.256 C  
HETATM   11  O   UNK A   0      -9.976  14.685  66.124  1.00  0.00    -0.275 OA 
ATOM     12  N   PHE A   1      -9.407  15.010  68.305  1.00  0.00    -0.187 N  
ATOM     13  H   PHE A   1      -9.727  14.965  69.273  1.00  0.00     0.000 HD 
BRANCH  12  14
ATOM     14  CA  PHE A   1      -8.012  15.384  68.049  1.00  0.00    -0.130 C  
ATOM     15  OXT PHE A   1      -7.793  13.073  67.303  1.00  0.00    -0.171 OA 
ATOM     16  C   PHE A   1      -7.252  14.140  67.574  1.00  0.00    -0.169 C  
ATOM     17  O   PHE A   1      -5.906  14.287  67.532  1.00  0.00    -0.343 OA 
BRANCH  14  18
ATOM     18  CB  PHE A   1      -7.826  16.584  67.099  1.00  0.00    -0.215 C  
BRANCH  18  19
ATOM     19  CG  PHE A   1      -8.741  17.773  67.292  1.00  0.00    -0.241 A  
ATOM     20  CD1 PHE A   1      -8.715  18.491  68.494  1.00  0.00    -0.352 A  
ATOM     21  CE1 PHE A   1      -9.524  19.612  68.678  1.00  0.00    -0.422 A  
ATOM     22  CZ  PHE A   1     -10.360  20.044  67.653  1.00  0.00    -0.510 A  
ATOM     23  CE2 PHE A   1     -10.390  19.348  66.446  1.00  0.00    -0.575 A  
ATOM     24  CD2 PHE A   1      -9.589  18.215  66.266  1.00  0.00    -0.246 A  
ENDBRANCH  18  19
ENDBRANCH  14  18
ENDBRANCH  12  14
ENDBRANCH   7  10
TORSDOF 4
ENDMDL
MODEL      132
REMARK 921   NORMALIZED FREE ENERGY PREDICTED BY IDOCK:   -4.42 KCAL/MOL
REMARK 922        TOTAL FREE ENERGY PREDICTED BY IDOCK:   -6.48 KCAL/MOL
REMARK 923 INTER-LIGAND FREE ENERGY PREDICTED BY IDOCK:   -5.82 KCAL/MOL
REMARK 924 INTRA-LIGAND FREE ENERGY PREDICTED BY IDOCK:   -0.66 KCAL/MOL
REMARK 927      BINDING AFFINITY PREDICTED BY RF-SCORE:    0.00 PKD
ROOT
HETATM    1  C   UNK A   0      -8.135   5.422  65.313  1.00  0.00    -0.123 C  
HETATM    2  C   UNK A   0      -8.214   5.665  66.825  1.00  0.00    -0.105 C  
HETATM    3  C   UNK A   0      -7.109   4.827  67.491  1.00  0.00    -0.065 C  
HETATM    4  C   UNK A   0      -8.100   7.175  67.202  1.00  0.00    -0.114 C  
HETATM    5  C   UNK A   0      -9.209   8.083  66.622  1.00  0.00    -0.225 C  
HETATM    6  C   UNK A   0     -10.568   7.968  67.330  1.00  0.00    -0.360 C  
HETATM    7  C   UNK A   0     -10.498   8.007  68.870  1.00  0.00    -0.207 C  
HETATM    8  C   UNK A   0      -9.404   7.063  69.376  1.00  0.00    -0.146 C  
HETATM    9  C   UNK A   0      -8.066   7.402  68.723  1.00  0.00    -0.128 C  
ENDROOT
BRANCH   7  10
HETATM   10  C   UNK A   0     -10.323   9.426  69.443  1.00  0.00    -0.212 C  
HETATM   11  O   UNK A   0      -9.735   9.669  70.489  1.00  0.00    -0.259 OA 
ATOM     12  N   PHE A   1     -10.857  10.424  68.656  1.00  0.00    -0.217 N  
ATOM     13  H   PHE A   1     -11.386  10.157  67.826  1.00  0.00     0.000 HD 
BRANCH  12  14
ATOM     14  CA  PHE A   1     -10.701  11.851  68.953  1.00  0.00    -0.199 C  
ATOM     15  OXT PHE A   1      -9.156  11.818  67.067  1.00  0.00    -0.176 OA 
ATOM     16  C   PHE A   1      -9.642  12.435  68.009  1.00  0.00    -0.211 C  
ATOM     17  O   PHE A   1      -9.228  13.683  68.334  1.00  0.00    -0.195 OA 
BRANCH  14  18
ATOM     18  CB  PHE A   1     -12.011  12.664  68.939  1.00  0.00    -0.284 C  
BRANCH  18  19
ATOM     19  CG  PHE A   1     -12.393  13.390  70.210  1.00  0.00    -0.354 A  
ATOM     20  CD1 PHE A   1     -12.967  12.685  71.275  1.00  0.00    -0.306 A  
ATOM     21  CE1 PHE A   1     -13.293  13.329  72.469  1.00  0.00    -0.569 A  
ATOM     22  CZ  PHE A   1     -13.032  14.687  72.622  1.00  0.00    -0.534 A  
ATOM     23  CE2 PHE A   1     -12.450  15.401  71.577  1.00  0.00    -0.450 A  
ATOM     24  CD2 PHE A   1     -12.136  14.759  70.374  1.00  0.00    -0.381 A  
ENDBRANCH  18  19
ENDBRANCH  14  18
ENDBRANCH  12  14
ENDBRANCH   7  10
TORSDOF 4
ENDMDL
MODEL      133
REMARK 921   NORMALIZED FREE ENERGY PREDICTED BY IDOCK:   -4.41 KCAL/MOL
REMARK 922        TOTAL FREE ENERGY PREDICTED BY IDOCK:   -6.47 KCAL/MOL
REMARK 923 INTER-LIGAND FREE ENERGY PREDICTED BY IDOCK:   -6.18 KCAL/MOL
REMARK 924 INTRA-LIGAND FREE ENERGY PREDICTED BY IDOCK:   -0.29 KCAL/MOL
REMARK 927      BINDING AFFINITY PREDICTED BY RF-SCORE:    0.00 PKD
ROOT
HETATM    1  C   UNK A   0      -8.412   6.154  64.810  1.00  0.00    -0.007 C  
HETATM    2  C   UNK A   0      -7.904   6.693  66.153  1.00  0.00    -0.102 C  
HETATM    3  C   UNK A   0      -6.376   6.840  66.050  1.00  0.00    -0.049 C  
HETATM    4  C   UNK A   0      -8.587   8.034  66.564  1.00  0.00    -0.148 C  
HETATM    5  C   UNK A   0     -10.120   7.962  66.749  1.00  0.00    -0.352 C  
HETATM    6  C   UNK A   0     -10.579   7.284  68.050  1.00  0.00    -0.247 C  
HETATM    7  C   UNK A   0      -9.838   7.756  69.318  1.00  0.00    -0.173 C  
HETATM    8  C   UNK A   0      -8.326   7.772  69.074  1.00  0.00    -0.131 C  
HETATM    9  C   UNK A   0      -7.994   8.627  67.853  1.00  0.00    -0.107 C  
ENDROOT
BRANCH   7  10
HETATM   10  C   UNK A   0     -10.334   9.112  69.853  1.00  0.00    -0.212 C  
HETATM   11  O   UNK A   0      -9.597   9.966  70.328  1.00  0.00    -0.239 OA 
ATOM     12  N   PHE A   1     -11.692   9.310  69.720  1.00  0.00    -0.419 N  
ATOM     13  H   PHE A   1     -12.263   8.540  69.372  1.00  0.00     0.000 HD 
BRANCH  12  14
ATOM     14  CA  PHE A   1     -12.356  10.573  70.057  1.00  0.00    -0.219 C  
ATOM     15  OXT PHE A   1     -12.424   9.646  72.311  1.00  0.00    -0.306 OA 
ATOM     16  C   PHE A   1     -12.765  10.532  71.534  1.00  0.00    -0.452 C  
ATOM     17  O   PHE A   1     -13.597  11.531  71.914  1.00  0.00    -0.254 OA 
BRANCH  14  18
ATOM     18  CB  PHE A   1     -11.554  11.842  69.706  1.00  0.00    -0.372 C  
BRANCH  18  19
ATOM     19  CG  PHE A   1     -11.599  12.319  68.271  1.00  0.00    -0.385 A  
ATOM     20  CD1 PHE A   1     -11.286  11.439  67.228  1.00  0.00    -0.370 A  
ATOM     21  CE1 PHE A   1     -11.357  11.848  65.897  1.00  0.00    -0.365 A  
ATOM     22  CZ  PHE A   1     -11.762  13.143  65.587  1.00  0.00    -0.402 A  
ATOM     23  CE2 PHE A   1     -12.089  14.029  66.612  1.00  0.00    -0.487 A  
ATOM     24  CD2 PHE A   1     -12.003  13.623  67.948  1.00  0.00    -0.382 A  
ENDBRANCH  18  19
ENDBRANCH  14  18
ENDBRANCH  12  14
ENDBRANCH   7  10
TORSDOF 4
ENDMDL
MODEL      134
REMARK 921   NORMALIZED FREE ENERGY PREDICTED BY IDOCK:   -4.40 KCAL/MOL
REMARK 922        TOTAL FREE ENERGY PREDICTED BY IDOCK:   -6.46 KCAL/MOL
REMARK 923 INTER-LIGAND FREE ENERGY PREDICTED BY IDOCK:   -6.50 KCAL/MOL
REMARK 924 INTRA-LIGAND FREE ENERGY PREDICTED BY IDOCK:    0.05 KCAL/MOL
REMARK 927      BINDING AFFINITY PREDICTED BY RF-SCORE:    0.00 PKD
ROOT
HETATM    1  C   UNK A   0      -8.631  19.421  68.642  1.00  0.00    -0.394 C  
HETATM    2  C   UNK A   0      -9.665  18.500  67.983  1.00  0.00    -0.354 C  
HETATM    3  C   UNK A   0     -10.569  19.373  67.095  1.00  0.00    -0.596 C  
HETATM    4  C   UNK A   0      -9.012  17.337  67.174  1.00  0.00    -0.236 C  
HETATM    5  C   UNK A   0      -8.132  16.373  68.004  1.00  0.00    -0.159 C  
HETATM    6  C   UNK A   0      -8.915  15.380  68.877  1.00  0.00    -0.208 C  
HETATM    7  C   UNK A   0     -10.080  14.668  68.158  1.00  0.00    -0.224 C  
HETATM    8  C   UNK A   0     -10.926  15.684  67.385  1.00  0.00    -0.293 C  
HETATM    9  C   UNK A   0     -10.050  16.485  66.424  1.00  0.00    -0.323 C  
ENDROOT
BRANCH   7  10
HETATM   10  C   UNK A   0      -9.628  13.510  67.250  1.00  0.00    -0.235 C  
HETATM   11  O   UNK A   0      -8.455  13.212  67.060  1.00  0.00    -0.194 OA 
ATOM     12  N   PHE A   1     -10.663  12.795  66.686  1.00  0.00    -0.259 N  
ATOM     13  H   PHE A   1     -11.617  13.126  66.833  1.00  0.00     0.000 HD 
BRANCH  12  14
ATOM     14  CA  PHE A   1     -10.461  11.585  65.884  1.00  0.00    -0.255 C  
ATOM     15  OXT PHE A   1     -10.405  13.140  64.007  1.00  0.00    -0.396 OA 
ATOM     16  C   PHE A   1     -10.427  11.980  64.403  1.00  0.00    -0.312 C  
ATOM     17  O   PHE A   1     -10.486  10.935  63.543  1.00  0.00    -0.333 OA 
BRANCH  14  18
ATOM     18  CB  PHE A   1      -9.243  10.732  66.292  1.00  0.00    -0.195 C  
BRANCH  18  19
ATOM     19  CG  PHE A   1      -9.437   9.234  66.370  1.00  0.00    -0.277 A  
ATOM     20  CD1 PHE A   1      -8.485   8.373  65.811  1.00  0.00    -0.169 A  
ATOM     21  CE1 PHE A   1      -8.627   6.988  65.904  1.00  0.00    -0.152 A  
ATOM     22  CZ  PHE A   1      -9.718   6.443  66.575  1.00  0.00    -0.177 A  
ATOM     23  CE2 PHE A   1     -10.669   7.286  67.147  1.00  0.00    -0.413 A  
ATOM     24  CD2 PHE A   1     -10.534   8.674  67.042  1.00  0.00    -0.354 A  
ENDBRANCH  18  19
ENDBRANCH  14  18
ENDBRANCH  12  14
ENDBRANCH   7  10
TORSDOF 4
ENDMDL
MODEL      135
REMARK 921   NORMALIZED FREE ENERGY PREDICTED BY IDOCK:   -4.39 KCAL/MOL
REMARK 922        TOTAL FREE ENERGY PREDICTED BY IDOCK:   -6.44 KCAL/MOL
REMARK 923 INTER-LIGAND FREE ENERGY PREDICTED BY IDOCK:   -5.76 KCAL/MOL
REMARK 924 INTRA-LIGAND FREE ENERGY PREDICTED BY IDOCK:   -0.68 KCAL/MOL
REMARK 927      BINDING AFFINITY PREDICTED BY RF-SCORE:    0.00 PKD
ROOT
HETATM    1  C   UNK A   0     -10.043   5.760  69.327  1.00  0.00    -0.268 C  
HETATM    2  C   UNK A   0      -9.220   7.014  69.648  1.00  0.00    -0.146 C  
HETATM    3  C   UNK A   0      -7.879   6.554  70.243  1.00  0.00    -0.107 C  
HETATM    4  C   UNK A   0      -9.014   7.937  68.407  1.00  0.00    -0.133 C  
HETATM    5  C   UNK A   0     -10.313   8.496  67.780  1.00  0.00    -0.298 C  
HETATM    6  C   UNK A   0     -10.967   9.640  68.572  1.00  0.00    -0.153 C  
HETATM    7  C   UNK A   0      -9.994  10.744  69.032  1.00  0.00    -0.214 C  
HETATM    8  C   UNK A   0      -8.749  10.122  69.671  1.00  0.00    -0.176 C  
HETATM    9  C   UNK A   0      -8.095   9.133  68.708  1.00  0.00    -0.101 C  
ENDROOT
BRANCH   7  10
HETATM   10  C   UNK A   0      -9.616  11.736  67.917  1.00  0.00    -0.187 C  
HETATM   11  O   UNK A   0      -8.534  12.306  67.851  1.00  0.00    -0.146 OA 
ATOM     12  N   PHE A   1     -10.591  11.910  66.958  1.00  0.00    -0.220 N  
ATOM     13  H   PHE A   1     -11.494  11.454  67.097  1.00  0.00     0.000 HD 
BRANCH  12  14
ATOM     14  CA  PHE A   1     -10.396  12.717  65.751  1.00  0.00    -0.279 C  
ATOM     15  OXT PHE A   1     -10.728  10.600  64.586  1.00  0.00    -0.234 OA 
ATOM     16  C   PHE A   1     -10.422  11.787  64.531  1.00  0.00    -0.304 C  
ATOM     17  O   PHE A   1     -10.016  12.365  63.376  1.00  0.00    -0.398 OA 
BRANCH  14  18
ATOM     18  CB  PHE A   1     -11.365  13.906  65.601  1.00  0.00    -0.310 C  
BRANCH  18  19
ATOM     19  CG  PHE A   1     -10.991  15.199  66.292  1.00  0.00    -0.335 A  
ATOM     20  CD1 PHE A   1     -10.516  16.283  65.544  1.00  0.00    -0.383 A  
ATOM     21  CE1 PHE A   1     -10.201  17.496  66.158  1.00  0.00    -0.339 A  
ATOM     22  CZ  PHE A   1     -10.374  17.648  67.530  1.00  0.00    -0.365 A  
ATOM     23  CE2 PHE A   1     -10.856  16.583  68.288  1.00  0.00    -0.352 A  
ATOM     24  CD2 PHE A   1     -11.159  15.362  67.675  1.00  0.00    -0.316 A  
ENDBRANCH  18  19
ENDBRANCH  14  18
ENDBRANCH  12  14
ENDBRANCH   7  10
TORSDOF 4
ENDMDL
MODEL      136
REMARK 921   NORMALIZED FREE ENERGY PREDICTED BY IDOCK:   -4.37 KCAL/MOL
REMARK 922        TOTAL FREE ENERGY PREDICTED BY IDOCK:   -6.42 KCAL/MOL
REMARK 923 INTER-LIGAND FREE ENERGY PREDICTED BY IDOCK:   -6.70 KCAL/MOL
REMARK 924 INTRA-LIGAND FREE ENERGY PREDICTED BY IDOCK:    0.28 KCAL/MOL
REMARK 927      BINDING AFFINITY PREDICTED BY RF-SCORE:    0.00 PKD
ROOT
HETATM    1  C   UNK A   0      -9.767  10.438  63.894  1.00  0.00    -0.367 C  
HETATM    2  C   UNK A   0     -10.256  10.578  65.341  1.00  0.00    -0.340 C  
HETATM    3  C   UNK A   0      -9.866   9.293  66.093  1.00  0.00    -0.363 C  
HETATM    4  C   UNK A   0      -9.700  11.852  66.048  1.00  0.00    -0.257 C  
HETATM    5  C   UNK A   0     -10.096  13.195  65.391  1.00  0.00    -0.260 C  
HETATM    6  C   UNK A   0     -11.545  13.634  65.653  1.00  0.00    -0.342 C  
HETATM    7  C   UNK A   0     -11.996  13.524  67.123  1.00  0.00    -0.426 C  
HETATM    8  C   UNK A   0     -11.602  12.161  67.699  1.00  0.00    -0.413 C  
HETATM    9  C   UNK A   0     -10.102  11.927  67.531  1.00  0.00    -0.206 C  
ENDROOT
BRANCH   7  10
HETATM   10  C   UNK A   0     -11.489  14.676  68.012  1.00  0.00    -0.324 C  
HETATM   11  O   UNK A   0     -11.692  14.745  69.217  1.00  0.00    -0.284 OA 
ATOM     12  N   PHE A   1     -10.744  15.622  67.341  1.00  0.00    -0.306 N  
ATOM     13  H   PHE A   1     -10.658  15.543  66.328  1.00  0.00     0.000 HD 
BRANCH  12  14
ATOM     14  CA  PHE A   1     -10.069  16.737  68.013  1.00  0.00    -0.284 C  
ATOM     15  OXT PHE A   1      -8.135  15.252  67.987  1.00  0.00    -0.131 OA 
ATOM     16  C   PHE A   1      -8.642  16.301  68.369  1.00  0.00    -0.200 C  
ATOM     17  O   PHE A   1      -7.990  17.146  69.203  1.00  0.00    -0.179 OA 
BRANCH  14  18
ATOM     18  CB  PHE A   1     -10.099  18.072  67.244  1.00  0.00    -0.346 C  
BRANCH  18  19
ATOM     19  CG  PHE A   1      -8.770  18.716  66.914  1.00  0.00    -0.288 A  
ATOM     20  CD1 PHE A   1      -7.925  18.132  65.964  1.00  0.00    -0.150 A  
ATOM     21  CE1 PHE A   1      -6.711  18.728  65.619  1.00  0.00    -0.311 A  
ATOM     22  CZ  PHE A   1      -6.334  19.931  66.208  1.00  0.00    -0.196 A  
ATOM     23  CE2 PHE A   1      -7.170  20.532  67.148  1.00  0.00    -0.364 A  
ATOM     24  CD2 PHE A   1      -8.379  19.927  67.505  1.00  0.00    -0.366 A  
ENDBRANCH  18  19
ENDBRANCH  14  18
ENDBRANCH  12  14
ENDBRANCH   7  10
TORSDOF 4
ENDMDL
MODEL      137
REMARK 921   NORMALIZED FREE ENERGY PREDICTED BY IDOCK:   -4.35 KCAL/MOL
REMARK 922        TOTAL FREE ENERGY PREDICTED BY IDOCK:   -6.40 KCAL/MOL
REMARK 923 INTER-LIGAND FREE ENERGY PREDICTED BY IDOCK:   -5.77 KCAL/MOL
REMARK 924 INTRA-LIGAND FREE ENERGY PREDICTED BY IDOCK:   -0.62 KCAL/MOL
REMARK 927      BINDING AFFINITY PREDICTED BY RF-SCORE:    0.00 PKD
ROOT
HETATM    1  C   UNK A   0      -6.365  18.010  66.825  1.00  0.00    -0.213 C  
HETATM    2  C   UNK A   0      -7.894  17.900  66.888  1.00  0.00    -0.245 C  
HETATM    3  C   UNK A   0      -8.481  19.158  66.225  1.00  0.00    -0.311 C  
HETATM    4  C   UNK A   0      -8.435  16.594  66.227  1.00  0.00    -0.355 C  
HETATM    5  C   UNK A   0      -7.941  15.278  66.872  1.00  0.00    -0.194 C  
HETATM    6  C   UNK A   0      -8.612  14.927  68.209  1.00  0.00    -0.160 C  
HETATM    7  C   UNK A   0     -10.148  15.064  68.214  1.00  0.00    -0.222 C  
HETATM    8  C   UNK A   0     -10.564  16.401  67.593  1.00  0.00    -0.313 C  
HETATM    9  C   UNK A   0      -9.971  16.543  66.193  1.00  0.00    -0.363 C  
ENDROOT
BRANCH   7  10
HETATM   10  C   UNK A   0     -10.875  13.884  67.543  1.00  0.00    -0.266 C  
HETATM   11  O   UNK A   0     -12.008  13.955  67.084  1.00  0.00    -0.392 OA 
ATOM     12  N   PHE A   1     -10.126  12.729  67.463  1.00  0.00    -0.211 N  
ATOM     13  H   PHE A   1      -9.211  12.712  67.914  1.00  0.00     0.000 HD 
BRANCH  12  14
ATOM     14  CA  PHE A   1     -10.579  11.525  66.761  1.00  0.00    -0.250 C  
ATOM     15  OXT PHE A   1      -8.211  11.235  66.254  1.00  0.00    -0.169 OA 
ATOM     16  C   PHE A   1      -9.370  10.874  66.077  1.00  0.00    -0.190 C  
ATOM     17  O   PHE A   1      -9.684   9.891  65.199  1.00  0.00    -0.289 OA 
BRANCH  14  18
ATOM     18  CB  PHE A   1     -11.370  10.526  67.628  1.00  0.00    -0.233 C  
BRANCH  18  19
ATOM     19  CG  PHE A   1     -10.583   9.675  68.601  1.00  0.00    -0.246 A  
ATOM     20  CD1 PHE A   1     -10.176  10.208  69.830  1.00  0.00    -0.286 A  
ATOM     21  CE1 PHE A   1      -9.482   9.429  70.756  1.00  0.00    -0.307 A  
ATOM     22  CZ  PHE A   1      -9.200   8.096  70.473  1.00  0.00    -0.157 A  
ATOM     23  CE2 PHE A   1      -9.608   7.546  69.259  1.00  0.00    -0.158 A  
ATOM     24  CD2 PHE A   1     -10.291   8.331  68.325  1.00  0.00    -0.242 A  
ENDBRANCH  18  19
ENDBRANCH  14  18
ENDBRANCH  12  14
ENDBRANCH   7  10
TORSDOF 4
ENDMDL
MODEL      138
REMARK 921   NORMALIZED FREE ENERGY PREDICTED BY IDOCK:   -4.35 KCAL/MOL
REMARK 922        TOTAL FREE ENERGY PREDICTED BY IDOCK:   -6.39 KCAL/MOL
REMARK 923 INTER-LIGAND FREE ENERGY PREDICTED BY IDOCK:   -6.50 KCAL/MOL
REMARK 924 INTRA-LIGAND FREE ENERGY PREDICTED BY IDOCK:    0.11 KCAL/MOL
REMARK 927      BINDING AFFINITY PREDICTED BY RF-SCORE:    0.00 PKD
ROOT
HETATM    1  C   UNK A   0     -13.964  15.161  71.580  1.00  0.00    -0.614 C  
HETATM    2  C   UNK A   0     -12.571  15.738  71.299  1.00  0.00    -0.504 C  
HETATM    3  C   UNK A   0     -11.892  16.002  72.654  1.00  0.00    -0.611 C  
HETATM    4  C   UNK A   0     -11.705  14.814  70.389  1.00  0.00    -0.350 C  
HETATM    5  C   UNK A   0     -12.285  14.545  68.981  1.00  0.00    -0.215 C  
HETATM    6  C   UNK A   0     -12.144  15.714  67.995  1.00  0.00     0.301 C  
HETATM    7  C   UNK A   0     -10.744  16.361  67.958  1.00  0.00    -0.334 C  
HETATM    8  C   UNK A   0     -10.246  16.629  69.382  1.00  0.00    -0.251 C  
HETATM    9  C   UNK A   0     -10.272  15.343  70.204  1.00  0.00    -0.216 C  
ENDROOT
BRANCH   7  10
HETATM   10  C   UNK A   0      -9.714  15.555  67.146  1.00  0.00    -0.222 C  
HETATM   11  O   UNK A   0      -9.209  15.951  66.103  1.00  0.00    -0.299 OA 
ATOM     12  N   PHE A   1      -9.367  14.347  67.712  1.00  0.00    -0.195 N  
ATOM     13  H   PHE A   1      -9.863  14.043  68.550  1.00  0.00     0.000 HD 
BRANCH  12  14
ATOM     14  CA  PHE A   1      -8.321  13.475  67.168  1.00  0.00    -0.139 C  
ATOM     15  OXT PHE A   1      -7.262  13.813  69.338  1.00  0.00    -0.025 OA 
ATOM     16  C   PHE A   1      -7.189  13.369  68.198  1.00  0.00    -0.113 C  
ATOM     17  O   PHE A   1      -6.057  12.792  67.729  1.00  0.00    -0.102 OA 
BRANCH  14  18
ATOM     18  CB  PHE A   1      -8.810  12.094  66.690  1.00  0.00    -0.182 C  
BRANCH  18  19
ATOM     19  CG  PHE A   1      -9.994  12.063  65.749  1.00  0.00    -0.266 A  
ATOM     20  CD1 PHE A   1     -11.227  12.588  66.155  1.00  0.00    -0.362 A  
ATOM     21  CE1 PHE A   1     -12.322  12.602  65.290  1.00  0.00    -0.528 A  
ATOM     22  CZ  PHE A   1     -12.193  12.106  63.996  1.00  0.00    -0.544 A  
ATOM     23  CE2 PHE A   1     -10.970  11.591  63.572  1.00  0.00    -0.453 A  
ATOM     24  CD2 PHE A   1      -9.877  11.563  64.443  1.00  0.00    -0.277 A  
ENDBRANCH  18  19
ENDBRANCH  14  18
ENDBRANCH  12  14
ENDBRANCH   7  10
TORSDOF 4
ENDMDL
MODEL      139
REMARK 921   NORMALIZED FREE ENERGY PREDICTED BY IDOCK:   -4.33 KCAL/MOL
REMARK 922        TOTAL FREE ENERGY PREDICTED BY IDOCK:   -6.37 KCAL/MOL
REMARK 923 INTER-LIGAND FREE ENERGY PREDICTED BY IDOCK:   -5.65 KCAL/MOL
REMARK 924 INTRA-LIGAND FREE ENERGY PREDICTED BY IDOCK:   -0.72 KCAL/MOL
REMARK 927      BINDING AFFINITY PREDICTED BY RF-SCORE:    0.00 PKD
ROOT
HETATM    1  C   UNK A   0      -8.591  19.520  67.874  1.00  0.00    -0.357 C  
HETATM    2  C   UNK A   0      -9.583  18.422  67.469  1.00  0.00    -0.293 C  
HETATM    3  C   UNK A   0     -10.451  18.975  66.326  1.00  0.00    -0.534 C  
HETATM    4  C   UNK A   0      -8.880  17.089  67.067  1.00  0.00    -0.242 C  
HETATM    5  C   UNK A   0      -8.032  16.430  68.181  1.00  0.00    -0.160 C  
HETATM    6  C   UNK A   0      -8.847  15.718  69.271  1.00  0.00    -0.262 C  
HETATM    7  C   UNK A   0      -9.968  14.800  68.742  1.00  0.00    -0.234 C  
HETATM    8  C   UNK A   0     -10.786  15.526  67.669  1.00  0.00    -0.306 C  
HETATM    9  C   UNK A   0      -9.871  16.030  66.555  1.00  0.00    -0.284 C  
ENDROOT
BRANCH   7  10
HETATM   10  C   UNK A   0      -9.461  13.437  68.234  1.00  0.00    -0.209 C  
HETATM   11  O   UNK A   0      -8.381  12.954  68.547  1.00  0.00    -0.137 OA 
ATOM     12  N   PHE A   1     -10.348  12.773  67.414  1.00  0.00    -0.221 N  
ATOM     13  H   PHE A   1     -11.207  13.251  67.141  1.00  0.00     0.000 HD 
BRANCH  12  14
ATOM     14  CA  PHE A   1     -10.118  11.414  66.915  1.00  0.00    -0.214 C  
ATOM     15  OXT PHE A   1     -11.982  10.832  68.375  1.00  0.00    -0.508 OA 
ATOM     16  C   PHE A   1     -11.076  10.459  67.638  1.00  0.00    -0.293 C  
ATOM     17  O   PHE A   1     -10.806   9.145  67.448  1.00  0.00    -0.243 OA 
BRANCH  14  18
ATOM     18  CB  PHE A   1     -10.187  11.265  65.383  1.00  0.00    -0.323 C  
BRANCH  18  19
ATOM     19  CG  PHE A   1      -8.942  10.777  64.674  1.00  0.00    -0.191 A  
ATOM     20  CD1 PHE A   1      -8.985  10.474  63.309  1.00  0.00    -0.236 A  
ATOM     21  CE1 PHE A   1      -7.839  10.058  62.629  1.00  0.00    -0.138 A  
ATOM     22  CZ  PHE A   1      -6.627   9.957  63.304  1.00  0.00    -0.125 A  
ATOM     23  CE2 PHE A   1      -6.564  10.266  64.662  1.00  0.00    -0.092 A  
ATOM     24  CD2 PHE A   1      -7.715  10.669  65.346  1.00  0.00    -0.051 A  
ENDBRANCH  18  19
ENDBRANCH  14  18
ENDBRANCH  12  14
ENDBRANCH   7  10
TORSDOF 4
ENDMDL
MODEL      140
REMARK 921   NORMALIZED FREE ENERGY PREDICTED BY IDOCK:   -4.30 KCAL/MOL
REMARK 922        TOTAL FREE ENERGY PREDICTED BY IDOCK:   -6.34 KCAL/MOL
REMARK 923 INTER-LIGAND FREE ENERGY PREDICTED BY IDOCK:   -6.14 KCAL/MOL
REMARK 924 INTRA-LIGAND FREE ENERGY PREDICTED BY IDOCK:   -0.20 KCAL/MOL
REMARK 927      BINDING AFFINITY PREDICTED BY RF-SCORE:    0.00 PKD
ROOT
HETATM    1  C   UNK A   0     -11.485   6.001  72.127  1.00  0.00    -0.356 C  
HETATM    2  C   UNK A   0     -10.633   6.258  70.878  1.00  0.00    -0.293 C  
HETATM    3  C   UNK A   0     -10.532   4.935  70.100  1.00  0.00    -0.144 C  
HETATM    4  C   UNK A   0     -11.196   7.409  69.988  1.00  0.00    -0.200 C  
HETATM    5  C   UNK A   0     -11.275   8.793  70.675  1.00  0.00    -0.294 C  
HETATM    6  C   UNK A   0      -9.926   9.514  70.824  1.00  0.00    -0.334 C  
HETATM    7  C   UNK A   0      -9.054   9.519  69.552  1.00  0.00    -0.193 C  
HETATM    8  C   UNK A   0      -8.993   8.115  68.944  1.00  0.00    -0.141 C  
HETATM    9  C   UNK A   0     -10.402   7.587  68.683  1.00  0.00    -0.218 C  
ENDROOT
BRANCH   7  10
HETATM   10  C   UNK A   0      -9.494  10.563  68.508  1.00  0.00    -0.164 C  
HETATM   11  O   UNK A   0      -9.851  11.699  68.791  1.00  0.00    -0.193 OA 
ATOM     12  N   PHE A   1      -9.418  10.125  67.203  1.00  0.00    -0.156 N  
ATOM     13  H   PHE A   1      -9.170   9.151  67.032  1.00  0.00     0.000 HD 
BRANCH  12  14
ATOM     14  CA  PHE A   1      -9.676  10.991  66.049  1.00  0.00    -0.224 C  
ATOM     15  OXT PHE A   1      -9.104   9.008  64.751  1.00  0.00    -0.165 OA 
ATOM     16  C   PHE A   1      -9.362  10.207  64.769  1.00  0.00    -0.268 C  
ATOM     17  O   PHE A   1      -9.327  10.960  63.644  1.00  0.00    -0.224 OA 
BRANCH  14  18
ATOM     18  CB  PHE A   1     -11.080  11.627  66.016  1.00  0.00    -0.325 C  
BRANCH  18  19
ATOM     19  CG  PHE A   1     -11.182  13.065  65.555  1.00  0.00    -0.315 A  
ATOM     20  CD1 PHE A   1     -10.150  13.967  65.839  1.00  0.00    -0.336 A  
ATOM     21  CE1 PHE A   1     -10.207  15.288  65.392  1.00  0.00    -0.414 A  
ATOM     22  CZ  PHE A   1     -11.293  15.721  64.636  1.00  0.00    -0.343 A  
ATOM     23  CE2 PHE A   1     -12.323  14.832  64.335  1.00  0.00    -0.389 A  
ATOM     24  CD2 PHE A   1     -12.273  13.513  64.795  1.00  0.00    -0.450 A  
ENDBRANCH  18  19
ENDBRANCH  14  18
ENDBRANCH  12  14
ENDBRANCH   7  10
TORSDOF 4
ENDMDL
MODEL      141
REMARK 921   NORMALIZED FREE ENERGY PREDICTED BY IDOCK:   -4.28 KCAL/MOL
REMARK 922        TOTAL FREE ENERGY PREDICTED BY IDOCK:   -6.31 KCAL/MOL
REMARK 923 INTER-LIGAND FREE ENERGY PREDICTED BY IDOCK:   -5.80 KCAL/MOL
REMARK 924 INTRA-LIGAND FREE ENERGY PREDICTED BY IDOCK:   -0.51 KCAL/MOL
REMARK 927      BINDING AFFINITY PREDICTED BY RF-SCORE:    0.00 PKD
ROOT
HETATM    1  C   UNK A   0      -9.549   4.194  66.249  1.00  0.00    -0.209 C  
HETATM    2  C   UNK A   0      -9.740   4.833  67.630  1.00  0.00    -0.202 C  
HETATM    3  C   UNK A   0      -9.359   3.783  68.688  1.00  0.00    -0.226 C  
HETATM    4  C   UNK A   0      -8.925   6.151  67.806  1.00  0.00    -0.115 C  
HETATM    5  C   UNK A   0      -9.288   7.285  66.819  1.00  0.00    -0.203 C  
HETATM    6  C   UNK A   0     -10.606   8.012  67.133  1.00  0.00    -0.367 C  
HETATM    7  C   UNK A   0     -10.783   8.416  68.610  1.00  0.00    -0.075 C  
HETATM    8  C   UNK A   0     -10.440   7.238  69.528  1.00  0.00    -0.238 C  
HETATM    9  C   UNK A   0      -9.033   6.726  69.229  1.00  0.00    -0.137 C  
ENDROOT
BRANCH   7  10
HETATM   10  C   UNK A   0      -9.997   9.680  69.002  1.00  0.00    -0.185 C  
HETATM   11  O   UNK A   0      -9.308   9.768  70.011  1.00  0.00    -0.225 OA 
ATOM     12  N   PHE A   1     -10.098  10.714  68.095  1.00  0.00    -0.155 N  
ATOM     13  H   PHE A   1     -10.732  10.604  67.304  1.00  0.00     0.000 HD 
BRANCH  12  14
ATOM     14  CA  PHE A   1      -9.339  11.963  68.213  1.00  0.00    -0.193 C  
ATOM     15  OXT PHE A   1      -8.261  11.207  66.161  1.00  0.00    -0.169 OA 
ATOM     16  C   PHE A   1      -8.302  12.012  67.084  1.00  0.00    -0.181 C  
ATOM     17  O   PHE A   1      -7.378  12.993  67.215  1.00  0.00    -0.138 OA 
BRANCH  14  18
ATOM     18  CB  PHE A   1     -10.199  13.241  68.276  1.00  0.00    -0.250 C  
BRANCH  18  19
ATOM     19  CG  PHE A   1     -10.871  13.691  66.997  1.00  0.00    -0.291 A  
ATOM     20  CD1 PHE A   1     -10.321  14.735  66.245  1.00  0.00    -0.305 A  
ATOM     21  CE1 PHE A   1     -10.905  15.141  65.045  1.00  0.00    -0.457 A  
ATOM     22  CZ  PHE A   1     -12.041  14.492  64.569  1.00  0.00    -0.501 A  
ATOM     23  CE2 PHE A   1     -12.595  13.443  65.300  1.00  0.00    -0.518 A  
ATOM     24  CD2 PHE A   1     -12.018  13.046  66.510  1.00  0.00    -0.457 A  
ENDBRANCH  18  19
ENDBRANCH  14  18
ENDBRANCH  12  14
ENDBRANCH   7  10
TORSDOF 4
ENDMDL
MODEL      142
REMARK 921   NORMALIZED FREE ENERGY PREDICTED BY IDOCK:   -4.26 KCAL/MOL
REMARK 922        TOTAL FREE ENERGY PREDICTED BY IDOCK:   -6.28 KCAL/MOL
REMARK 923 INTER-LIGAND FREE ENERGY PREDICTED BY IDOCK:   -6.35 KCAL/MOL
REMARK 924 INTRA-LIGAND FREE ENERGY PREDICTED BY IDOCK:    0.07 KCAL/MOL
REMARK 927      BINDING AFFINITY PREDICTED BY RF-SCORE:    0.00 PKD
ROOT
HETATM    1  C   UNK A   0      -9.286   7.230  69.202  1.00  0.00    -0.139 C  
HETATM    2  C   UNK A   0      -9.702   7.811  67.844  1.00  0.00    -0.181 C  
HETATM    3  C   UNK A   0     -10.509   6.732  67.102  1.00  0.00    -0.364 C  
HETATM    4  C   UNK A   0     -10.503   9.143  67.975  1.00  0.00    -0.276 C  
HETATM    5  C   UNK A   0      -9.742  10.304  68.657  1.00  0.00    -0.171 C  
HETATM    6  C   UNK A   0      -8.681  10.982  67.776  1.00  0.00    -0.130 C  
HETATM    7  C   UNK A   0      -9.153  11.325  66.348  1.00  0.00    -0.201 C  
HETATM    8  C   UNK A   0      -9.867  10.123  65.722  1.00  0.00    -0.331 C  
HETATM    9  C   UNK A   0     -11.013   9.660  66.619  1.00  0.00     0.147 C  
ENDROOT
BRANCH   7  10
HETATM   10  C   UNK A   0     -10.022  12.594  66.275  1.00  0.00    -0.258 C  
HETATM   11  O   UNK A   0     -10.730  12.989  67.193  1.00  0.00    -0.251 OA 
ATOM     12  N   PHE A   1      -9.913  13.287  65.088  1.00  0.00    -0.518 N  
ATOM     13  H   PHE A   1      -9.354  12.879  64.338  1.00  0.00     0.000 HD 
BRANCH  12  14
ATOM     14  CA  PHE A   1     -10.560  14.580  64.850  1.00  0.00    -0.427 C  
ATOM     15  OXT PHE A   1     -12.554  13.228  64.471  1.00  0.00    -0.599 OA 
ATOM     16  C   PHE A   1     -12.015  14.329  64.434  1.00  0.00    -0.456 C  
ATOM     17  O   PHE A   1     -12.657  15.421  63.953  1.00  0.00    -0.725 OA 
BRANCH  14  18
ATOM     18  CB  PHE A   1     -10.449  15.586  66.013  1.00  0.00    -0.335 C  
BRANCH  18  19
ATOM     19  CG  PHE A   1      -9.078  16.149  66.317  1.00  0.00    -0.373 A  
ATOM     20  CD1 PHE A   1      -8.696  17.389  65.791  1.00  0.00     0.233 A  
ATOM     21  CE1 PHE A   1      -7.451  17.942  66.089  1.00  0.00    -0.315 A  
ATOM     22  CZ  PHE A   1      -6.574  17.270  66.935  1.00  0.00    -0.229 A  
ATOM     23  CE2 PHE A   1      -6.943  16.040  67.477  1.00  0.00    -0.205 A  
ATOM     24  CD2 PHE A   1      -8.186  15.478  67.167  1.00  0.00    -0.246 A  
ENDBRANCH  18  19
ENDBRANCH  14  18
ENDBRANCH  12  14
ENDBRANCH   7  10
TORSDOF 4
ENDMDL
MODEL      143
REMARK 921   NORMALIZED FREE ENERGY PREDICTED BY IDOCK:   -4.26 KCAL/MOL
REMARK 922        TOTAL FREE ENERGY PREDICTED BY IDOCK:   -6.28 KCAL/MOL
REMARK 923 INTER-LIGAND FREE ENERGY PREDICTED BY IDOCK:   -6.60 KCAL/MOL
REMARK 924 INTRA-LIGAND FREE ENERGY PREDICTED BY IDOCK:    0.32 KCAL/MOL
REMARK 927      BINDING AFFINITY PREDICTED BY RF-SCORE:    0.00 PKD
ROOT
HETATM    1  C   UNK A   0      -9.115  19.875  68.381  1.00  0.00    -0.280 C  
HETATM    2  C   UNK A   0      -8.521  18.505  68.031  1.00  0.00    -0.302 C  
HETATM    3  C   UNK A   0      -7.310  18.271  68.952  1.00  0.00    -0.268 C  
HETATM    4  C   UNK A   0      -9.561  17.347  68.140  1.00  0.00    -0.287 C  
HETATM    5  C   UNK A   0     -10.784  17.472  67.202  1.00  0.00    -0.191 C  
HETATM    6  C   UNK A   0     -10.501  17.131  65.731  1.00  0.00    -0.242 C  
HETATM    7  C   UNK A   0      -9.701  15.831  65.512  1.00  0.00    -0.255 C  
HETATM    8  C   UNK A   0      -8.489  15.790  66.448  1.00  0.00    -0.313 C  
HETATM    9  C   UNK A   0      -8.932  15.964  67.899  1.00  0.00    -0.181 C  
ENDROOT
BRANCH   7  10
HETATM   10  C   UNK A   0     -10.552  14.554  65.641  1.00  0.00    -0.332 C  
HETATM   11  O   UNK A   0     -11.566  14.344  64.987  1.00  0.00    -0.343 OA 
ATOM     12  N   PHE A   1     -10.057  13.632  66.537  1.00  0.00    -0.279 N  
ATOM     13  H   PHE A   1      -9.242  13.887  67.096  1.00  0.00     0.000 HD 
BRANCH  12  14
ATOM     14  CA  PHE A   1     -10.645  12.303  66.729  1.00  0.00    -0.224 C  
ATOM     15  OXT PHE A   1     -12.157  13.466  68.247  1.00  0.00    -0.343 OA 
ATOM     16  C   PHE A   1     -11.750  12.405  67.788  1.00  0.00    -0.350 C  
ATOM     17  O   PHE A   1     -12.210  11.211  68.234  1.00  0.00    -0.613 OA 
BRANCH  14  18
ATOM     18  CB  PHE A   1     -11.132  11.616  65.438  1.00  0.00    -0.299 C  
BRANCH  18  19
ATOM     19  CG  PHE A   1     -10.093  10.918  64.587  1.00  0.00    -0.391 A  
ATOM     20  CD1 PHE A   1      -9.051  10.208  65.194  1.00  0.00    -0.242 A  
ATOM     21  CE1 PHE A   1      -8.105   9.527  64.427  1.00  0.00    -0.141 A  
ATOM     22  CZ  PHE A   1      -8.199   9.531  63.039  1.00  0.00    -0.161 A  
ATOM     23  CE2 PHE A   1      -9.237  10.224  62.419  1.00  0.00    -0.311 A  
ATOM     24  CD2 PHE A   1     -10.177  10.918  63.186  1.00  0.00    -0.253 A  
ENDBRANCH  18  19
ENDBRANCH  14  18
ENDBRANCH  12  14
ENDBRANCH   7  10
TORSDOF 4
ENDMDL
MODEL      144
REMARK 921   NORMALIZED FREE ENERGY PREDICTED BY IDOCK:   -4.24 KCAL/MOL
REMARK 922        TOTAL FREE ENERGY PREDICTED BY IDOCK:   -6.26 KCAL/MOL
REMARK 923 INTER-LIGAND FREE ENERGY PREDICTED BY IDOCK:   -4.95 KCAL/MOL
REMARK 924 INTRA-LIGAND FREE ENERGY PREDICTED BY IDOCK:   -1.31 KCAL/MOL
REMARK 927      BINDING AFFINITY PREDICTED BY RF-SCORE:    0.00 PKD
ROOT
HETATM    1  C   UNK A   0     -13.158  11.117  71.768  1.00  0.00    -0.536 C  
HETATM    2  C   UNK A   0     -12.302  10.298  70.795  1.00  0.00    -0.445 C  
HETATM    3  C   UNK A   0     -11.556  11.287  69.881  1.00  0.00    -0.413 C  
HETATM    4  C   UNK A   0     -11.317   9.330  71.521  1.00  0.00    -0.455 C  
HETATM    5  C   UNK A   0     -11.987   8.261  72.416  1.00  0.00    -0.447 C  
HETATM    6  C   UNK A   0     -12.631   7.095  71.650  1.00  0.00    -0.410 C  
HETATM    7  C   UNK A   0     -11.749   6.488  70.540  1.00  0.00    -0.438 C  
HETATM    8  C   UNK A   0     -11.146   7.598  69.675  1.00  0.00    -0.074 C  
HETATM    9  C   UNK A   0     -10.384   8.595  70.545  1.00  0.00    -0.234 C  
ENDROOT
BRANCH   7  10
HETATM   10  C   UNK A   0     -10.661   5.536  71.069  1.00  0.00    -0.230 C  
HETATM   11  O   UNK A   0     -10.535   5.234  72.249  1.00  0.00    -0.205 OA 
ATOM     12  N   PHE A   1      -9.845   5.009  70.091  1.00  0.00    -0.212 N  
ATOM     13  H   PHE A   1      -9.959   5.342  69.133  1.00  0.00     0.000 HD 
BRANCH  12  14
ATOM     14  CA  PHE A   1      -8.822   3.994  70.358  1.00  0.00    -0.083 C  
ATOM     15  OXT PHE A   1      -9.317   3.257  68.088  1.00  0.00    -0.175 OA 
ATOM     16  C   PHE A   1      -8.734   3.057  69.148  1.00  0.00    -0.083 C  
ATOM     17  O   PHE A   1      -8.002   1.936  69.358  1.00  0.00    -0.045 OA 
BRANCH  14  18
ATOM     18  CB  PHE A   1      -7.444   4.553  70.767  1.00  0.00    -0.052 C  
BRANCH  18  19
ATOM     19  CG  PHE A   1      -7.205   6.033  70.560  1.00  0.00    -0.083 A  
ATOM     20  CD1 PHE A   1      -7.059   6.546  69.265  1.00  0.00    -0.084 A  
ATOM     21  CE1 PHE A   1      -6.874   7.912  69.051  1.00  0.00    -0.057 A  
ATOM     22  CZ  PHE A   1      -6.851   8.790  70.130  1.00  0.00    -0.040 A  
ATOM     23  CE2 PHE A   1      -7.007   8.298  71.425  1.00  0.00    -0.065 A  
ATOM     24  CD2 PHE A   1      -7.178   6.926  71.641  1.00  0.00    -0.079 A  
ENDBRANCH  18  19
ENDBRANCH  14  18
ENDBRANCH  12  14
ENDBRANCH   7  10
TORSDOF 4
ENDMDL
MODEL      145
REMARK 921   NORMALIZED FREE ENERGY PREDICTED BY IDOCK:   -4.23 KCAL/MOL
REMARK 922        TOTAL FREE ENERGY PREDICTED BY IDOCK:   -6.24 KCAL/MOL
REMARK 923 INTER-LIGAND FREE ENERGY PREDICTED BY IDOCK:   -5.74 KCAL/MOL
REMARK 924 INTRA-LIGAND FREE ENERGY PREDICTED BY IDOCK:   -0.50 KCAL/MOL
REMARK 927      BINDING AFFINITY PREDICTED BY RF-SCORE:    0.00 PKD
ROOT
HETATM    1  C   UNK A   0      -7.470   5.387  69.212  1.00  0.00    -0.073 C  
HETATM    2  C   UNK A   0      -8.420   5.956  68.152  1.00  0.00    -0.114 C  
HETATM    3  C   UNK A   0      -8.987   4.773  67.348  1.00  0.00    -0.115 C  
HETATM    4  C   UNK A   0      -9.555   6.835  68.763  1.00  0.00    -0.132 C  
HETATM    5  C   UNK A   0      -9.074   8.083  69.539  1.00  0.00    -0.152 C  
HETATM    6  C   UNK A   0      -8.599   9.245  68.654  1.00  0.00    -0.127 C  
HETATM    7  C   UNK A   0      -9.539   9.587  67.480  1.00  0.00    -0.176 C  
HETATM    8  C   UNK A   0      -9.948   8.311  66.738  1.00  0.00    -0.355 C  
HETATM    9  C   UNK A   0     -10.568   7.309  67.708  1.00  0.00    -0.289 C  
ENDROOT
BRANCH   7  10
HETATM   10  C   UNK A   0     -10.770  10.413  67.897  1.00  0.00    -0.261 C  
HETATM   11  O   UNK A   0     -11.660  10.745  67.123  1.00  0.00    -0.385 OA 
ATOM     12  N   PHE A   1     -10.816  10.723  69.239  1.00  0.00    -0.227 N  
ATOM     13  H   PHE A   1     -10.018  10.471  69.823  1.00  0.00     0.000 HD 
BRANCH  12  14
ATOM     14  CA  PHE A   1     -11.954  11.400  69.869  1.00  0.00    -0.359 C  
ATOM     15  OXT PHE A   1     -11.498   9.891  71.729  1.00  0.00    -0.265 OA 
ATOM     16  C   PHE A   1     -12.231  10.732  71.221  1.00  0.00    -0.321 C  
ATOM     17  O   PHE A   1     -13.401  11.099  71.798  1.00  0.00    -0.384 OA 
BRANCH  14  18
ATOM     18  CB  PHE A   1     -11.814  12.930  69.989  1.00  0.00    -0.356 C  
BRANCH  18  19
ATOM     19  CG  PHE A   1     -11.181  13.664  68.827  1.00  0.00    -0.314 A  
ATOM     20  CD1 PHE A   1     -11.934  13.945  67.680  1.00  0.00    -0.403 A  
ATOM     21  CE1 PHE A   1     -11.380  14.652  66.613  1.00  0.00    -0.358 A  
ATOM     22  CZ  PHE A   1     -10.066  15.107  66.685  1.00  0.00    -0.271 A  
ATOM     23  CE2 PHE A   1      -9.306  14.846  67.824  1.00  0.00    -0.194 A  
ATOM     24  CD2 PHE A   1      -9.857  14.124  68.888  1.00  0.00    -0.110 A  
ENDBRANCH  18  19
ENDBRANCH  14  18
ENDBRANCH  12  14
ENDBRANCH   7  10
TORSDOF 4
ENDMDL
MODEL      146
REMARK 921   NORMALIZED FREE ENERGY PREDICTED BY IDOCK:   -4.23 KCAL/MOL
REMARK 922        TOTAL FREE ENERGY PREDICTED BY IDOCK:   -6.24 KCAL/MOL
REMARK 923 INTER-LIGAND FREE ENERGY PREDICTED BY IDOCK:   -5.34 KCAL/MOL
REMARK 924 INTRA-LIGAND FREE ENERGY PREDICTED BY IDOCK:   -0.90 KCAL/MOL
REMARK 927      BINDING AFFINITY PREDICTED BY RF-SCORE:    0.00 PKD
ROOT
HETATM    1  C   UNK A   0      -8.815  10.020  64.705  1.00  0.00    -0.222 C  
HETATM    2  C   UNK A   0      -8.365   9.641  66.122  1.00  0.00    -0.122 C  
HETATM    3  C   UNK A   0      -7.551  10.819  66.684  1.00  0.00    -0.134 C  
HETATM    4  C   UNK A   0      -9.556   9.265  67.056  1.00  0.00    -0.223 C  
HETATM    5  C   UNK A   0     -10.394   8.049  66.595  1.00  0.00    -0.273 C  
HETATM    6  C   UNK A   0      -9.728   6.684  66.830  1.00  0.00    -0.209 C  
HETATM    7  C   UNK A   0      -9.114   6.500  68.233  1.00  0.00    -0.119 C  
HETATM    8  C   UNK A   0      -8.273   7.723  68.610  1.00  0.00    -0.128 C  
HETATM    9  C   UNK A   0      -9.110   8.996  68.503  1.00  0.00    -0.133 C  
ENDROOT
BRANCH   7  10
HETATM   10  C   UNK A   0     -10.153   6.176  69.323  1.00  0.00    -0.174 C  
HETATM   11  O   UNK A   0     -11.361   6.141  69.122  1.00  0.00    -0.399 OA 
ATOM     12  N   PHE A   1      -9.609   5.888  70.556  1.00  0.00    -0.170 N  
ATOM     13  H   PHE A   1      -8.601   5.991  70.678  1.00  0.00     0.000 HD 
BRANCH  12  14
ATOM     14  CA  PHE A   1     -10.407   5.441  71.702  1.00  0.00    -0.218 C  
ATOM     15  OXT PHE A   1      -8.499   3.988  72.144  1.00  0.00    -0.100 OA 
ATOM     16  C   PHE A   1      -9.650   4.314  72.415  1.00  0.00    -0.141 C  
ATOM     17  O   PHE A   1     -10.379   3.650  73.343  1.00  0.00    -0.137 OA 
BRANCH  14  18
ATOM     18  CB  PHE A   1     -10.838   6.561  72.669  1.00  0.00    -0.278 C  
BRANCH  18  19
ATOM     19  CG  PHE A   1     -11.898   7.527  72.187  1.00  0.00    -0.338 A  
ATOM     20  CD1 PHE A   1     -13.211   7.086  71.988  1.00  0.00    -0.154 A  
ATOM     21  CE1 PHE A   1     -14.212   7.969  71.579  1.00  0.00    -0.513 A  
ATOM     22  CZ  PHE A   1     -13.915   9.314  71.380  1.00  0.00    -0.212 A  
ATOM     23  CE2 PHE A   1     -12.615   9.772  71.584  1.00  0.00    -0.509 A  
ATOM     24  CD2 PHE A   1     -11.609   8.885  71.980  1.00  0.00    -0.435 A  
ENDBRANCH  18  19
ENDBRANCH  14  18
ENDBRANCH  12  14
ENDBRANCH   7  10
TORSDOF 4
ENDMDL
MODEL      147
REMARK 921   NORMALIZED FREE ENERGY PREDICTED BY IDOCK:   -4.21 KCAL/MOL
REMARK 922        TOTAL FREE ENERGY PREDICTED BY IDOCK:   -6.22 KCAL/MOL
REMARK 923 INTER-LIGAND FREE ENERGY PREDICTED BY IDOCK:   -5.84 KCAL/MOL
REMARK 924 INTRA-LIGAND FREE ENERGY PREDICTED BY IDOCK:   -0.39 KCAL/MOL
REMARK 927      BINDING AFFINITY PREDICTED BY RF-SCORE:    0.00 PKD
ROOT
HETATM    1  C   UNK A   0      -9.472   6.337  69.241  1.00  0.00    -0.142 C  
HETATM    2  C   UNK A   0      -9.243   7.538  68.315  1.00  0.00    -0.138 C  
HETATM    3  C   UNK A   0      -8.776   6.997  66.953  1.00  0.00    -0.122 C  
HETATM    4  C   UNK A   0     -10.506   8.444  68.174  1.00  0.00    -0.228 C  
HETATM    5  C   UNK A   0     -11.009   9.080  69.490  1.00  0.00    -0.118 C  
HETATM    6  C   UNK A   0     -10.169  10.264  69.994  1.00  0.00    -0.214 C  
HETATM    7  C   UNK A   0      -9.813  11.307  68.915  1.00  0.00    -0.153 C  
HETATM    8  C   UNK A   0      -9.292  10.611  67.654  1.00  0.00    -0.156 C  
HETATM    9  C   UNK A   0     -10.305   9.581  67.158  1.00  0.00    -0.320 C  
ENDROOT
BRANCH   7  10
HETATM   10  C   UNK A   0     -10.968  12.271  68.586  1.00  0.00    -0.239 C  
HETATM   11  O   UNK A   0     -11.789  12.072  67.699  1.00  0.00    -0.512 OA 
ATOM     12  N   PHE A   1     -11.032  13.378  69.405  1.00  0.00    -0.440 N  
ATOM     13  H   PHE A   1     -10.288  13.520  70.087  1.00  0.00     0.000 HD 
BRANCH  12  14
ATOM     14  CA  PHE A   1     -12.118  14.362  69.342  1.00  0.00    -0.297 C  
ATOM     15  OXT PHE A   1     -11.991  14.282  71.776  1.00  0.00    -0.247 OA 
ATOM     16  C   PHE A   1     -12.574  14.677  70.772  1.00  0.00    -0.350 C  
ATOM     17  O   PHE A   1     -13.726  15.386  70.849  1.00  0.00    -0.432 OA 
BRANCH  14  18
ATOM     18  CB  PHE A   1     -11.794  15.635  68.536  1.00  0.00    -0.252 C  
BRANCH  18  19
ATOM     19  CG  PHE A   1     -10.346  15.878  68.172  1.00  0.00    -0.256 A  
ATOM     20  CD1 PHE A   1      -9.513  16.589  69.043  1.00  0.00    -0.249 A  
ATOM     21  CE1 PHE A   1      -8.166  16.793  68.743  1.00  0.00    -0.250 A  
ATOM     22  CZ  PHE A   1      -7.627  16.271  67.571  1.00  0.00    -0.170 A  
ATOM     23  CE2 PHE A   1      -8.439  15.550  66.697  1.00  0.00    -0.314 A  
ATOM     24  CD2 PHE A   1      -9.793  15.359  66.992  1.00  0.00    -0.236 A  
ENDBRANCH  18  19
ENDBRANCH  14  18
ENDBRANCH  12  14
ENDBRANCH   7  10
TORSDOF 4
ENDMDL
MODEL      148
REMARK 921   NORMALIZED FREE ENERGY PREDICTED BY IDOCK:   -4.20 KCAL/MOL
REMARK 922        TOTAL FREE ENERGY PREDICTED BY IDOCK:   -6.21 KCAL/MOL
REMARK 923 INTER-LIGAND FREE ENERGY PREDICTED BY IDOCK:   -6.34 KCAL/MOL
REMARK 924 INTRA-LIGAND FREE ENERGY PREDICTED BY IDOCK:    0.13 KCAL/MOL
REMARK 927      BINDING AFFINITY PREDICTED BY RF-SCORE:    0.00 PKD
ROOT
HETATM    1  C   UNK A   0      -9.854   9.873  68.494  1.00  0.00    -0.168 C  
HETATM    2  C   UNK A   0     -10.818  11.062  68.402  1.00  0.00    -0.264 C  
HETATM    3  C   UNK A   0     -11.761  10.994  69.616  1.00  0.00    -0.401 C  
HETATM    4  C   UNK A   0     -10.082  12.434  68.318  1.00  0.00    -0.227 C  
HETATM    5  C   UNK A   0      -9.157  12.611  67.091  1.00  0.00    -0.210 C  
HETATM    6  C   UNK A   0      -9.891  12.880  65.768  1.00  0.00    -0.216 C  
HETATM    7  C   UNK A   0     -10.997  13.951  65.851  1.00  0.00    -0.284 C  
HETATM    8  C   UNK A   0     -11.893  13.696  67.067  1.00  0.00    -0.448 C  
HETATM    9  C   UNK A   0     -11.052  13.627  68.340  1.00  0.00    -0.289 C  
ENDROOT
BRANCH   7  10
HETATM   10  C   UNK A   0     -10.460  15.394  65.843  1.00  0.00    -0.340 C  
HETATM   11  O   UNK A   0     -10.848  16.260  65.069  1.00  0.00    -0.558 OA 
ATOM     12  N   PHE A   1      -9.518  15.653  66.815  1.00  0.00    -0.230 N  
ATOM     13  H   PHE A   1      -9.191  14.877  67.392  1.00  0.00     0.000 HD 
BRANCH  12  14
ATOM     14  CA  PHE A   1      -8.961  16.987  67.060  1.00  0.00    -0.221 C  
ATOM     15  OXT PHE A   1     -10.024  16.754  69.242  1.00  0.00    -0.258 OA 
ATOM     16  C   PHE A   1      -9.429  17.465  68.440  1.00  0.00    -0.293 C  
ATOM     17  O   PHE A   1      -9.188  18.774  68.691  1.00  0.00    -0.342 OA 
BRANCH  14  18
ATOM     18  CB  PHE A   1      -7.433  17.095  66.889  1.00  0.00    -0.239 C  
BRANCH  18  19
ATOM     19  CG  PHE A   1      -6.906  18.236  66.047  1.00  0.00    -0.311 A  
ATOM     20  CD1 PHE A   1      -7.679  19.388  65.865  1.00  0.00    -0.264 A  
ATOM     21  CE1 PHE A   1      -7.197  20.467  65.122  1.00  0.00    -0.045 A  
ATOM     22  CZ  PHE A   1      -5.923  20.414  64.565  1.00  0.00    -0.316 A  
ATOM     23  CE2 PHE A   1      -5.135  19.279  64.746  1.00  0.00    -0.205 A  
ATOM     24  CD2 PHE A   1      -5.624  18.192  65.479  1.00  0.00    -0.211 A  
ENDBRANCH  18  19
ENDBRANCH  14  18
ENDBRANCH  12  14
ENDBRANCH   7  10
TORSDOF 4
ENDMDL
MODEL      149
REMARK 921   NORMALIZED FREE ENERGY PREDICTED BY IDOCK:   -4.19 KCAL/MOL
REMARK 922        TOTAL FREE ENERGY PREDICTED BY IDOCK:   -6.19 KCAL/MOL
REMARK 923 INTER-LIGAND FREE ENERGY PREDICTED BY IDOCK:   -6.06 KCAL/MOL
REMARK 924 INTRA-LIGAND FREE ENERGY PREDICTED BY IDOCK:   -0.13 KCAL/MOL
REMARK 927      BINDING AFFINITY PREDICTED BY RF-SCORE:    0.00 PKD
ROOT
HETATM    1  C   UNK A   0      -7.191   7.503  68.942  1.00  0.00    -0.082 C  
HETATM    2  C   UNK A   0      -8.269   8.589  69.046  1.00  0.00    -0.116 C  
HETATM    3  C   UNK A   0      -8.408   8.969  70.531  1.00  0.00    -0.205 C  
HETATM    4  C   UNK A   0      -7.963   9.833  68.158  1.00  0.00    -0.100 C  
HETATM    5  C   UNK A   0      -7.866   9.550  66.640  1.00  0.00    -0.101 C  
HETATM    6  C   UNK A   0      -9.217   9.335  65.940  1.00  0.00    -0.277 C  
HETATM    7  C   UNK A   0     -10.300  10.374  66.294  1.00  0.00    -0.270 C  
HETATM    8  C   UNK A   0     -10.363  10.580  67.811  1.00  0.00    -0.248 C  
HETATM    9  C   UNK A   0      -8.988  10.964  68.352  1.00  0.00    -0.154 C  
ENDROOT
BRANCH   7  10
HETATM   10  C   UNK A   0     -10.133  11.714  65.553  1.00  0.00    -0.246 C  
HETATM   11  O   UNK A   0      -9.631  11.818  64.441  1.00  0.00    -0.175 OA 
ATOM     12  N   PHE A   1     -10.636  12.803  66.232  1.00  0.00    -0.254 N  
ATOM     13  H   PHE A   1     -10.990  12.663  67.179  1.00  0.00     0.000 HD 
BRANCH  12  14
ATOM     14  CA  PHE A   1     -10.687  14.152  65.661  1.00  0.00    -0.313 C  
ATOM     15  OXT PHE A   1     -12.925  13.495  64.952  1.00  0.00    -0.708 OA 
ATOM     16  C   PHE A   1     -12.015  14.316  64.912  1.00  0.00    -0.425 C  
ATOM     17  O   PHE A   1     -12.089  15.425  64.138  1.00  0.00    -0.563 OA 
BRANCH  14  18
ATOM     18  CB  PHE A   1     -10.438  15.293  66.668  1.00  0.00    -0.290 C  
BRANCH  18  19
ATOM     19  CG  PHE A   1     -11.133  15.202  68.008  1.00  0.00    -0.310 A  
ATOM     20  CD1 PHE A   1     -11.391  16.365  68.745  1.00  0.00    -0.277 A  
ATOM     21  CE1 PHE A   1     -12.064  16.306  69.966  1.00  0.00     0.225 A  
ATOM     22  CZ  PHE A   1     -12.506  15.083  70.460  1.00  0.00    -0.425 A  
ATOM     23  CE2 PHE A   1     -12.269  13.917  69.734  1.00  0.00    -0.388 A  
ATOM     24  CD2 PHE A   1     -11.581  13.974  68.517  1.00  0.00    -0.357 A  
ENDBRANCH  18  19
ENDBRANCH  14  18
ENDBRANCH  12  14
ENDBRANCH   7  10
TORSDOF 4
ENDMDL
MODEL      150
REMARK 921   NORMALIZED FREE ENERGY PREDICTED BY IDOCK:   -4.17 KCAL/MOL
REMARK 922        TOTAL FREE ENERGY PREDICTED BY IDOCK:   -6.17 KCAL/MOL
REMARK 923 INTER-LIGAND FREE ENERGY PREDICTED BY IDOCK:   -6.58 KCAL/MOL
REMARK 924 INTRA-LIGAND FREE ENERGY PREDICTED BY IDOCK:    0.41 KCAL/MOL
REMARK 927      BINDING AFFINITY PREDICTED BY RF-SCORE:    0.00 PKD
ROOT
HETATM    1  C   UNK A   0      -8.627  18.282  68.446  1.00  0.00    -0.315 C  
HETATM    2  C   UNK A   0      -9.019  17.270  67.362  1.00  0.00    -0.224 C  
HETATM    3  C   UNK A   0      -8.030  17.428  66.194  1.00  0.00    -0.275 C  
HETATM    4  C   UNK A   0      -9.058  15.802  67.890  1.00  0.00    -0.186 C  
HETATM    5  C   UNK A   0     -10.072  15.540  69.028  1.00  0.00    -0.234 C  
HETATM    6  C   UNK A   0     -11.538  15.457  68.575  1.00  0.00    -0.373 C  
HETATM    7  C   UNK A   0     -11.780  14.575  67.333  1.00  0.00    -0.425 C  
HETATM    8  C   UNK A   0     -10.764  14.910  66.237  1.00  0.00    -0.320 C  
HETATM    9  C   UNK A   0      -9.340  14.782  66.775  1.00  0.00    -0.268 C  
ENDROOT
BRANCH   7  10
HETATM   10  C   UNK A   0     -11.793  13.066  67.642  1.00  0.00    -0.351 C  
HETATM   11  O   UNK A   0     -12.136  12.210  66.837  1.00  0.00    -0.600 OA 
ATOM     12  N   PHE A   1     -11.346  12.743  68.905  1.00  0.00    -0.278 N  
ATOM     13  H   PHE A   1     -11.130  13.502  69.552  1.00  0.00     0.000 HD 
BRANCH  12  14
ATOM     14  CA  PHE A   1     -11.167  11.363  69.365  1.00  0.00    -0.268 C  
ATOM     15  OXT PHE A   1     -12.900  11.942  70.980  1.00  0.00    -0.300 OA 
ATOM     16  C   PHE A   1     -12.064  11.135  70.589  1.00  0.00    -0.379 C  
ATOM     17  O   PHE A   1     -11.818   9.983  71.257  1.00  0.00    -0.354 OA 
BRANCH  14  18
ATOM     18  CB  PHE A   1     -11.370  10.285  68.282  1.00  0.00    -0.245 C  
BRANCH  18  19
ATOM     19  CG  PHE A   1     -10.161   9.473  67.873  1.00  0.00    -0.251 A  
ATOM     20  CD1 PHE A   1     -10.073   8.949  66.578  1.00  0.00    -0.356 A  
ATOM     21  CE1 PHE A   1      -8.950   8.229  66.170  1.00  0.00    -0.222 A  
ATOM     22  CZ  PHE A   1      -7.888   8.037  67.048  1.00  0.00    -0.104 A  
ATOM     23  CE2 PHE A   1      -7.955   8.561  68.338  1.00  0.00    -0.118 A  
ATOM     24  CD2 PHE A   1      -9.086   9.271  68.752  1.00  0.00    -0.136 A  
ENDBRANCH  18  19
ENDBRANCH  14  18
ENDBRANCH  12  14
ENDBRANCH   7  10
TORSDOF 4
ENDMDL
MODEL      151
REMARK 921   NORMALIZED FREE ENERGY PREDICTED BY IDOCK:   -4.16 KCAL/MOL
REMARK 922        TOTAL FREE ENERGY PREDICTED BY IDOCK:   -6.16 KCAL/MOL
REMARK 923 INTER-LIGAND FREE ENERGY PREDICTED BY IDOCK:   -6.16 KCAL/MOL
REMARK 924 INTRA-LIGAND FREE ENERGY PREDICTED BY IDOCK:   -0.00 KCAL/MOL
REMARK 927      BINDING AFFINITY PREDICTED BY RF-SCORE:    0.00 PKD
ROOT
HETATM    1  C   UNK A   0     -10.577  10.976  64.065  1.00  0.00    -0.395 C  
HETATM    2  C   UNK A   0     -11.436  12.247  64.047  1.00  0.00    -0.483 C  
HETATM    3  C   UNK A   0     -12.835  11.858  63.537  1.00  0.00    -0.435 C  
HETATM    4  C   UNK A   0     -11.504  12.953  65.436  1.00  0.00    -0.360 C  
HETATM    5  C   UNK A   0     -10.145  13.432  65.997  1.00  0.00    -0.308 C  
HETATM    6  C   UNK A   0      -9.589  14.703  65.335  1.00  0.00    -0.040 C  
HETATM    7  C   UNK A   0     -10.613  15.844  65.172  1.00  0.00    -0.421 C  
HETATM    8  C   UNK A   0     -11.920  15.306  64.582  1.00  0.00    -0.235 C  
HETATM    9  C   UNK A   0     -12.456  14.161  65.439  1.00  0.00    -0.488 C  
ENDROOT
BRANCH   7  10
HETATM   10  C   UNK A   0     -10.866  16.635  66.469  1.00  0.00    -0.017 C  
HETATM   11  O   UNK A   0     -11.028  17.848  66.506  1.00  0.00    -0.058 OA 
ATOM     12  N   PHE A   1     -10.936  15.854  67.603  1.00  0.00    -0.318 N  
ATOM     13  H   PHE A   1     -10.735  14.858  67.519  1.00  0.00     0.000 HD 
BRANCH  12  14
ATOM     14  CA  PHE A   1     -11.284  16.386  68.924  1.00  0.00    -0.304 C  
ATOM     15  OXT PHE A   1     -12.319  14.203  69.252  1.00  0.00    -0.311 OA 
ATOM     16  C   PHE A   1     -12.131  15.343  69.663  1.00  0.00    -0.327 C  
ATOM     17  O   PHE A   1     -12.720  15.798  70.795  1.00  0.00    -0.453 OA 
BRANCH  14  18
ATOM     18  CB  PHE A   1     -10.087  16.871  69.765  1.00  0.00     0.140 C  
BRANCH  18  19
ATOM     19  CG  PHE A   1      -9.005  17.651  69.050  1.00  0.00    -0.023 A  
ATOM     20  CD1 PHE A   1      -7.884  16.987  68.536  1.00  0.00    -0.251 A  
ATOM     21  CE1 PHE A   1      -6.894  17.682  67.842  1.00  0.00    -0.192 A  
ATOM     22  CZ  PHE A   1      -7.019  19.053  67.635  1.00  0.00    -0.230 A  
ATOM     23  CE2 PHE A   1      -8.134  19.727  68.130  1.00  0.00    -0.329 A  
ATOM     24  CD2 PHE A   1      -9.120  19.033  68.838  1.00  0.00    -0.321 A  
ENDBRANCH  18  19
ENDBRANCH  14  18
ENDBRANCH  12  14
ENDBRANCH   7  10
TORSDOF 4
ENDMDL
MODEL      152
REMARK 921   NORMALIZED FREE ENERGY PREDICTED BY IDOCK:   -4.16 KCAL/MOL
REMARK 922        TOTAL FREE ENERGY PREDICTED BY IDOCK:   -6.16 KCAL/MOL
REMARK 923 INTER-LIGAND FREE ENERGY PREDICTED BY IDOCK:   -5.49 KCAL/MOL
REMARK 924 INTRA-LIGAND FREE ENERGY PREDICTED BY IDOCK:   -0.67 KCAL/MOL
REMARK 927      BINDING AFFINITY PREDICTED BY RF-SCORE:    0.00 PKD
ROOT
HETATM    1  C   UNK A   0      -8.599  19.523  67.858  1.00  0.00    -0.357 C  
HETATM    2  C   UNK A   0      -9.675  18.551  67.358  1.00  0.00    -0.318 C  
HETATM    3  C   UNK A   0     -10.514  19.287  66.299  1.00  0.00    -0.567 C  
HETATM    4  C   UNK A   0      -9.078  17.222  66.800  1.00  0.00    -0.269 C  
HETATM    5  C   UNK A   0      -8.267  16.387  67.819  1.00  0.00    -0.162 C  
HETATM    6  C   UNK A   0      -9.119  15.620  68.843  1.00  0.00    -0.217 C  
HETATM    7  C   UNK A   0     -10.311  14.849  68.241  1.00  0.00    -0.232 C  
HETATM    8  C   UNK A   0     -11.087  15.745  67.270  1.00  0.00    -0.211 C  
HETATM    9  C   UNK A   0     -10.151  16.300  66.198  1.00  0.00    -0.362 C  
ENDROOT
BRANCH   7  10
HETATM   10  C   UNK A   0      -9.913  13.517  67.579  1.00  0.00    -0.230 C  
HETATM   11  O   UNK A   0     -10.457  13.065  66.580  1.00  0.00    -0.271 OA 
ATOM     12  N   PHE A   1      -8.854  12.877  68.187  1.00  0.00    -0.191 N  
ATOM     13  H   PHE A   1      -8.480  13.272  69.051  1.00  0.00     0.000 HD 
BRANCH  12  14
ATOM     14  CA  PHE A   1      -8.239  11.658  67.654  1.00  0.00    -0.141 C  
ATOM     15  OXT PHE A   1      -6.325  13.109  67.232  1.00  0.00    -0.270 OA 
ATOM     16  C   PHE A   1      -6.858  12.014  67.089  1.00  0.00    -0.136 C  
ATOM     17  O   PHE A   1      -6.284  11.033  66.353  1.00  0.00    -0.116 OA 
BRANCH  14  18
ATOM     18  CB  PHE A   1      -8.181  10.475  68.641  1.00  0.00    -0.130 C  
BRANCH  18  19
ATOM     19  CG  PHE A   1      -8.929   9.216  68.262  1.00  0.00    -0.129 A  
ATOM     20  CD1 PHE A   1      -8.790   8.057  69.035  1.00  0.00    -0.145 A  
ATOM     21  CE1 PHE A   1      -9.499   6.897  68.724  1.00  0.00    -0.135 A  
ATOM     22  CZ  PHE A   1     -10.374   6.884  67.642  1.00  0.00    -0.260 A  
ATOM     23  CE2 PHE A   1     -10.533   8.032  66.868  1.00  0.00    -0.387 A  
ATOM     24  CD2 PHE A   1      -9.812   9.191  67.172  1.00  0.00    -0.253 A  
ENDBRANCH  18  19
ENDBRANCH  14  18
ENDBRANCH  12  14
ENDBRANCH   7  10
TORSDOF 4
ENDMDL
MODEL      153
REMARK 921   NORMALIZED FREE ENERGY PREDICTED BY IDOCK:   -4.15 KCAL/MOL
REMARK 922        TOTAL FREE ENERGY PREDICTED BY IDOCK:   -6.14 KCAL/MOL
REMARK 923 INTER-LIGAND FREE ENERGY PREDICTED BY IDOCK:   -5.54 KCAL/MOL
REMARK 924 INTRA-LIGAND FREE ENERGY PREDICTED BY IDOCK:   -0.60 KCAL/MOL
REMARK 927      BINDING AFFINITY PREDICTED BY RF-SCORE:    0.00 PKD
ROOT
HETATM    1  C   UNK A   0     -13.403  13.204  71.878  1.00  0.00    -0.546 C  
HETATM    2  C   UNK A   0     -12.989  13.840  70.545  1.00  0.00    -0.120 C  
HETATM    3  C   UNK A   0     -13.065  15.367  70.713  1.00  0.00    -0.479 C  
HETATM    4  C   UNK A   0     -11.576  13.381  70.068  1.00  0.00    -0.219 C  
HETATM    5  C   UNK A   0     -11.429  11.862  69.816  1.00  0.00    -0.303 C  
HETATM    6  C   UNK A   0     -12.074  11.362  68.514  1.00  0.00    -0.168 C  
HETATM    7  C   UNK A   0     -11.758  12.215  67.269  1.00  0.00    -0.369 C  
HETATM    8  C   UNK A   0     -11.957  13.702  67.580  1.00  0.00    -0.386 C  
HETATM    9  C   UNK A   0     -11.120  14.107  68.792  1.00  0.00    -0.283 C  
ENDROOT
BRANCH   7  10
HETATM   10  C   UNK A   0     -10.362  11.948  66.677  1.00  0.00    -0.211 C  
HETATM   11  O   UNK A   0      -9.872  12.606  65.767  1.00  0.00    -0.264 OA 
ATOM     12  N   PHE A   1      -9.677  10.917  67.284  1.00  0.00    -0.164 N  
ATOM     13  H   PHE A   1     -10.159  10.368  67.996  1.00  0.00     0.000 HD 
BRANCH  12  14
ATOM     14  CA  PHE A   1      -8.291  10.571  66.955  1.00  0.00    -0.128 C  
ATOM     15  OXT PHE A   1      -7.744  12.097  68.776  1.00  0.00    -0.109 OA 
ATOM     16  C   PHE A   1      -7.357  11.400  67.845  1.00  0.00    -0.093 C  
ATOM     17  O   PHE A   1      -6.052  11.356  67.481  1.00  0.00    -0.053 OA 
BRANCH  14  18
ATOM     18  CB  PHE A   1      -7.968   9.064  67.010  1.00  0.00    -0.102 C  
BRANCH  18  19
ATOM     19  CG  PHE A   1      -9.044   8.141  67.539  1.00  0.00    -0.147 A  
ATOM     20  CD1 PHE A   1     -10.147   7.819  66.740  1.00  0.00    -0.341 A  
ATOM     21  CE1 PHE A   1     -11.131   6.941  67.194  1.00  0.00    -0.362 A  
ATOM     22  CZ  PHE A   1     -11.016   6.356  68.452  1.00  0.00    -0.390 A  
ATOM     23  CE2 PHE A   1      -9.918   6.657  69.256  1.00  0.00    -0.171 A  
ATOM     24  CD2 PHE A   1      -8.939   7.548  68.806  1.00  0.00    -0.129 A  
ENDBRANCH  18  19
ENDBRANCH  14  18
ENDBRANCH  12  14
ENDBRANCH   7  10
TORSDOF 4
ENDMDL
MODEL      154
REMARK 921   NORMALIZED FREE ENERGY PREDICTED BY IDOCK:   -4.14 KCAL/MOL
REMARK 922        TOTAL FREE ENERGY PREDICTED BY IDOCK:   -6.13 KCAL/MOL
REMARK 923 INTER-LIGAND FREE ENERGY PREDICTED BY IDOCK:   -6.20 KCAL/MOL
REMARK 924 INTRA-LIGAND FREE ENERGY PREDICTED BY IDOCK:    0.07 KCAL/MOL
REMARK 927      BINDING AFFINITY PREDICTED BY RF-SCORE:    0.00 PKD
ROOT
HETATM    1  C   UNK A   0      -6.322   7.837  71.576  1.00  0.00    -0.038 C  
HETATM    2  C   UNK A   0      -7.768   7.699  71.084  1.00  0.00    -0.085 C  
HETATM    3  C   UNK A   0      -8.493   6.726  72.030  1.00  0.00    -0.112 C  
HETATM    4  C   UNK A   0      -8.508   9.069  70.987  1.00  0.00    -0.254 C  
HETATM    5  C   UNK A   0      -7.879  10.088  70.009  1.00  0.00    -0.172 C  
HETATM    6  C   UNK A   0      -8.140   9.798  68.523  1.00  0.00    -0.104 C  
HETATM    7  C   UNK A   0      -9.604   9.456  68.180  1.00  0.00    -0.158 C  
HETATM    8  C   UNK A   0     -10.151   8.419  69.166  1.00  0.00    -0.206 C  
HETATM    9  C   UNK A   0      -9.989   8.914  70.602  1.00  0.00    -0.265 C  
ENDROOT
BRANCH   7  10
HETATM   10  C   UNK A   0     -10.522  10.689  68.097  1.00  0.00    -0.185 C  
HETATM   11  O   UNK A   0     -11.734  10.649  68.268  1.00  0.00    -0.445 OA 
ATOM     12  N   PHE A   1      -9.859  11.872  67.848  1.00  0.00    -0.185 N  
ATOM     13  H   PHE A   1      -8.858  11.836  67.656  1.00  0.00     0.000 HD 
BRANCH  12  14
ATOM     14  CA  PHE A   1     -10.523  13.179  67.844  1.00  0.00    -0.240 C  
ATOM     15  OXT PHE A   1     -10.404  12.951  65.419  1.00  0.00    -0.288 OA 
ATOM     16  C   PHE A   1     -10.662  13.652  66.391  1.00  0.00    -0.281 C  
ATOM     17  O   PHE A   1     -11.038  14.947  66.257  1.00  0.00    -0.335 OA 
BRANCH  14  18
ATOM     18  CB  PHE A   1     -11.861  13.231  68.607  1.00  0.00    -0.380 C  
BRANCH  18  19
ATOM     19  CG  PHE A   1     -11.964  14.199  69.766  1.00  0.00    -0.396 A  
ATOM     20  CD1 PHE A   1     -12.602  13.810  70.950  1.00  0.00    -0.428 A  
ATOM     21  CE1 PHE A   1     -12.676  14.675  72.042  1.00  0.00    -0.405 A  
ATOM     22  CZ  PHE A   1     -12.094  15.937  71.973  1.00  0.00    -0.591 A  
ATOM     23  CE2 PHE A   1     -11.444  16.335  70.806  1.00  0.00    -0.327 A  
ATOM     24  CD2 PHE A   1     -11.383  15.474  69.705  1.00  0.00    -0.325 A  
ENDBRANCH  18  19
ENDBRANCH  14  18
ENDBRANCH  12  14
ENDBRANCH   7  10
TORSDOF 4
ENDMDL
MODEL      155
REMARK 921   NORMALIZED FREE ENERGY PREDICTED BY IDOCK:   -4.13 KCAL/MOL
REMARK 922        TOTAL FREE ENERGY PREDICTED BY IDOCK:   -6.12 KCAL/MOL
REMARK 923 INTER-LIGAND FREE ENERGY PREDICTED BY IDOCK:   -5.35 KCAL/MOL
REMARK 924 INTRA-LIGAND FREE ENERGY PREDICTED BY IDOCK:   -0.77 KCAL/MOL
REMARK 927      BINDING AFFINITY PREDICTED BY RF-SCORE:    0.00 PKD
ROOT
HETATM    1  C   UNK A   0     -12.781  14.512  70.808  1.00  0.00    -0.425 C  
HETATM    2  C   UNK A   0     -12.270  13.066  70.808  1.00  0.00    -0.359 C  
HETATM    3  C   UNK A   0     -13.032  12.301  71.904  1.00  0.00    -0.411 C  
HETATM    4  C   UNK A   0     -12.410  12.373  69.418  1.00  0.00     0.041 C  
HETATM    5  C   UNK A   0     -11.624  13.044  68.267  1.00  0.00    -0.375 C  
HETATM    6  C   UNK A   0     -10.109  12.784  68.288  1.00  0.00    -0.237 C  
HETATM    7  C   UNK A   0      -9.710  11.312  68.515  1.00  0.00    -0.199 C  
HETATM    8  C   UNK A   0     -10.501  10.723  69.687  1.00  0.00    -0.183 C  
HETATM    9  C   UNK A   0     -12.001  10.891  69.453  1.00  0.00    -0.393 C  
ENDROOT
BRANCH   7  10
HETATM   10  C   UNK A   0      -9.840  10.437  67.254  1.00  0.00    -0.178 C  
HETATM   11  O   UNK A   0      -9.965  10.888  66.123  1.00  0.00    -0.216 OA 
ATOM     12  N   PHE A   1      -9.767   9.082  67.496  1.00  0.00    -0.154 N  
ATOM     13  H   PHE A   1      -9.722   8.763  68.464  1.00  0.00     0.000 HD 
BRANCH  12  14
ATOM     14  CA  PHE A   1      -9.751   8.075  66.430  1.00  0.00    -0.185 C  
ATOM     15  OXT PHE A   1      -7.345   8.470  66.438  1.00  0.00    -0.078 OA 
ATOM     16  C   PHE A   1      -8.314   7.937  65.910  1.00  0.00    -0.132 C  
ATOM     17  O   PHE A   1      -8.199   7.220  64.767  1.00  0.00    -0.124 OA 
BRANCH  14  18
ATOM     18  CB  PHE A   1     -10.369   6.716  66.812  1.00  0.00    -0.280 C  
BRANCH  18  19
ATOM     19  CG  PHE A   1     -10.343   6.325  68.273  1.00  0.00    -0.233 A  
ATOM     20  CD1 PHE A   1     -11.444   6.602  69.093  1.00  0.00    -0.199 A  
ATOM     21  CE1 PHE A   1     -11.455   6.217  70.434  1.00  0.00    -0.414 A  
ATOM     22  CZ  PHE A   1     -10.369   5.532  70.971  1.00  0.00    -0.307 A  
ATOM     23  CE2 PHE A   1      -9.270   5.239  70.166  1.00  0.00    -0.181 A  
ATOM     24  CD2 PHE A   1      -9.253   5.637  68.826  1.00  0.00    -0.133 A  
ENDBRANCH  18  19
ENDBRANCH  14  18
ENDBRANCH  12  14
ENDBRANCH   7  10
TORSDOF 4
ENDMDL
MODEL      156
REMARK 921   NORMALIZED FREE ENERGY PREDICTED BY IDOCK:   -4.11 KCAL/MOL
REMARK 922        TOTAL FREE ENERGY PREDICTED BY IDOCK:   -6.10 KCAL/MOL
REMARK 923 INTER-LIGAND FREE ENERGY PREDICTED BY IDOCK:   -5.80 KCAL/MOL
REMARK 924 INTRA-LIGAND FREE ENERGY PREDICTED BY IDOCK:   -0.30 KCAL/MOL
REMARK 927      BINDING AFFINITY PREDICTED BY RF-SCORE:    0.00 PKD
ROOT
HETATM    1  C   UNK A   0      -9.303   7.643  66.451  1.00  0.00    -0.228 C  
HETATM    2  C   UNK A   0      -8.789   8.843  67.256  1.00  0.00    -0.137 C  
HETATM    3  C   UNK A   0      -7.357   8.517  67.717  1.00  0.00    -0.093 C  
HETATM    4  C   UNK A   0      -8.847  10.180  66.456  1.00  0.00    -0.153 C  
HETATM    5  C   UNK A   0     -10.261  10.615  66.004  1.00  0.00    -0.309 C  
HETATM    6  C   UNK A   0     -11.140  11.199  67.122  1.00  0.00    -0.352 C  
HETATM    7  C   UNK A   0     -10.440  12.247  68.010  1.00  0.00    -0.231 C  
HETATM    8  C   UNK A   0      -9.062  11.738  68.446  1.00  0.00    -0.176 C  
HETATM    9  C   UNK A   0      -8.227  11.357  67.226  1.00  0.00    -0.150 C  
ENDROOT
BRANCH   7  10
HETATM   10  C   UNK A   0     -10.343  13.640  67.361  1.00  0.00    -0.244 C  
HETATM   11  O   UNK A   0     -10.827  13.918  66.271  1.00  0.00    -0.288 OA 
ATOM     12  N   PHE A   1      -9.690  14.579  68.131  1.00  0.00    -0.214 N  
ATOM     13  H   PHE A   1      -9.257  14.276  69.003  1.00  0.00     0.000 HD 
BRANCH  12  14
ATOM     14  CA  PHE A   1      -9.587  15.993  67.757  1.00  0.00    -0.219 C  
ATOM     15  OXT PHE A   1     -11.687  16.209  68.978  1.00  0.00    -0.345 OA 
ATOM     16  C   PHE A   1     -10.844  16.722  68.251  1.00  0.00    -0.366 C  
ATOM     17  O   PHE A   1     -10.990  17.978  67.765  1.00  0.00    -0.317 OA 
BRANCH  14  18
ATOM     18  CB  PHE A   1      -8.290  16.691  68.209  1.00  0.00    -0.198 C  
BRANCH  18  19
ATOM     19  CG  PHE A   1      -7.773  17.824  67.349  1.00  0.00    -0.214 A  
ATOM     20  CD1 PHE A   1      -8.046  19.151  67.698  1.00  0.00    -0.299 A  
ATOM     21  CE1 PHE A   1      -7.548  20.211  66.939  1.00  0.00    -0.331 A  
ATOM     22  CZ  PHE A   1      -6.752  19.956  65.826  1.00  0.00    -0.283 A  
ATOM     23  CE2 PHE A   1      -6.460  18.641  65.471  1.00  0.00    -0.321 A  
ATOM     24  CD2 PHE A   1      -6.971  17.578  66.224  1.00  0.00    -0.332 A  
ENDBRANCH  18  19
ENDBRANCH  14  18
ENDBRANCH  12  14
ENDBRANCH   7  10
TORSDOF 4
ENDMDL
MODEL      157
REMARK 921   NORMALIZED FREE ENERGY PREDICTED BY IDOCK:   -4.11 KCAL/MOL
REMARK 922        TOTAL FREE ENERGY PREDICTED BY IDOCK:   -6.10 KCAL/MOL
REMARK 923 INTER-LIGAND FREE ENERGY PREDICTED BY IDOCK:   -5.48 KCAL/MOL
REMARK 924 INTRA-LIGAND FREE ENERGY PREDICTED BY IDOCK:   -0.62 KCAL/MOL
REMARK 927      BINDING AFFINITY PREDICTED BY RF-SCORE:    0.00 PKD
ROOT
HETATM    1  C   UNK A   0      -6.109   4.738  70.572  1.00  0.00    -0.018 C  
HETATM    2  C   UNK A   0      -6.911   4.804  69.267  1.00  0.00    -0.051 C  
HETATM    3  C   UNK A   0      -7.181   3.360  68.810  1.00  0.00    -0.050 C  
HETATM    4  C   UNK A   0      -8.233   5.620  69.409  1.00  0.00    -0.103 C  
HETATM    5  C   UNK A   0      -8.050   7.104  69.807  1.00  0.00    -0.129 C  
HETATM    6  C   UNK A   0      -7.561   8.017  68.673  1.00  0.00    -0.100 C  
HETATM    7  C   UNK A   0      -8.306   7.838  67.335  1.00  0.00    -0.123 C  
HETATM    8  C   UNK A   0      -8.422   6.351  66.986  1.00  0.00    -0.112 C  
HETATM    9  C   UNK A   0      -9.086   5.588  68.130  1.00  0.00    -0.111 C  
ENDROOT
BRANCH   7  10
HETATM   10  C   UNK A   0      -9.680   8.532  67.297  1.00  0.00    -0.183 C  
HETATM   11  O   UNK A   0     -10.675   8.043  66.776  1.00  0.00    -0.289 OA 
ATOM     12  N   PHE A   1      -9.717   9.751  67.938  1.00  0.00    -0.143 N  
ATOM     13  H   PHE A   1      -8.844  10.134  68.302  1.00  0.00     0.000 HD 
BRANCH  12  14
ATOM     14  CA  PHE A   1     -10.948  10.525  68.123  1.00  0.00    -0.277 C  
ATOM     15  OXT PHE A   1     -10.712   9.870  70.459  1.00  0.00    -0.288 OA 
ATOM     16  C   PHE A   1     -11.391  10.398  69.585  1.00  0.00    -0.272 C  
ATOM     17  O   PHE A   1     -12.638  10.864  69.836  1.00  0.00    -0.289 OA 
BRANCH  14  18
ATOM     18  CB  PHE A   1     -10.867  11.994  67.661  1.00  0.00    -0.273 C  
BRANCH  18  19
ATOM     19  CG  PHE A   1     -11.294  12.302  66.242  1.00  0.00    -0.395 A  
ATOM     20  CD1 PHE A   1     -12.128  13.396  65.983  1.00  0.00    -0.487 A  
ATOM     21  CE1 PHE A   1     -12.504  13.718  64.678  1.00  0.00    -0.356 A  
ATOM     22  CZ  PHE A   1     -12.034  12.960  63.610  1.00  0.00    -0.613 A  
ATOM     23  CE2 PHE A   1     -11.193  11.875  63.850  1.00  0.00    -0.497 A  
ATOM     24  CD2 PHE A   1     -10.828  11.542  65.159  1.00  0.00    -0.326 A  
ENDBRANCH  18  19
ENDBRANCH  14  18
ENDBRANCH  12  14
ENDBRANCH   7  10
TORSDOF 4
ENDMDL
MODEL      158
REMARK 921   NORMALIZED FREE ENERGY PREDICTED BY IDOCK:   -4.09 KCAL/MOL
REMARK 922        TOTAL FREE ENERGY PREDICTED BY IDOCK:   -6.08 KCAL/MOL
REMARK 923 INTER-LIGAND FREE ENERGY PREDICTED BY IDOCK:   -5.73 KCAL/MOL
REMARK 924 INTRA-LIGAND FREE ENERGY PREDICTED BY IDOCK:   -0.34 KCAL/MOL
REMARK 927      BINDING AFFINITY PREDICTED BY RF-SCORE:    0.00 PKD
ROOT
HETATM    1  C   UNK A   0      -7.065   7.079  68.173  1.00  0.00    -0.085 C  
HETATM    2  C   UNK A   0      -8.112   7.561  67.161  1.00  0.00    -0.118 C  
HETATM    3  C   UNK A   0      -8.926   6.335  66.711  1.00  0.00    -0.128 C  
HETATM    4  C   UNK A   0      -9.031   8.686  67.730  1.00  0.00    -0.140 C  
HETATM    5  C   UNK A   0      -8.299   9.981  68.153  1.00  0.00    -0.113 C  
HETATM    6  C   UNK A   0      -7.857  10.878  66.986  1.00  0.00    -0.132 C  
HETATM    7  C   UNK A   0      -8.937  11.116  65.911  1.00  0.00    -0.210 C  
HETATM    8  C   UNK A   0      -9.595   9.791  65.517  1.00  0.00    -0.348 C  
HETATM    9  C   UNK A   0     -10.149   9.085  66.753  1.00  0.00    -0.344 C  
ENDROOT
BRANCH   7  10
HETATM   10  C   UNK A   0      -9.988  12.166  66.315  1.00  0.00    -0.229 C  
HETATM   11  O   UNK A   0     -11.097  12.252  65.802  1.00  0.00    -0.298 OA 
ATOM     12  N   PHE A   1      -9.594  12.995  67.344  1.00  0.00    -0.205 N  
ATOM     13  H   PHE A   1      -8.638  12.916  67.692  1.00  0.00     0.000 HD 
BRANCH  12  14
ATOM     14  CA  PHE A   1     -10.481  13.986  67.962  1.00  0.00    -0.241 C  
ATOM     15  OXT PHE A   1     -10.044  15.270  65.936  1.00  0.00    -0.287 OA 
ATOM     16  C   PHE A   1     -10.536  15.224  67.058  1.00  0.00    -0.292 C  
ATOM     17  O   PHE A   1     -11.125  16.304  67.623  1.00  0.00    -0.287 OA 
BRANCH  14  18
ATOM     18  CB  PHE A   1     -11.884  13.463  68.327  1.00  0.00    -0.393 C  
BRANCH  18  19
ATOM     19  CG  PHE A   1     -11.981  12.454  69.450  1.00  0.00    -0.319 A  
ATOM     20  CD1 PHE A   1     -11.492  11.155  69.270  1.00  0.00    -0.363 A  
ATOM     21  CE1 PHE A   1     -11.538  10.220  70.305  1.00  0.00    -0.396 A  
ATOM     22  CZ  PHE A   1     -12.059  10.579  71.544  1.00  0.00    -0.316 A  
ATOM     23  CE2 PHE A   1     -12.540  11.872  71.744  1.00  0.00    -0.158 A  
ATOM     24  CD2 PHE A   1     -12.507  12.804  70.702  1.00  0.00    -0.328 A  
ENDBRANCH  18  19
ENDBRANCH  14  18
ENDBRANCH  12  14
ENDBRANCH   7  10
TORSDOF 4
ENDMDL
MODEL      159
REMARK 921   NORMALIZED FREE ENERGY PREDICTED BY IDOCK:   -4.07 KCAL/MOL
REMARK 922        TOTAL FREE ENERGY PREDICTED BY IDOCK:   -6.05 KCAL/MOL
REMARK 923 INTER-LIGAND FREE ENERGY PREDICTED BY IDOCK:   -5.78 KCAL/MOL
REMARK 924 INTRA-LIGAND FREE ENERGY PREDICTED BY IDOCK:   -0.26 KCAL/MOL
REMARK 927      BINDING AFFINITY PREDICTED BY RF-SCORE:    0.00 PKD
ROOT
HETATM    1  C   UNK A   0      -8.262   6.202  68.504  1.00  0.00    -0.111 C  
HETATM    2  C   UNK A   0      -7.426   7.365  67.957  1.00  0.00    -0.105 C  
HETATM    3  C   UNK A   0      -6.538   6.812  66.828  1.00  0.00    -0.044 C  
HETATM    4  C   UNK A   0      -8.299   8.563  67.470  1.00  0.00    -0.128 C  
HETATM    5  C   UNK A   0      -9.180   9.219  68.559  1.00  0.00    -0.135 C  
HETATM    6  C   UNK A   0      -8.418  10.123  69.541  1.00  0.00    -0.179 C  
HETATM    7  C   UNK A   0      -7.437  11.111  68.880  1.00  0.00    -0.125 C  
HETATM    8  C   UNK A   0      -6.576  10.388  67.839  1.00  0.00    -0.061 C  
HETATM    9  C   UNK A   0      -7.462   9.677  66.819  1.00  0.00    -0.094 C  
ENDROOT
BRANCH   7  10
HETATM   10  C   UNK A   0      -8.123  12.351  68.277  1.00  0.00    -0.166 C  
HETATM   11  O   UNK A   0      -7.544  13.181  67.587  1.00  0.00    -0.142 OA 
ATOM     12  N   PHE A   1      -9.472  12.438  68.546  1.00  0.00    -0.363 N  
ATOM     13  H   PHE A   1      -9.887  11.749  69.174  1.00  0.00     0.000 HD 
BRANCH  12  14
ATOM     14  CA  PHE A   1     -10.340  13.471  67.974  1.00  0.00    -0.241 C  
ATOM     15  OXT PHE A   1     -10.801  11.787  66.272  1.00  0.00    -0.261 OA 
ATOM     16  C   PHE A   1     -10.926  12.944  66.658  1.00  0.00    -0.276 C  
ATOM     17  O   PHE A   1     -11.552  13.883  65.908  1.00  0.00    -0.322 OA 
BRANCH  14  18
ATOM     18  CB  PHE A   1     -11.427  14.007  68.927  1.00  0.00    -0.331 C  
BRANCH  18  19
ATOM     19  CG  PHE A   1     -11.996  13.043  69.945  1.00  0.00    -0.381 A  
ATOM     20  CD1 PHE A   1     -12.769  13.521  71.009  1.00  0.00    -0.399 A  
ATOM     21  CE1 PHE A   1     -13.333  12.646  71.938  1.00  0.00    -0.485 A  
ATOM     22  CZ  PHE A   1     -13.146  11.273  71.804  1.00  0.00    -0.527 A  
ATOM     23  CE2 PHE A   1     -12.388  10.779  70.744  1.00  0.00    -0.480 A  
ATOM     24  CD2 PHE A   1     -11.811  11.657  69.821  1.00  0.00    -0.428 A  
ENDBRANCH  18  19
ENDBRANCH  14  18
ENDBRANCH  12  14
ENDBRANCH   7  10
TORSDOF 4
ENDMDL
MODEL      160
REMARK 921   NORMALIZED FREE ENERGY PREDICTED BY IDOCK:   -4.05 KCAL/MOL
REMARK 922        TOTAL FREE ENERGY PREDICTED BY IDOCK:   -6.03 KCAL/MOL
REMARK 923 INTER-LIGAND FREE ENERGY PREDICTED BY IDOCK:   -6.34 KCAL/MOL
REMARK 924 INTRA-LIGAND FREE ENERGY PREDICTED BY IDOCK:    0.31 KCAL/MOL
REMARK 927      BINDING AFFINITY PREDICTED BY RF-SCORE:    0.00 PKD
ROOT
HETATM    1  C   UNK A   0      -9.028   8.061  66.099  1.00  0.00    -0.215 C  
HETATM    2  C   UNK A   0      -9.992   8.878  66.967  1.00  0.00    -0.300 C  
HETATM    3  C   UNK A   0     -10.196   8.114  68.287  1.00  0.00    -0.245 C  
HETATM    4  C   UNK A   0      -9.496  10.336  67.216  1.00  0.00    -0.174 C  
HETATM    5  C   UNK A   0      -9.322  11.197  65.943  1.00  0.00    -0.235 C  
HETATM    6  C   UNK A   0     -10.635  11.707  65.329  1.00  0.00    -0.333 C  
HETATM    7  C   UNK A   0     -11.626  12.317  66.341  1.00  0.00    -0.445 C  
HETATM    8  C   UNK A   0     -11.775  11.399  67.558  1.00  0.00    -0.220 C  
HETATM    9  C   UNK A   0     -10.409  11.114  68.179  1.00  0.00    -0.207 C  
ENDROOT
BRANCH   7  10
HETATM   10  C   UNK A   0     -11.269  13.754  66.764  1.00  0.00    -0.316 C  
HETATM   11  O   UNK A   0     -11.908  14.400  67.584  1.00  0.00    -0.369 OA 
ATOM     12  N   PHE A   1     -10.133  14.255  66.165  1.00  0.00    -0.301 N  
ATOM     13  H   PHE A   1      -9.676  13.693  65.447  1.00  0.00     0.000 HD 
BRANCH  12  14
ATOM     14  CA  PHE A   1      -9.549  15.555  66.510  1.00  0.00    -0.272 C  
ATOM     15  OXT PHE A   1     -11.070  16.407  64.805  1.00  0.00    -0.592 OA 
ATOM     16  C   PHE A   1     -10.142  16.619  65.579  1.00  0.00    -0.134 C  
ATOM     17  O   PHE A   1      -9.515  17.819  65.628  1.00  0.00    -0.440 OA 
BRANCH  14  18
ATOM     18  CB  PHE A   1      -9.667  15.945  67.997  1.00  0.00    -0.216 C  
BRANCH  18  19
ATOM     19  CG  PHE A   1      -8.461  16.588  68.645  1.00  0.00    -0.243 A  
ATOM     20  CD1 PHE A   1      -7.559  15.809  69.379  1.00  0.00    -0.214 A  
ATOM     21  CE1 PHE A   1      -6.421  16.376  69.953  1.00  0.00    -0.069 A  
ATOM     22  CZ  PHE A   1      -6.159  17.732  69.786  1.00  0.00    -0.213 A  
ATOM     23  CE2 PHE A   1      -7.039  18.521  69.048  1.00  0.00    -0.282 A  
ATOM     24  CD2 PHE A   1      -8.188  17.955  68.484  1.00  0.00    -0.300 A  
ENDBRANCH  18  19
ENDBRANCH  14  18
ENDBRANCH  12  14
ENDBRANCH   7  10
TORSDOF 4
ENDMDL
MODEL      161
REMARK 921   NORMALIZED FREE ENERGY PREDICTED BY IDOCK:   -4.05 KCAL/MOL
REMARK 922        TOTAL FREE ENERGY PREDICTED BY IDOCK:   -6.02 KCAL/MOL
REMARK 923 INTER-LIGAND FREE ENERGY PREDICTED BY IDOCK:   -6.35 KCAL/MOL
REMARK 924 INTRA-LIGAND FREE ENERGY PREDICTED BY IDOCK:    0.34 KCAL/MOL
REMARK 927      BINDING AFFINITY PREDICTED BY RF-SCORE:    0.00 PKD
ROOT
HETATM    1  C   UNK A   0      -7.251  20.371  67.152  1.00  0.00    -0.347 C  
HETATM    2  C   UNK A   0      -8.420  19.530  67.679  1.00  0.00    -0.347 C  
HETATM    3  C   UNK A   0      -9.706  20.357  67.506  1.00  0.00    -0.571 C  
HETATM    4  C   UNK A   0      -8.531  18.139  66.982  1.00  0.00    -0.254 C  
HETATM    5  C   UNK A   0      -7.302  17.217  67.157  1.00  0.00    -0.198 C  
HETATM    6  C   UNK A   0      -7.187  16.558  68.541  1.00  0.00    -0.175 C  
HETATM    7  C   UNK A   0      -8.494  15.931  69.067  1.00  0.00    -0.242 C  
HETATM    8  C   UNK A   0      -9.659  16.909  68.892  1.00  0.00    -0.251 C  
HETATM    9  C   UNK A   0      -9.770  17.349  67.434  1.00  0.00    -0.269 C  
ENDROOT
BRANCH   7  10
HETATM   10  C   UNK A   0      -8.814  14.560  68.443  1.00  0.00    -0.180 C  
HETATM   11  O   UNK A   0      -8.028  13.927  67.750  1.00  0.00    -0.141 OA 
ATOM     12  N   PHE A   1     -10.064  14.071  68.762  1.00  0.00    -0.328 N  
ATOM     13  H   PHE A   1     -10.697  14.668  69.294  1.00  0.00     0.000 HD 
BRANCH  12  14
ATOM     14  CA  PHE A   1     -10.527  12.737  68.372  1.00  0.00    -0.243 C  
ATOM     15  OXT PHE A   1     -11.559  13.916  66.504  1.00  0.00    -0.337 OA 
ATOM     16  C   PHE A   1     -11.420  12.872  67.132  1.00  0.00    -0.336 C  
ATOM     17  O   PHE A   1     -12.107  11.750  66.811  1.00  0.00    -0.547 OA 
BRANCH  14  18
ATOM     18  CB  PHE A   1      -9.411  11.692  68.178  1.00  0.00    -0.188 C  
BRANCH  18  19
ATOM     19  CG  PHE A   1      -9.803  10.232  68.253  1.00  0.00    -0.161 A  
ATOM     20  CD1 PHE A   1      -9.805   9.446  67.095  1.00  0.00    -0.242 A  
ATOM     21  CE1 PHE A   1     -10.128   8.090  67.148  1.00  0.00    -0.334 A  
ATOM     22  CZ  PHE A   1     -10.436   7.495  68.367  1.00  0.00    -0.212 A  
ATOM     23  CE2 PHE A   1     -10.428   8.260  69.532  1.00  0.00    -0.228 A  
ATOM     24  CD2 PHE A   1     -10.118   9.623  69.476  1.00  0.00    -0.223 A  
ENDBRANCH  18  19
ENDBRANCH  14  18
ENDBRANCH  12  14
ENDBRANCH   7  10
TORSDOF 4
ENDMDL
MODEL      162
REMARK 921   NORMALIZED FREE ENERGY PREDICTED BY IDOCK:   -4.03 KCAL/MOL
REMARK 922        TOTAL FREE ENERGY PREDICTED BY IDOCK:   -6.00 KCAL/MOL
REMARK 923 INTER-LIGAND FREE ENERGY PREDICTED BY IDOCK:   -5.50 KCAL/MOL
REMARK 924 INTRA-LIGAND FREE ENERGY PREDICTED BY IDOCK:   -0.50 KCAL/MOL
REMARK 927      BINDING AFFINITY PREDICTED BY RF-SCORE:    0.00 PKD
ROOT
HETATM    1  C   UNK A   0     -10.680  15.785  66.515  1.00  0.00    -0.283 C  
HETATM    2  C   UNK A   0     -10.905  14.303  66.190  1.00  0.00    -0.310 C  
HETATM    3  C   UNK A   0     -10.551  14.091  64.707  1.00  0.00    -0.441 C  
HETATM    4  C   UNK A   0     -10.094  13.349  67.119  1.00  0.00    -0.240 C  
HETATM    5  C   UNK A   0     -10.431  13.453  68.624  1.00  0.00    -0.237 C  
HETATM    6  C   UNK A   0     -11.755  12.789  69.033  1.00  0.00    -0.371 C  
HETATM    7  C   UNK A   0     -11.969  11.372  68.462  1.00  0.00    -0.295 C  
HETATM    8  C   UNK A   0     -11.649  11.350  66.964  1.00  0.00    -0.135 C  
HETATM    9  C   UNK A   0     -10.235  11.871  66.715  1.00  0.00    -0.232 C  
ENDROOT
BRANCH   7  10
HETATM   10  C   UNK A   0     -11.190  10.279  69.218  1.00  0.00    -0.228 C  
HETATM   11  O   UNK A   0     -10.807  10.394  70.375  1.00  0.00    -0.289 OA 
ATOM     12  N   PHE A   1     -10.986   9.125  68.492  1.00  0.00    -0.456 N  
ATOM     13  H   PHE A   1     -11.276   9.109  67.514  1.00  0.00     0.000 HD 
BRANCH  12  14
ATOM     14  CA  PHE A   1     -10.373   7.919  69.056  1.00  0.00    -0.214 C  
ATOM     15  OXT PHE A   1     -11.214   6.849  67.034  1.00  0.00    -0.369 OA 
ATOM     16  C   PHE A   1     -10.684   6.735  68.133  1.00  0.00    -0.236 C  
ATOM     17  O   PHE A   1     -10.383   5.522  68.657  1.00  0.00    -0.186 OA 
BRANCH  14  18
ATOM     18  CB  PHE A   1      -8.867   8.041  69.366  1.00  0.00    -0.144 C  
BRANCH  18  19
ATOM     19  CG  PHE A   1      -8.412   7.675  70.761  1.00  0.00    -0.125 A  
ATOM     20  CD1 PHE A   1      -8.390   8.646  71.769  1.00  0.00    -0.203 A  
ATOM     21  CE1 PHE A   1      -8.008   8.320  73.071  1.00  0.00    -0.199 A  
ATOM     22  CZ  PHE A   1      -7.661   7.011  73.389  1.00  0.00    -0.087 A  
ATOM     23  CE2 PHE A   1      -7.689   6.029  72.400  1.00  0.00    -0.101 A  
ATOM     24  CD2 PHE A   1      -8.057   6.358  71.091  1.00  0.00    -0.117 A  
ENDBRANCH  18  19
ENDBRANCH  14  18
ENDBRANCH  12  14
ENDBRANCH   7  10
TORSDOF 4
ENDMDL
MODEL      163
REMARK 921   NORMALIZED FREE ENERGY PREDICTED BY IDOCK:   -3.95 KCAL/MOL
REMARK 922        TOTAL FREE ENERGY PREDICTED BY IDOCK:   -5.91 KCAL/MOL
REMARK 923 INTER-LIGAND FREE ENERGY PREDICTED BY IDOCK:   -5.49 KCAL/MOL
REMARK 924 INTRA-LIGAND FREE ENERGY PREDICTED BY IDOCK:   -0.41 KCAL/MOL
REMARK 927      BINDING AFFINITY PREDICTED BY RF-SCORE:    0.00 PKD
ROOT
HETATM    1  C   UNK A   0     -11.887  13.228  64.869  1.00  0.00    -0.398 C  
HETATM    2  C   UNK A   0     -11.101  11.911  64.863  1.00  0.00    -0.363 C  
HETATM    3  C   UNK A   0     -10.408  11.787  63.495  1.00  0.00    -0.490 C  
HETATM    4  C   UNK A   0     -10.081  11.809  66.038  1.00  0.00    -0.263 C  
HETATM    5  C   UNK A   0     -10.701  11.865  67.454  1.00  0.00    -0.271 C  
HETATM    6  C   UNK A   0     -11.402  10.572  67.899  1.00  0.00    -0.297 C  
HETATM    7  C   UNK A   0     -10.598   9.282  67.641  1.00  0.00    -0.324 C  
HETATM    8  C   UNK A   0     -10.042   9.278  66.213  1.00  0.00    -0.322 C  
HETATM    9  C   UNK A   0      -9.217  10.539  65.962  1.00  0.00    -0.205 C  
ENDROOT
BRANCH   7  10
HETATM   10  C   UNK A   0      -9.485   9.031  68.676  1.00  0.00    -0.147 C  
HETATM   11  O   UNK A   0      -8.389   9.575  68.642  1.00  0.00    -0.114 OA 
ATOM     12  N   PHE A   1      -9.836   8.159  69.684  1.00  0.00    -0.181 N  
ATOM     13  H   PHE A   1     -10.741   7.691  69.628  1.00  0.00     0.000 HD 
BRANCH  12  14
ATOM     14  CA  PHE A   1      -8.973   7.870  70.833  1.00  0.00    -0.143 C  
ATOM     15  OXT PHE A   1     -10.622   9.164  72.078  1.00  0.00    -0.333 OA 
ATOM     16  C   PHE A   1      -9.537   8.592  72.063  1.00  0.00    -0.314 C  
ATOM     17  O   PHE A   1      -8.708   8.607  73.134  1.00  0.00    -0.371 OA 
BRANCH  14  18
ATOM     18  CB  PHE A   1      -8.723   6.372  71.097  1.00  0.00    -0.135 C  
BRANCH  18  19
ATOM     19  CG  PHE A   1      -8.482   5.485  69.895  1.00  0.00    -0.116 A  
ATOM     20  CD1 PHE A   1      -9.417   4.502  69.550  1.00  0.00    -0.244 A  
ATOM     21  CE1 PHE A   1      -9.231   3.697  68.425  1.00  0.00    -0.219 A  
ATOM     22  CZ  PHE A   1      -8.114   3.879  67.616  1.00  0.00    -0.090 A  
ATOM     23  CE2 PHE A   1      -7.179   4.861  67.938  1.00  0.00    -0.070 A  
ATOM     24  CD2 PHE A   1      -7.357   5.657  69.074  1.00  0.00    -0.082 A  
ENDBRANCH  18  19
ENDBRANCH  14  18
ENDBRANCH  12  14
ENDBRANCH   7  10
TORSDOF 4
ENDMDL
MODEL      164
REMARK 921   NORMALIZED FREE ENERGY PREDICTED BY IDOCK:   -3.95 KCAL/MOL
REMARK 922        TOTAL FREE ENERGY PREDICTED BY IDOCK:   -5.91 KCAL/MOL
REMARK 923 INTER-LIGAND FREE ENERGY PREDICTED BY IDOCK:   -5.30 KCAL/MOL
REMARK 924 INTRA-LIGAND FREE ENERGY PREDICTED BY IDOCK:   -0.60 KCAL/MOL
REMARK 927      BINDING AFFINITY PREDICTED BY RF-SCORE:    0.00 PKD
ROOT
HETATM    1  C   UNK A   0     -10.936  15.911  67.546  1.00  0.00    -0.280 C  
HETATM    2  C   UNK A   0     -10.098  14.676  67.191  1.00  0.00    -0.244 C  
HETATM    3  C   UNK A   0      -8.692  15.163  66.796  1.00  0.00    -0.307 C  
HETATM    4  C   UNK A   0     -10.043  13.629  68.346  1.00  0.00    -0.241 C  
HETATM    5  C   UNK A   0     -11.411  13.041  68.766  1.00  0.00    -0.332 C  
HETATM    6  C   UNK A   0     -11.987  11.999  67.795  1.00  0.00    -0.177 C  
HETATM    7  C   UNK A   0     -10.982  10.924  67.333  1.00  0.00    -0.353 C  
HETATM    8  C   UNK A   0      -9.666  11.577  66.902  1.00  0.00    -0.205 C  
HETATM    9  C   UNK A   0      -9.111  12.448  68.027  1.00  0.00    -0.195 C  
ENDROOT
BRANCH   7  10
HETATM   10  C   UNK A   0     -10.743   9.816  68.376  1.00  0.00    -0.221 C  
HETATM   11  O   UNK A   0     -11.131   9.877  69.536  1.00  0.00    -0.233 OA 
ATOM     12  N   PHE A   1     -10.077   8.712  67.887  1.00  0.00    -0.193 N  
ATOM     13  H   PHE A   1      -9.727   8.742  66.929  1.00  0.00     0.000 HD 
BRANCH  12  14
ATOM     14  CA  PHE A   1      -9.849   7.497  68.675  1.00  0.00    -0.165 C  
ATOM     15  OXT PHE A   1      -9.306   6.501  66.516  1.00  0.00    -0.156 OA 
ATOM     16  C   PHE A   1      -9.509   6.349  67.716  1.00  0.00    -0.115 C  
ATOM     17  O   PHE A   1      -9.511   5.122  68.289  1.00  0.00    -0.117 OA 
BRANCH  14  18
ATOM     18  CB  PHE A   1      -8.811   7.643  69.805  1.00  0.00    -0.140 C  
BRANCH  18  19
ATOM     19  CG  PHE A   1      -9.274   7.353  71.216  1.00  0.00    -0.153 A  
ATOM     20  CD1 PHE A   1      -8.707   8.041  72.296  1.00  0.00    -0.220 A  
ATOM     21  CE1 PHE A   1      -9.146   7.815  73.601  1.00  0.00    -0.345 A  
ATOM     22  CZ  PHE A   1     -10.174   6.909  73.843  1.00  0.00    -0.401 A  
ATOM     23  CE2 PHE A   1     -10.757   6.224  72.779  1.00  0.00    -0.269 A  
ATOM     24  CD2 PHE A   1     -10.308   6.440  71.472  1.00  0.00    -0.239 A  
ENDBRANCH  18  19
ENDBRANCH  14  18
ENDBRANCH  12  14
ENDBRANCH   7  10
TORSDOF 4
ENDMDL
MODEL      165
REMARK 921   NORMALIZED FREE ENERGY PREDICTED BY IDOCK:   -3.88 KCAL/MOL
REMARK 922        TOTAL FREE ENERGY PREDICTED BY IDOCK:   -5.81 KCAL/MOL
REMARK 923 INTER-LIGAND FREE ENERGY PREDICTED BY IDOCK:   -5.09 KCAL/MOL
REMARK 924 INTRA-LIGAND FREE ENERGY PREDICTED BY IDOCK:   -0.72 KCAL/MOL
REMARK 927      BINDING AFFINITY PREDICTED BY RF-SCORE:    0.00 PKD
ROOT
HETATM    1  C   UNK A   0      -7.375   5.473  69.077  1.00  0.00    -0.077 C  
HETATM    2  C   UNK A   0      -8.564   5.999  68.263  1.00  0.00    -0.115 C  
HETATM    3  C   UNK A   0      -9.294   4.783  67.664  1.00  0.00    -0.161 C  
HETATM    4  C   UNK A   0      -9.527   6.892  69.104  1.00  0.00    -0.142 C  
HETATM    5  C   UNK A   0      -8.888   8.171  69.695  1.00  0.00    -0.143 C  
HETATM    6  C   UNK A   0      -8.661   9.303  68.681  1.00  0.00    -0.127 C  
HETATM    7  C   UNK A   0      -9.864   9.597  67.762  1.00  0.00    -0.192 C  
HETATM    8  C   UNK A   0     -10.424   8.292  67.187  1.00  0.00    -0.386 C  
HETATM    9  C   UNK A   0     -10.774   7.322  68.314  1.00  0.00    -0.174 C  
ENDROOT
BRANCH   7  10
HETATM   10  C   UNK A   0     -10.967  10.430  68.440  1.00  0.00    -0.264 C  
HETATM   11  O   UNK A   0     -12.121  10.490  68.033  1.00  0.00    -0.224 OA 
ATOM     12  N   PHE A   1     -10.560  11.087  69.581  1.00  0.00    -0.439 N  
ATOM     13  H   PHE A   1      -9.574  11.047  69.838  1.00  0.00     0.000 HD 
BRANCH  12  14
ATOM     14  CA  PHE A   1     -11.475  11.840  70.444  1.00  0.00     0.163 C  
ATOM     15  OXT PHE A   1     -11.476  13.450  68.613  1.00  0.00    -0.265 OA 
ATOM     16  C   PHE A   1     -11.806  13.173  69.761  1.00  0.00    -0.316 C  
ATOM     17  O   PHE A   1     -12.446  14.065  70.553  1.00  0.00    -0.331 OA 
BRANCH  14  18
ATOM     18  CB  PHE A   1     -12.741  11.073  70.875  1.00  0.00    -0.452 C  
BRANCH  18  19
ATOM     19  CG  PHE A   1     -12.571   9.628  71.292  1.00  0.00    -0.443 A  
ATOM     20  CD1 PHE A   1     -11.558   9.272  72.190  1.00  0.00    -0.172 A  
ATOM     21  CE1 PHE A   1     -11.408   7.952  72.616  1.00  0.00    -0.468 A  
ATOM     22  CZ  PHE A   1     -12.283   6.970  72.162  1.00  0.00    -0.255 A  
ATOM     23  CE2 PHE A   1     -13.304   7.309  71.277  1.00  0.00    -0.338 A  
ATOM     24  CD2 PHE A   1     -13.446   8.630  70.839  1.00  0.00     0.232 A  
ENDBRANCH  18  19
ENDBRANCH  14  18
ENDBRANCH  12  14
ENDBRANCH   7  10
TORSDOF 4
ENDMDL
MODEL      166
REMARK 921   NORMALIZED FREE ENERGY PREDICTED BY IDOCK:   -3.81 KCAL/MOL
REMARK 922        TOTAL FREE ENERGY PREDICTED BY IDOCK:   -5.73 KCAL/MOL
REMARK 923 INTER-LIGAND FREE ENERGY PREDICTED BY IDOCK:   -4.47 KCAL/MOL
REMARK 924 INTRA-LIGAND FREE ENERGY PREDICTED BY IDOCK:   -1.26 KCAL/MOL
REMARK 927      BINDING AFFINITY PREDICTED BY RF-SCORE:    0.00 PKD
ROOT
HETATM    1  C   UNK A   0     -12.643  13.829  65.438  1.00  0.00    -0.534 C  
HETATM    2  C   UNK A   0     -11.931  12.473  65.357  1.00  0.00    -0.492 C  
HETATM    3  C   UNK A   0     -11.488  12.264  63.898  1.00  0.00    -0.512 C  
HETATM    4  C   UNK A   0     -10.730  12.359  66.346  1.00  0.00    -0.277 C  
HETATM    5  C   UNK A   0     -11.096  12.497  67.843  1.00  0.00    -0.286 C  
HETATM    6  C   UNK A   0     -11.769  11.258  68.455  1.00  0.00    -0.378 C  
HETATM    7  C   UNK A   0     -11.082   9.919  68.122  1.00  0.00    -0.215 C  
HETATM    8  C   UNK A   0     -10.779   9.837  66.622  1.00  0.00    -0.106 C  
HETATM    9  C   UNK A   0      -9.952  11.043  66.181  1.00  0.00    -0.277 C  
ENDROOT
BRANCH   7  10
HETATM   10  C   UNK A   0      -9.821   9.647  68.964  1.00  0.00    -0.182 C  
HETATM   11  O   UNK A   0      -9.392  10.416  69.814  1.00  0.00    -0.142 OA 
ATOM     12  N   PHE A   1      -9.223   8.431  68.710  1.00  0.00    -0.143 N  
ATOM     13  H   PHE A   1      -9.590   7.859  67.950  1.00  0.00     0.000 HD 
BRANCH  12  14
ATOM     14  CA  PHE A   1      -8.082   7.922  69.477  1.00  0.00    -0.121 C  
ATOM     15  OXT PHE A   1      -9.458   5.923  69.715  1.00  0.00    -0.145 OA 
ATOM     16  C   PHE A   1      -8.444   6.536  70.028  1.00  0.00    -0.135 C  
ATOM     17  O   PHE A   1      -7.577   6.056  70.951  1.00  0.00    -0.092 OA 
BRANCH  14  18
ATOM     18  CB  PHE A   1      -6.739   7.919  68.721  1.00  0.00    -0.057 C  
BRANCH  18  19
ATOM     19  CG  PHE A   1      -6.402   9.143  67.898  1.00  0.00    -0.055 A  
ATOM     20  CD1 PHE A   1      -6.335   9.053  66.502  1.00  0.00    -0.066 A  
ATOM     21  CE1 PHE A   1      -6.061  10.177  65.723  1.00  0.00    -0.098 A  
ATOM     22  CZ  PHE A   1      -5.870  11.415  66.329  1.00  0.00    -0.059 A  
ATOM     23  CE2 PHE A   1      -5.945  11.525  67.716  1.00  0.00    -0.049 A  
ATOM     24  CD2 PHE A   1      -6.205  10.395  68.498  1.00  0.00    -0.047 A  
ENDBRANCH  18  19
ENDBRANCH  14  18
ENDBRANCH  12  14
ENDBRANCH   7  10
TORSDOF 4
ENDMDL
MODEL      167
REMARK 921   NORMALIZED FREE ENERGY PREDICTED BY IDOCK:   -3.81 KCAL/MOL
REMARK 922        TOTAL FREE ENERGY PREDICTED BY IDOCK:   -5.72 KCAL/MOL
REMARK 923 INTER-LIGAND FREE ENERGY PREDICTED BY IDOCK:   -5.80 KCAL/MOL
REMARK 924 INTRA-LIGAND FREE ENERGY PREDICTED BY IDOCK:    0.08 KCAL/MOL
REMARK 927      BINDING AFFINITY PREDICTED BY RF-SCORE:    0.00 PKD
ROOT
HETATM    1  C   UNK A   0      -8.855  17.368  68.810  1.00  0.00    -0.220 C  
HETATM    2  C   UNK A   0      -9.284  16.268  67.831  1.00  0.00    -0.201 C  
HETATM    3  C   UNK A   0      -8.406  16.393  66.573  1.00  0.00    -0.337 C  
HETATM    4  C   UNK A   0      -9.204  14.839  68.451  1.00  0.00    -0.189 C  
HETATM    5  C   UNK A   0     -10.104  14.608  69.687  1.00  0.00     0.071 C  
HETATM    6  C   UNK A   0     -11.597  14.428  69.368  1.00  0.00    -0.349 C  
HETATM    7  C   UNK A   0     -11.897  13.455  68.211  1.00  0.00    -0.393 C  
HETATM    8  C   UNK A   0     -10.995  13.762  67.011  1.00  0.00    -0.297 C  
HETATM    9  C   UNK A   0      -9.526  13.734  67.431  1.00  0.00    -0.224 C  
ENDROOT
BRANCH   7  10
HETATM   10  C   UNK A   0     -11.807  11.971  68.614  1.00  0.00    -0.311 C  
HETATM   11  O   UNK A   0     -12.003  11.043  67.839  1.00  0.00    -0.620 OA 
ATOM     12  N   PHE A   1     -11.447  11.762  69.928  1.00  0.00    -0.478 N  
ATOM     13  H   PHE A   1     -11.355  12.573  70.540  1.00  0.00     0.000 HD 
BRANCH  12  14
ATOM     14  CA  PHE A   1     -11.192  10.433  70.489  1.00  0.00    -0.314 C  
ATOM     15  OXT PHE A   1     -13.533  10.542  71.162  1.00  0.00    -0.240 OA 
ATOM     16  C   PHE A   1     -12.457   9.956  71.213  1.00  0.00    -0.381 C  
ATOM     17  O   PHE A   1     -12.282   8.852  71.978  1.00  0.00    -0.338 OA 
BRANCH  14  18
ATOM     18  CB  PHE A   1     -10.667   9.392  69.480  1.00  0.00    -0.238 C  
BRANCH  18  19
ATOM     19  CG  PHE A   1      -9.233   8.934  69.635  1.00  0.00    -0.152 A  
ATOM     20  CD1 PHE A   1      -8.524   9.234  70.804  1.00  0.00    -0.244 A  
ATOM     21  CE1 PHE A   1      -7.213   8.789  70.983  1.00  0.00    -0.088 A  
ATOM     22  CZ  PHE A   1      -6.598   8.021  69.999  1.00  0.00    -0.040 A  
ATOM     23  CE2 PHE A   1      -7.294   7.704  68.834  1.00  0.00    -0.090 A  
ATOM     24  CD2 PHE A   1      -8.602   8.162  68.649  1.00  0.00    -0.127 A  
ENDBRANCH  18  19
ENDBRANCH  14  18
ENDBRANCH  12  14
ENDBRANCH   7  10
TORSDOF 4
ENDMDL
MODEL      168
REMARK 921   NORMALIZED FREE ENERGY PREDICTED BY IDOCK:   -3.81 KCAL/MOL
REMARK 922        TOTAL FREE ENERGY PREDICTED BY IDOCK:   -5.72 KCAL/MOL
REMARK 923 INTER-LIGAND FREE ENERGY PREDICTED BY IDOCK:   -4.26 KCAL/MOL
REMARK 924 INTRA-LIGAND FREE ENERGY PREDICTED BY IDOCK:   -1.46 KCAL/MOL
REMARK 927      BINDING AFFINITY PREDICTED BY RF-SCORE:    0.00 PKD
ROOT
HETATM    1  C   UNK A   0     -11.724   8.884  71.897  1.00  0.00    -0.439 C  
HETATM    2  C   UNK A   0     -11.572   9.415  70.467  1.00  0.00    -0.291 C  
HETATM    3  C   UNK A   0     -11.773  10.940  70.510  1.00  0.00    -0.441 C  
HETATM    4  C   UNK A   0     -10.206   9.031  69.819  1.00  0.00    -0.214 C  
HETATM    5  C   UNK A   0      -9.948   7.512  69.681  1.00  0.00    -0.184 C  
HETATM    6  C   UNK A   0     -10.724   6.831  68.543  1.00  0.00    -0.280 C  
HETATM    7  C   UNK A   0     -10.678   7.577  67.194  1.00  0.00    -0.379 C  
HETATM    8  C   UNK A   0     -10.974   9.066  67.401  1.00  0.00     0.040 C  
HETATM    9  C   UNK A   0     -10.014   9.660  68.429  1.00  0.00    -0.178 C  
ENDROOT
BRANCH   7  10
HETATM   10  C   UNK A   0      -9.364   7.370  66.419  1.00  0.00    -0.155 C  
HETATM   11  O   UNK A   0      -8.659   6.374  66.528  1.00  0.00    -0.117 OA 
ATOM     12  N   PHE A   1      -9.053   8.392  65.547  1.00  0.00    -0.390 N  
ATOM     13  H   PHE A   1      -9.646   9.222  65.542  1.00  0.00     0.000 HD 
BRANCH  12  14
ATOM     14  CA  PHE A   1      -7.912   8.345  64.629  1.00  0.00    -0.147 C  
ATOM     15  OXT PHE A   1      -9.247   9.885  63.291  1.00  0.00    -0.257 OA 
ATOM     16  C   PHE A   1      -8.251   9.177  63.386  1.00  0.00    -0.178 C  
ATOM     17  O   PHE A   1      -7.385   9.024  62.355  1.00  0.00    -0.099 OA 
BRANCH  14  18
ATOM     18  CB  PHE A   1      -6.560   8.745  65.251  1.00  0.00    -0.067 C  
BRANCH  18  19
ATOM     19  CG  PHE A   1      -6.595   9.576  66.516  1.00  0.00    -0.071 A  
ATOM     20  CD1 PHE A   1      -6.843  10.952  66.445  1.00  0.00    -0.135 A  
ATOM     21  CE1 PHE A   1      -6.915  11.729  67.601  1.00  0.00    -0.103 A  
ATOM     22  CZ  PHE A   1      -6.760  11.135  68.850  1.00  0.00    -0.077 A  
ATOM     23  CE2 PHE A   1      -6.525   9.764  68.940  1.00  0.00    -0.045 A  
ATOM     24  CD2 PHE A   1      -6.437   8.988  67.780  1.00  0.00    -0.057 A  
ENDBRANCH  18  19
ENDBRANCH  14  18
ENDBRANCH  12  14
ENDBRANCH   7  10
TORSDOF 4
ENDMDL
MODEL      169
REMARK 921   NORMALIZED FREE ENERGY PREDICTED BY IDOCK:   -3.80 KCAL/MOL
REMARK 922        TOTAL FREE ENERGY PREDICTED BY IDOCK:   -5.72 KCAL/MOL
REMARK 923 INTER-LIGAND FREE ENERGY PREDICTED BY IDOCK:   -5.51 KCAL/MOL
REMARK 924 INTRA-LIGAND FREE ENERGY PREDICTED BY IDOCK:   -0.21 KCAL/MOL
REMARK 927      BINDING AFFINITY PREDICTED BY RF-SCORE:    0.00 PKD
ROOT
HETATM    1  C   UNK A   0     -13.608  12.991  72.129  1.00  0.00    -0.618 C  
HETATM    2  C   UNK A   0     -13.230  14.291  71.409  1.00  0.00    -0.419 C  
HETATM    3  C   UNK A   0     -13.469  15.454  72.388  1.00  0.00    -0.591 C  
HETATM    4  C   UNK A   0     -11.766  14.282  70.871  1.00  0.00    -0.242 C  
HETATM    5  C   UNK A   0     -11.454  13.179  69.833  1.00  0.00    -0.159 C  
HETATM    6  C   UNK A   0     -12.011  13.446  68.426  1.00  0.00    -0.359 C  
HETATM    7  C   UNK A   0     -11.756  14.869  67.891  1.00  0.00    -0.344 C  
HETATM    8  C   UNK A   0     -12.116  15.909  68.956  1.00  0.00    -0.116 C  
HETATM    9  C   UNK A   0     -11.357  15.628  70.251  1.00  0.00    -0.357 C  
ENDROOT
BRANCH   7  10
HETATM   10  C   UNK A   0     -10.325  15.082  67.362  1.00  0.00    -0.238 C  
HETATM   11  O   UNK A   0      -9.953  14.732  66.249  1.00  0.00    -0.264 OA 
ATOM     12  N   PHE A   1      -9.490  15.742  68.237  1.00  0.00    -0.198 N  
ATOM     13  H   PHE A   1      -9.839  15.956  69.172  1.00  0.00     0.000 HD 
BRANCH  12  14
ATOM     14  CA  PHE A   1      -8.125  16.150  67.892  1.00  0.00    -0.145 C  
ATOM     15  OXT PHE A   1      -9.017  18.410  68.101  1.00  0.00    -0.292 OA 
ATOM     16  C   PHE A   1      -8.085  17.679  67.781  1.00  0.00    -0.224 C  
ATOM     17  O   PHE A   1      -6.948  18.172  67.234  1.00  0.00    -0.189 OA 
BRANCH  14  18
ATOM     18  CB  PHE A   1      -7.028  15.602  68.826  1.00  0.00    -0.121 C  
BRANCH  18  19
ATOM     19  CG  PHE A   1      -6.780  14.109  68.807  1.00  0.00    -0.098 A  
ATOM     20  CD1 PHE A   1      -6.306  13.462  69.954  1.00  0.00    -0.060 A  
ATOM     21  CE1 PHE A   1      -6.105  12.081  69.968  1.00  0.00    -0.146 A  
ATOM     22  CZ  PHE A   1      -6.395  11.324  68.838  1.00  0.00    -0.055 A  
ATOM     23  CE2 PHE A   1      -6.879  11.950  67.691  1.00  0.00    -0.112 A  
ATOM     24  CD2 PHE A   1      -7.066  13.336  67.671  1.00  0.00    -0.163 A  
ENDBRANCH  18  19
ENDBRANCH  14  18
ENDBRANCH  12  14
ENDBRANCH   7  10
TORSDOF 4
ENDMDL
MODEL      170
REMARK 921   NORMALIZED FREE ENERGY PREDICTED BY IDOCK:   -3.76 KCAL/MOL
REMARK 922        TOTAL FREE ENERGY PREDICTED BY IDOCK:   -5.67 KCAL/MOL
REMARK 923 INTER-LIGAND FREE ENERGY PREDICTED BY IDOCK:   -5.68 KCAL/MOL
REMARK 924 INTRA-LIGAND FREE ENERGY PREDICTED BY IDOCK:    0.02 KCAL/MOL
REMARK 927      BINDING AFFINITY PREDICTED BY RF-SCORE:    0.00 PKD
ROOT
HETATM    1  C   UNK A   0      -9.349   2.818  67.805  1.00  0.00    -0.239 C  
HETATM    2  C   UNK A   0      -8.544   4.099  68.057  1.00  0.00    -0.108 C  
HETATM    3  C   UNK A   0      -7.530   4.247  66.908  1.00  0.00    -0.081 C  
HETATM    4  C   UNK A   0      -9.445   5.364  68.197  1.00  0.00    -0.142 C  
HETATM    5  C   UNK A   0     -10.456   5.325  69.368  1.00  0.00    -0.284 C  
HETATM    6  C   UNK A   0      -9.839   5.562  70.755  1.00  0.00    -0.247 C  
HETATM    7  C   UNK A   0      -8.869   6.757  70.834  1.00  0.00    -0.146 C  
HETATM    8  C   UNK A   0      -7.879   6.715  69.666  1.00  0.00    -0.115 C  
HETATM    9  C   UNK A   0      -8.628   6.659  68.336  1.00  0.00    -0.124 C  
ENDROOT
BRANCH   7  10
HETATM   10  C   UNK A   0      -9.577   8.122  70.919  1.00  0.00    -0.162 C  
HETATM   11  O   UNK A   0      -9.010   9.166  71.215  1.00  0.00    -0.237 OA 
ATOM     12  N   PHE A   1     -10.917   8.085  70.594  1.00  0.00    -0.242 N  
ATOM     13  H   PHE A   1     -11.347   7.179  70.413  1.00  0.00     0.000 HD 
BRANCH  12  14
ATOM     14  CA  PHE A   1     -11.753   9.286  70.497  1.00  0.00    -0.176 C  
ATOM     15  OXT PHE A   1     -12.301   8.786  72.819  1.00  0.00    -0.292 OA 
ATOM     16  C   PHE A   1     -12.513   9.460  71.817  1.00  0.00    -0.391 C  
ATOM     17  O   PHE A   1     -13.499  10.389  71.778  1.00  0.00    -0.347 OA 
BRANCH  14  18
ATOM     18  CB  PHE A   1     -11.004  10.567  70.079  1.00  0.00    -0.351 C  
BRANCH  18  19
ATOM     19  CG  PHE A   1     -11.024  10.937  68.612  1.00  0.00    -0.274 A  
ATOM     20  CD1 PHE A   1     -11.669  12.106  68.192  1.00  0.00    -0.402 A  
ATOM     21  CE1 PHE A   1     -11.667  12.484  66.849  1.00  0.00    -0.447 A  
ATOM     22  CZ  PHE A   1     -11.003  11.705  65.907  1.00  0.00    -0.334 A  
ATOM     23  CE2 PHE A   1     -10.346  10.544  66.309  1.00  0.00    -0.276 A  
ATOM     24  CD2 PHE A   1     -10.360  10.157  67.653  1.00  0.00    -0.265 A  
ENDBRANCH  18  19
ENDBRANCH  14  18
ENDBRANCH  12  14
ENDBRANCH   7  10
TORSDOF 4
ENDMDL
MODEL      171
REMARK 921   NORMALIZED FREE ENERGY PREDICTED BY IDOCK:   -3.75 KCAL/MOL
REMARK 922        TOTAL FREE ENERGY PREDICTED BY IDOCK:   -5.66 KCAL/MOL
REMARK 923 INTER-LIGAND FREE ENERGY PREDICTED BY IDOCK:   -4.24 KCAL/MOL
REMARK 924 INTRA-LIGAND FREE ENERGY PREDICTED BY IDOCK:   -1.42 KCAL/MOL
REMARK 927      BINDING AFFINITY PREDICTED BY RF-SCORE:    0.00 PKD
ROOT
HETATM    1  C   UNK A   0     -10.602   9.641  70.721  1.00  0.00    -0.392 C  
HETATM    2  C   UNK A   0     -10.839   9.216  69.266  1.00  0.00    -0.150 C  
HETATM    3  C   UNK A   0     -11.114  10.489  68.447  1.00  0.00    -0.335 C  
HETATM    4  C   UNK A   0      -9.653   8.394  68.674  1.00  0.00    -0.153 C  
HETATM    5  C   UNK A   0      -9.347   7.065  69.403  1.00  0.00    -0.146 C  
HETATM    6  C   UNK A   0     -10.336   5.927  69.106  1.00  0.00    -0.303 C  
HETATM    7  C   UNK A   0     -10.668   5.735  67.613  1.00  0.00    -0.313 C  
HETATM    8  C   UNK A   0     -10.993   7.083  66.963  1.00  0.00    -0.357 C  
HETATM    9  C   UNK A   0      -9.847   8.068  67.184  1.00  0.00    -0.274 C  
ENDROOT
BRANCH   7  10
HETATM   10  C   UNK A   0      -9.574   4.984  66.830  1.00  0.00    -0.155 C  
HETATM   11  O   UNK A   0      -8.782   4.205  67.344  1.00  0.00    -0.103 OA 
ATOM     12  N   PHE A   1      -9.578   5.232  65.474  1.00  0.00    -0.344 N  
ATOM     13  H   PHE A   1     -10.222   5.935  65.111  1.00  0.00     0.000 HD 
BRANCH  12  14
ATOM     14  CA  PHE A   1      -8.700   4.537  64.528  1.00  0.00    -0.148 C  
ATOM     15  OXT PHE A   1     -10.787   3.641  63.639  1.00  0.00    -0.260 OA 
ATOM     16  C   PHE A   1      -9.561   3.629  63.640  1.00  0.00    -0.147 C  
ATOM     17  O   PHE A   1      -8.857   2.752  62.885  1.00  0.00    -0.085 OA 
BRANCH  14  18
ATOM     18  CB  PHE A   1      -7.775   5.454  63.704  1.00  0.00    -0.083 C  
BRANCH  18  19
ATOM     19  CG  PHE A   1      -7.396   6.786  64.314  1.00  0.00    -0.088 A  
ATOM     20  CD1 PHE A   1      -8.003   7.963  63.861  1.00  0.00    -0.121 A  
ATOM     21  CE1 PHE A   1      -7.694   9.197  64.434  1.00  0.00    -0.119 A  
ATOM     22  CZ  PHE A   1      -6.784   9.269  65.484  1.00  0.00    -0.073 A  
ATOM     23  CE2 PHE A   1      -6.179   8.105  65.955  1.00  0.00    -0.045 A  
ATOM     24  CD2 PHE A   1      -6.477   6.870  65.371  1.00  0.00    -0.046 A  
ENDBRANCH  18  19
ENDBRANCH  14  18
ENDBRANCH  12  14
ENDBRANCH   7  10
TORSDOF 4
ENDMDL
MODEL      172
REMARK 921   NORMALIZED FREE ENERGY PREDICTED BY IDOCK:   -3.73 KCAL/MOL
REMARK 922        TOTAL FREE ENERGY PREDICTED BY IDOCK:   -5.62 KCAL/MOL
REMARK 923 INTER-LIGAND FREE ENERGY PREDICTED BY IDOCK:   -5.34 KCAL/MOL
REMARK 924 INTRA-LIGAND FREE ENERGY PREDICTED BY IDOCK:   -0.29 KCAL/MOL
REMARK 927      BINDING AFFINITY PREDICTED BY RF-SCORE:    0.00 PKD
ROOT
HETATM    1  C   UNK A   0      -6.920  20.041  69.513  1.00  0.00    -0.211 C  
HETATM    2  C   UNK A   0      -7.253  19.557  68.096  1.00  0.00    -0.330 C  
HETATM    3  C   UNK A   0      -6.200  20.145  67.141  1.00  0.00    -0.215 C  
HETATM    4  C   UNK A   0      -7.326  18.002  67.988  1.00  0.00    -0.232 C  
HETATM    5  C   UNK A   0      -8.402  17.331  68.872  1.00  0.00    -0.174 C  
HETATM    6  C   UNK A   0      -9.841  17.474  68.350  1.00  0.00    -0.325 C  
HETATM    7  C   UNK A   0     -10.015  17.169  66.849  1.00  0.00    -0.288 C  
HETATM    8  C   UNK A   0      -8.939  17.890  66.032  1.00  0.00    -0.005 C  
HETATM    9  C   UNK A   0      -7.548  17.521  66.544  1.00  0.00    -0.311 C  
ENDROOT
BRANCH   7  10
HETATM   10  C   UNK A   0     -10.050  15.664  66.525  1.00  0.00    -0.282 C  
HETATM   11  O   UNK A   0      -9.847  15.203  65.409  1.00  0.00    -0.328 OA 
ATOM     12  N   PHE A   1     -10.295  14.856  67.615  1.00  0.00    -0.240 N  
ATOM     13  H   PHE A   1     -10.515  15.299  68.508  1.00  0.00     0.000 HD 
BRANCH  12  14
ATOM     14  CA  PHE A   1     -10.257  13.392  67.555  1.00  0.00    -0.226 C  
ATOM     15  OXT PHE A   1     -12.475  13.625  66.569  1.00  0.00    -0.381 OA 
ATOM     16  C   PHE A   1     -11.603  12.889  67.019  1.00  0.00    -0.362 C  
ATOM     17  O   PHE A   1     -11.790  11.553  67.139  1.00  0.00    -0.595 OA 
BRANCH  14  18
ATOM     18  CB  PHE A   1      -9.061  12.805  66.778  1.00  0.00    -0.209 C  
BRANCH  18  19
ATOM     19  CG  PHE A   1      -7.702  12.872  67.439  1.00  0.00    -0.160 A  
ATOM     20  CD1 PHE A   1      -6.671  12.028  67.010  1.00  0.00    -0.099 A  
ATOM     21  CE1 PHE A   1      -5.400  12.098  67.581  1.00  0.00    -0.091 A  
ATOM     22  CZ  PHE A   1      -5.137  13.030  68.581  1.00  0.00    -0.064 A  
ATOM     23  CE2 PHE A   1      -6.149  13.886  69.012  1.00  0.00    -0.089 A  
ATOM     24  CD2 PHE A   1      -7.426  13.805  68.449  1.00  0.00    -0.119 A  
ENDBRANCH  18  19
ENDBRANCH  14  18
ENDBRANCH  12  14
ENDBRANCH   7  10
TORSDOF 4
ENDMDL
MODEL      173
REMARK 921   NORMALIZED FREE ENERGY PREDICTED BY IDOCK:   -3.72 KCAL/MOL
REMARK 922        TOTAL FREE ENERGY PREDICTED BY IDOCK:   -5.62 KCAL/MOL
REMARK 923 INTER-LIGAND FREE ENERGY PREDICTED BY IDOCK:   -4.80 KCAL/MOL
REMARK 924 INTRA-LIGAND FREE ENERGY PREDICTED BY IDOCK:   -0.82 KCAL/MOL
REMARK 927      BINDING AFFINITY PREDICTED BY RF-SCORE:    0.00 PKD
ROOT
HETATM    1  C   UNK A   0      -7.994   8.161  69.340  1.00  0.00    -0.114 C  
HETATM    2  C   UNK A   0      -9.058   8.515  68.295  1.00  0.00    -0.138 C  
HETATM    3  C   UNK A   0     -10.183   7.470  68.400  1.00  0.00    -0.211 C  
HETATM    4  C   UNK A   0      -9.605   9.968  68.453  1.00  0.00    -0.153 C  
HETATM    5  C   UNK A   0      -8.549  11.087  68.301  1.00  0.00    -0.143 C  
HETATM    6  C   UNK A   0      -8.114  11.367  66.853  1.00  0.00    -0.158 C  
HETATM    7  C   UNK A   0      -9.274  11.488  65.844  1.00  0.00    -0.223 C  
HETATM    8  C   UNK A   0     -10.261  10.332  66.029  1.00  0.00    -0.298 C  
HETATM    9  C   UNK A   0     -10.750  10.278  67.475  1.00  0.00    -0.348 C  
ENDROOT
BRANCH   7  10
HETATM   10  C   UNK A   0      -9.990  12.850  65.889  1.00  0.00    -0.268 C  
HETATM   11  O   UNK A   0     -10.921  13.154  65.153  1.00  0.00    -0.287 OA 
ATOM     12  N   PHE A   1      -9.521  13.705  66.863  1.00  0.00    -0.253 N  
ATOM     13  H   PHE A   1      -8.706  13.420  67.407  1.00  0.00     0.000 HD 
BRANCH  12  14
ATOM     14  CA  PHE A   1     -10.136  15.003  67.157  1.00  0.00    -0.239 C  
ATOM     15  OXT PHE A   1     -11.314  13.769  68.899  1.00  0.00    -0.254 OA 
ATOM     16  C   PHE A   1     -11.174  14.812  68.270  1.00  0.00    -0.286 C  
ATOM     17  O   PHE A   1     -11.983  15.880  68.471  1.00  0.00    -0.306 OA 
BRANCH  14  18
ATOM     18  CB  PHE A   1      -9.140  16.136  67.472  1.00  0.00    -0.207 C  
BRANCH  18  19
ATOM     19  CG  PHE A   1      -7.827  15.749  68.118  1.00  0.00    -0.133 A  
ATOM     20  CD1 PHE A   1      -6.653  15.717  67.356  1.00  0.00    -0.194 A  
ATOM     21  CE1 PHE A   1      -5.427  15.398  67.940  1.00  0.00    -0.139 A  
ATOM     22  CZ  PHE A   1      -5.354  15.124  69.302  1.00  0.00    -0.095 A  
ATOM     23  CE2 PHE A   1      -6.511  15.163  70.078  1.00  0.00    -0.156 A  
ATOM     24  CD2 PHE A   1      -7.743  15.468  69.490  1.00  0.00    -0.197 A  
ENDBRANCH  18  19
ENDBRANCH  14  18
ENDBRANCH  12  14
ENDBRANCH   7  10
TORSDOF 4
ENDMDL
MODEL      174
REMARK 921   NORMALIZED FREE ENERGY PREDICTED BY IDOCK:   -3.72 KCAL/MOL
REMARK 922        TOTAL FREE ENERGY PREDICTED BY IDOCK:   -5.61 KCAL/MOL
REMARK 923 INTER-LIGAND FREE ENERGY PREDICTED BY IDOCK:   -5.02 KCAL/MOL
REMARK 924 INTRA-LIGAND FREE ENERGY PREDICTED BY IDOCK:   -0.59 KCAL/MOL
REMARK 927      BINDING AFFINITY PREDICTED BY RF-SCORE:    0.00 PKD
ROOT
HETATM    1  C   UNK A   0      -5.510  10.515  70.790  1.00  0.00    -0.093 C  
HETATM    2  C   UNK A   0      -6.176   9.643  69.719  1.00  0.00    -0.045 C  
HETATM    3  C   UNK A   0      -6.427   8.255  70.335  1.00  0.00    -0.036 C  
HETATM    4  C   UNK A   0      -7.488  10.270  69.156  1.00  0.00    -0.105 C  
HETATM    5  C   UNK A   0      -7.317  11.642  68.464  1.00  0.00    -0.102 C  
HETATM    6  C   UNK A   0      -6.699  11.579  67.058  1.00  0.00    -0.143 C  
HETATM    7  C   UNK A   0      -7.309  10.506  66.134  1.00  0.00    -0.136 C  
HETATM    8  C   UNK A   0      -7.419   9.168  66.872  1.00  0.00    -0.091 C  
HETATM    9  C   UNK A   0      -8.210   9.340  68.167  1.00  0.00    -0.119 C  
ENDROOT
BRANCH   7  10
HETATM   10  C   UNK A   0      -8.659  10.919  65.518  1.00  0.00    -0.145 C  
HETATM   11  O   UNK A   0      -9.398  10.148  64.919  1.00  0.00    -0.210 OA 
ATOM     12  N   PHE A   1      -8.997  12.239  65.728  1.00  0.00    -0.416 N  
ATOM     13  H   PHE A   1      -8.316  12.847  66.182  1.00  0.00     0.000 HD 
BRANCH  12  14
ATOM     14  CA  PHE A   1     -10.287  12.811  65.330  1.00  0.00    -0.293 C  
ATOM     15  OXT PHE A   1     -11.070  11.871  67.440  1.00  0.00    -0.246 OA 
ATOM     16  C   PHE A   1     -11.338  12.422  66.378  1.00  0.00    -0.342 C  
ATOM     17  O   PHE A   1     -12.616  12.681  66.012  1.00  0.00    -0.468 OA 
BRANCH  14  18
ATOM     18  CB  PHE A   1     -10.267  14.327  65.054  1.00  0.00    -0.402 C  
BRANCH  18  19
ATOM     19  CG  PHE A   1      -9.878  15.237  66.198  1.00  0.00    -0.333 A  
ATOM     20  CD1 PHE A   1     -10.865  15.797  67.017  1.00  0.00    -0.273 A  
ATOM     21  CE1 PHE A   1     -10.525  16.610  68.099  1.00  0.00    -0.321 A  
ATOM     22  CZ  PHE A   1      -9.187  16.859  68.390  1.00  0.00    -0.253 A  
ATOM     23  CE2 PHE A   1      -8.191  16.300  67.592  1.00  0.00    -0.166 A  
ATOM     24  CD2 PHE A   1      -8.532  15.497  66.498  1.00  0.00    -0.283 A  
ENDBRANCH  18  19
ENDBRANCH  14  18
ENDBRANCH  12  14
ENDBRANCH   7  10
TORSDOF 4
ENDMDL
MODEL      175
REMARK 921   NORMALIZED FREE ENERGY PREDICTED BY IDOCK:   -3.70 KCAL/MOL
REMARK 922        TOTAL FREE ENERGY PREDICTED BY IDOCK:   -5.59 KCAL/MOL
REMARK 923 INTER-LIGAND FREE ENERGY PREDICTED BY IDOCK:   -4.98 KCAL/MOL
REMARK 924 INTRA-LIGAND FREE ENERGY PREDICTED BY IDOCK:   -0.61 KCAL/MOL
REMARK 927      BINDING AFFINITY PREDICTED BY RF-SCORE:    0.00 PKD
ROOT
HETATM    1  C   UNK A   0      -6.010   2.691  69.235  1.00  0.00    -0.024 C  
HETATM    2  C   UNK A   0      -7.483   2.764  68.814  1.00  0.00    -0.048 C  
HETATM    3  C   UNK A   0      -8.228   1.617  69.520  1.00  0.00    -0.064 C  
HETATM    4  C   UNK A   0      -8.133   4.149  69.120  1.00  0.00    -0.070 C  
HETATM    5  C   UNK A   0      -7.482   5.353  68.401  1.00  0.00    -0.073 C  
HETATM    6  C   UNK A   0      -7.831   5.476  66.909  1.00  0.00    -0.101 C  
HETATM    7  C   UNK A   0      -9.329   5.313  66.582  1.00  0.00    -0.139 C  
HETATM    8  C   UNK A   0      -9.899   4.085  67.299  1.00  0.00    -0.132 C  
HETATM    9  C   UNK A   0      -9.637   4.178  68.800  1.00  0.00    -0.210 C  
ENDROOT
BRANCH   7  10
HETATM   10  C   UNK A   0     -10.164   6.573  66.877  1.00  0.00    -0.215 C  
HETATM   11  O   UNK A   0     -11.388   6.583  66.919  1.00  0.00    -0.330 OA 
ATOM     12  N   PHE A   1      -9.416   7.702  67.132  1.00  0.00    -0.147 N  
ATOM     13  H   PHE A   1      -8.403   7.647  67.025  1.00  0.00     0.000 HD 
BRANCH  12  14
ATOM     14  CA  PHE A   1     -10.004   8.978  67.549  1.00  0.00    -0.207 C  
ATOM     15  OXT PHE A   1      -9.547   8.165  69.802  1.00  0.00    -0.170 OA 
ATOM     16  C   PHE A   1     -10.067   9.010  69.081  1.00  0.00    -0.195 C  
ATOM     17  O   PHE A   1     -10.805  10.025  69.590  1.00  0.00    -0.228 OA 
BRANCH  14  18
ATOM     18  CB  PHE A   1      -9.319  10.230  66.965  1.00  0.00    -0.177 C  
BRANCH  18  19
ATOM     19  CG  PHE A   1     -10.106  11.050  65.965  1.00  0.00    -0.297 A  
ATOM     20  CD1 PHE A   1      -9.904  10.866  64.593  1.00  0.00    -0.350 A  
ATOM     21  CE1 PHE A   1     -10.645  11.586  63.655  1.00  0.00    -0.491 A  
ATOM     22  CZ  PHE A   1     -11.614  12.490  64.078  1.00  0.00    -0.485 A  
ATOM     23  CE2 PHE A   1     -11.837  12.677  65.441  1.00  0.00    -0.473 A  
ATOM     24  CD2 PHE A   1     -11.084  11.966  66.382  1.00  0.00    -0.359 A  
ENDBRANCH  18  19
ENDBRANCH  14  18
ENDBRANCH  12  14
ENDBRANCH   7  10
TORSDOF 4
ENDMDL
MODEL      176
REMARK 921   NORMALIZED FREE ENERGY PREDICTED BY IDOCK:   -3.68 KCAL/MOL
REMARK 922        TOTAL FREE ENERGY PREDICTED BY IDOCK:   -5.57 KCAL/MOL
REMARK 923 INTER-LIGAND FREE ENERGY PREDICTED BY IDOCK:   -5.55 KCAL/MOL
REMARK 924 INTRA-LIGAND FREE ENERGY PREDICTED BY IDOCK:   -0.02 KCAL/MOL
REMARK 927      BINDING AFFINITY PREDICTED BY RF-SCORE:    0.00 PKD
ROOT
HETATM    1  C   UNK A   0     -11.600  14.819  67.141  1.00  0.00    -0.373 C  
HETATM    2  C   UNK A   0     -10.652  13.614  67.102  1.00  0.00    -0.272 C  
HETATM    3  C   UNK A   0      -9.374  14.048  66.364  1.00  0.00    -0.242 C  
HETATM    4  C   UNK A   0     -10.334  13.046  68.520  1.00  0.00    -0.247 C  
HETATM    5  C   UNK A   0     -11.558  12.529  69.311  1.00  0.00    -0.378 C  
HETATM    6  C   UNK A   0     -12.096  11.168  68.843  1.00  0.00    -0.276 C  
HETATM    7  C   UNK A   0     -11.016  10.088  68.627  1.00  0.00    -0.247 C  
HETATM    8  C   UNK A   0      -9.852  10.658  67.811  1.00  0.00    -0.187 C  
HETATM    9  C   UNK A   0      -9.296  11.912  68.483  1.00  0.00    -0.142 C  
ENDROOT
BRANCH   7  10
HETATM   10  C   UNK A   0     -10.521   9.441  69.934  1.00  0.00    -0.233 C  
HETATM   11  O   UNK A   0     -10.917   9.765  71.046  1.00  0.00    -0.320 OA 
ATOM     12  N   PHE A   1      -9.609   8.423  69.751  1.00  0.00    -0.170 N  
ATOM     13  H   PHE A   1      -9.273   8.237  68.806  1.00  0.00     0.000 HD 
BRANCH  12  14
ATOM     14  CA  PHE A   1      -9.098   7.596  70.848  1.00  0.00    -0.149 C  
ATOM     15  OXT PHE A   1      -7.638   9.504  71.271  1.00  0.00    -0.327 OA 
ATOM     16  C   PHE A   1      -7.941   8.343  71.524  1.00  0.00    -0.130 C  
ATOM     17  O   PHE A   1      -7.224   7.593  72.396  1.00  0.00    -0.070 OA 
BRANCH  14  18
ATOM     18  CB  PHE A   1     -10.163   7.128  71.859  1.00  0.00    -0.208 C  
BRANCH  18  19
ATOM     19  CG  PHE A   1     -10.194   5.655  72.203  1.00  0.00    -0.247 A  
ATOM     20  CD1 PHE A   1     -11.101   5.176  73.157  1.00  0.00    -0.391 A  
ATOM     21  CE1 PHE A   1     -11.171   3.817  73.462  1.00  0.00    -0.299 A  
ATOM     22  CZ  PHE A   1     -10.345   2.911  72.803  1.00  0.00    -0.232 A  
ATOM     23  CE2 PHE A   1      -9.445   3.369  71.842  1.00  0.00    -0.208 A  
ATOM     24  CD2 PHE A   1      -9.365   4.734  71.546  1.00  0.00    -0.197 A  
ENDBRANCH  18  19
ENDBRANCH  14  18
ENDBRANCH  12  14
ENDBRANCH   7  10
TORSDOF 4
ENDMDL
MODEL      177
REMARK 921   NORMALIZED FREE ENERGY PREDICTED BY IDOCK:   -3.66 KCAL/MOL
REMARK 922        TOTAL FREE ENERGY PREDICTED BY IDOCK:   -5.54 KCAL/MOL
REMARK 923 INTER-LIGAND FREE ENERGY PREDICTED BY IDOCK:   -5.07 KCAL/MOL
REMARK 924 INTRA-LIGAND FREE ENERGY PREDICTED BY IDOCK:   -0.46 KCAL/MOL
REMARK 927      BINDING AFFINITY PREDICTED BY RF-SCORE:    0.00 PKD
ROOT
HETATM    1  C   UNK A   0     -10.059   4.587  71.557  1.00  0.00    -0.239 C  
HETATM    2  C   UNK A   0      -9.574   4.900  70.137  1.00  0.00    -0.263 C  
HETATM    3  C   UNK A   0      -9.567   3.582  69.343  1.00  0.00    -0.171 C  
HETATM    4  C   UNK A   0     -10.434   5.993  69.430  1.00  0.00    -0.331 C  
HETATM    5  C   UNK A   0     -10.449   7.372  70.130  1.00  0.00    -0.228 C  
HETATM    6  C   UNK A   0      -9.169   8.202  69.941  1.00  0.00    -0.151 C  
HETATM    7  C   UNK A   0      -8.650   8.265  68.490  1.00  0.00    -0.133 C  
HETATM    8  C   UNK A   0      -8.632   6.864  67.871  1.00  0.00    -0.122 C  
HETATM    9  C   UNK A   0     -10.014   6.222  67.969  1.00  0.00    -0.149 C  
ENDROOT
BRANCH   7  10
HETATM   10  C   UNK A   0      -9.422   9.260  67.603  1.00  0.00    -0.132 C  
HETATM   11  O   UNK A   0      -9.677   9.062  66.422  1.00  0.00    -0.223 OA 
ATOM     12  N   PHE A   1      -9.845  10.395  68.261  1.00  0.00    -0.151 N  
ATOM     13  H   PHE A   1      -9.553  10.532  69.229  1.00  0.00     0.000 HD 
BRANCH  12  14
ATOM     14  CA  PHE A   1     -10.694  11.415  67.638  1.00  0.00    -0.216 C  
ATOM     15  OXT PHE A   1     -11.088  12.130  69.935  1.00  0.00    -0.001 OA 
ATOM     16  C   PHE A   1     -11.369  12.232  68.746  1.00  0.00    -0.289 C  
ATOM     17  O   PHE A   1     -12.361  13.048  68.316  1.00  0.00    -0.097 OA 
BRANCH  14  18
ATOM     18  CB  PHE A   1      -9.982  12.307  66.602  1.00  0.00    -0.229 C  
BRANCH  18  19
ATOM     19  CG  PHE A   1     -10.771  12.719  65.379  1.00  0.00    -0.309 A  
ATOM     20  CD1 PHE A   1     -11.120  11.764  64.416  1.00  0.00    -0.396 A  
ATOM     21  CE1 PHE A   1     -11.879  12.116  63.298  1.00  0.00    -0.466 A  
ATOM     22  CZ  PHE A   1     -12.316  13.427  63.138  1.00  0.00    -0.084 A  
ATOM     23  CE2 PHE A   1     -11.988  14.387  64.093  1.00  0.00    -0.373 A  
ATOM     24  CD2 PHE A   1     -11.215  14.038  65.206  1.00  0.00    -0.319 A  
ENDBRANCH  18  19
ENDBRANCH  14  18
ENDBRANCH  12  14
ENDBRANCH   7  10
TORSDOF 4
ENDMDL
MODEL      178
REMARK 921   NORMALIZED FREE ENERGY PREDICTED BY IDOCK:   -3.63 KCAL/MOL
REMARK 922        TOTAL FREE ENERGY PREDICTED BY IDOCK:   -5.50 KCAL/MOL
REMARK 923 INTER-LIGAND FREE ENERGY PREDICTED BY IDOCK:   -4.94 KCAL/MOL
REMARK 924 INTRA-LIGAND FREE ENERGY PREDICTED BY IDOCK:   -0.56 KCAL/MOL
REMARK 927      BINDING AFFINITY PREDICTED BY RF-SCORE:    0.00 PKD
ROOT
HETATM    1  C   UNK A   0     -12.734  13.862  65.467  1.00  0.00    -0.536 C  
HETATM    2  C   UNK A   0     -11.932  12.585  65.185  1.00  0.00    -0.484 C  
HETATM    3  C   UNK A   0     -11.555  12.592  63.693  1.00  0.00    -0.580 C  
HETATM    4  C   UNK A   0     -10.675  12.444  66.097  1.00  0.00    -0.292 C  
HETATM    5  C   UNK A   0     -10.969  12.369  67.614  1.00  0.00    -0.276 C  
HETATM    6  C   UNK A   0     -11.519  11.017  68.095  1.00  0.00    -0.374 C  
HETATM    7  C   UNK A   0     -10.756   9.786  67.565  1.00  0.00    -0.327 C  
HETATM    8  C   UNK A   0     -10.530   9.911  66.055  1.00  0.00    -0.112 C  
HETATM    9  C   UNK A   0      -9.816  11.222  65.732  1.00  0.00    -0.273 C  
ENDROOT
BRANCH   7  10
HETATM   10  C   UNK A   0      -9.436   9.511  68.309  1.00  0.00    -0.133 C  
HETATM   11  O   UNK A   0      -8.478   8.938  67.806  1.00  0.00    -0.123 OA 
ATOM     12  N   PHE A   1      -9.400  10.000  69.597  1.00  0.00    -0.246 N  
ATOM     13  H   PHE A   1     -10.249  10.416  69.982  1.00  0.00     0.000 HD 
BRANCH  12  14
ATOM     14  CA  PHE A   1      -8.203   9.951  70.442  1.00  0.00     0.036 C  
ATOM     15  OXT PHE A   1      -8.960   7.689  70.949  1.00  0.00    -0.145 OA 
ATOM     16  C   PHE A   1      -8.182   8.608  71.182  1.00  0.00    -0.153 C  
ATOM     17  O   PHE A   1      -7.262   8.529  72.173  1.00  0.00    -0.107 OA 
BRANCH  14  18
ATOM     18  CB  PHE A   1      -6.878  10.237  69.707  1.00  0.00    -0.120 C  
BRANCH  18  19
ATOM     19  CG  PHE A   1      -6.597  11.670  69.313  1.00  0.00    -0.111 A  
ATOM     20  CD1 PHE A   1      -5.967  12.535  70.216  1.00  0.00    -0.126 A  
ATOM     21  CE1 PHE A   1      -5.666  13.850  69.859  1.00  0.00    -0.116 A  
ATOM     22  CZ  PHE A   1      -5.974  14.314  68.584  1.00  0.00    -0.085 A  
ATOM     23  CE2 PHE A   1      -6.590  13.462  67.669  1.00  0.00    -0.174 A  
ATOM     24  CD2 PHE A   1      -6.905  12.149  68.031  1.00  0.00    -0.081 A  
ENDBRANCH  18  19
ENDBRANCH  14  18
ENDBRANCH  12  14
ENDBRANCH   7  10
TORSDOF 4
ENDMDL
MODEL      179
REMARK 921   NORMALIZED FREE ENERGY PREDICTED BY IDOCK:   -3.61 KCAL/MOL
REMARK 922        TOTAL FREE ENERGY PREDICTED BY IDOCK:   -5.48 KCAL/MOL
REMARK 923 INTER-LIGAND FREE ENERGY PREDICTED BY IDOCK:   -5.04 KCAL/MOL
REMARK 924 INTRA-LIGAND FREE ENERGY PREDICTED BY IDOCK:   -0.44 KCAL/MOL
REMARK 927      BINDING AFFINITY PREDICTED BY RF-SCORE:    0.00 PKD
ROOT
HETATM    1  C   UNK A   0     -10.265  10.489  64.688  1.00  0.00    -0.364 C  
HETATM    2  C   UNK A   0     -10.509  11.121  66.063  1.00  0.00    -0.312 C  
HETATM    3  C   UNK A   0     -11.454  12.319  65.866  1.00  0.00    -0.428 C  
HETATM    4  C   UNK A   0     -11.072  10.106  67.106  1.00  0.00    -0.122 C  
HETATM    5  C   UNK A   0     -10.155   8.899  67.410  1.00  0.00    -0.288 C  
HETATM    6  C   UNK A   0      -8.953   9.217  68.312  1.00  0.00    -0.129 C  
HETATM    7  C   UNK A   0      -9.290  10.051  69.564  1.00  0.00    -0.247 C  
HETATM    8  C   UNK A   0     -10.170  11.246  69.186  1.00  0.00    -0.123 C  
HETATM    9  C   UNK A   0     -11.421  10.771  68.448  1.00  0.00    -0.358 C  
ENDROOT
BRANCH   7  10
HETATM   10  C   UNK A   0      -9.922   9.228  70.702  1.00  0.00    -0.273 C  
HETATM   11  O   UNK A   0     -10.709   9.688  71.519  1.00  0.00    -0.301 OA 
ATOM     12  N   PHE A   1      -9.555   7.899  70.709  1.00  0.00    -0.165 N  
ATOM     13  H   PHE A   1      -8.851   7.586  70.041  1.00  0.00     0.000 HD 
BRANCH  12  14
ATOM     14  CA  PHE A   1     -10.128   6.913  71.631  1.00  0.00    -0.190 C  
ATOM     15  OXT PHE A   1     -12.018   6.944  70.092  1.00  0.00    -0.271 OA 
ATOM     16  C   PHE A   1     -11.545   6.567  71.159  1.00  0.00    -0.335 C  
ATOM     17  O   PHE A   1     -12.275   5.853  72.049  1.00  0.00    -0.176 OA 
BRANCH  14  18
ATOM     18  CB  PHE A   1      -9.263   5.657  71.858  1.00  0.00    -0.157 C  
BRANCH  18  19
ATOM     19  CG  PHE A   1      -8.888   4.842  70.639  1.00  0.00    -0.146 A  
ATOM     20  CD1 PHE A   1      -9.697   3.774  70.233  1.00  0.00    -0.222 A  
ATOM     21  CE1 PHE A   1      -9.388   3.033  69.092  1.00  0.00    -0.220 A  
ATOM     22  CZ  PHE A   1      -8.273   3.363  68.328  1.00  0.00    -0.088 A  
ATOM     23  CE2 PHE A   1      -7.463   4.430  68.711  1.00  0.00    -0.060 A  
ATOM     24  CD2 PHE A   1      -7.764   5.164  69.864  1.00  0.00    -0.068 A  
ENDBRANCH  18  19
ENDBRANCH  14  18
ENDBRANCH  12  14
ENDBRANCH   7  10
TORSDOF 4
ENDMDL
MODEL      180
REMARK 921   NORMALIZED FREE ENERGY PREDICTED BY IDOCK:   -3.60 KCAL/MOL
REMARK 922        TOTAL FREE ENERGY PREDICTED BY IDOCK:   -5.47 KCAL/MOL
REMARK 923 INTER-LIGAND FREE ENERGY PREDICTED BY IDOCK:   -4.94 KCAL/MOL
REMARK 924 INTRA-LIGAND FREE ENERGY PREDICTED BY IDOCK:   -0.53 KCAL/MOL
REMARK 927      BINDING AFFINITY PREDICTED BY RF-SCORE:    0.00 PKD
ROOT
HETATM    1  C   UNK A   0      -9.485   8.550  67.054  1.00  0.00    -0.223 C  
HETATM    2  C   UNK A   0      -8.274   9.433  67.378  1.00  0.00    -0.121 C  
HETATM    3  C   UNK A   0      -7.006   8.632  67.034  1.00  0.00    -0.074 C  
HETATM    4  C   UNK A   0      -8.309  10.805  66.637  1.00  0.00    -0.141 C  
HETATM    5  C   UNK A   0      -9.523  11.703  66.972  1.00  0.00    -0.191 C  
HETATM    6  C   UNK A   0      -9.448  12.399  68.340  1.00  0.00    -0.169 C  
HETATM    7  C   UNK A   0      -8.095  13.072  68.647  1.00  0.00    -0.011 C  
HETATM    8  C   UNK A   0      -6.942  12.117  68.324  1.00  0.00    -0.080 C  
HETATM    9  C   UNK A   0      -7.039  11.638  66.877  1.00  0.00    -0.124 C  
ENDROOT
BRANCH   7  10
HETATM   10  C   UNK A   0      -7.910  14.432  67.948  1.00  0.00    -0.150 C  
HETATM   11  O   UNK A   0      -6.914  14.735  67.302  1.00  0.00    -0.218 OA 
ATOM     12  N   PHE A   1      -8.986  15.284  68.074  1.00  0.00    -0.170 N  
ATOM     13  H   PHE A   1      -9.762  15.001  68.672  1.00  0.00     0.000 HD 
BRANCH  12  14
ATOM     14  CA  PHE A   1      -9.069  16.580  67.392  1.00  0.00    -0.204 C  
ATOM     15  OXT PHE A   1     -11.221  15.745  66.608  1.00  0.00    -0.174 OA 
ATOM     16  C   PHE A   1     -10.353  16.609  66.555  1.00  0.00    -0.299 C  
ATOM     17  O   PHE A   1     -10.434  17.648  65.689  1.00  0.00    -0.606 OA 
BRANCH  14  18
ATOM     18  CB  PHE A   1      -8.942  17.808  68.314  1.00  0.00    -0.277 C  
BRANCH  18  19
ATOM     19  CG  PHE A   1      -7.781  18.747  68.067  1.00  0.00    -0.286 A  
ATOM     20  CD1 PHE A   1      -7.910  19.796  67.149  1.00  0.00    -0.308 A  
ATOM     21  CE1 PHE A   1      -6.865  20.694  66.933  1.00  0.00    -0.353 A  
ATOM     22  CZ  PHE A   1      -5.678  20.566  67.648  1.00  0.00    -0.251 A  
ATOM     23  CE2 PHE A   1      -5.536  19.534  68.574  1.00  0.00    -0.224 A  
ATOM     24  CD2 PHE A   1      -6.579  18.625  68.780  1.00  0.00    -0.281 A  
ENDBRANCH  18  19
ENDBRANCH  14  18
ENDBRANCH  12  14
ENDBRANCH   7  10
TORSDOF 4
ENDMDL
MODEL      181
REMARK 921   NORMALIZED FREE ENERGY PREDICTED BY IDOCK:   -3.59 KCAL/MOL
REMARK 922        TOTAL FREE ENERGY PREDICTED BY IDOCK:   -5.45 KCAL/MOL
REMARK 923 INTER-LIGAND FREE ENERGY PREDICTED BY IDOCK:   -5.68 KCAL/MOL
REMARK 924 INTRA-LIGAND FREE ENERGY PREDICTED BY IDOCK:    0.22 KCAL/MOL
REMARK 927      BINDING AFFINITY PREDICTED BY RF-SCORE:    0.00 PKD
ROOT
HETATM    1  C   UNK A   0      -6.975   9.644  70.280  1.00  0.00    -0.119 C  
HETATM    2  C   UNK A   0      -8.297   9.478  69.521  1.00  0.00    -0.145 C  
HETATM    3  C   UNK A   0      -9.165   8.480  70.307  1.00  0.00    -0.164 C  
HETATM    4  C   UNK A   0      -9.038  10.831  69.292  1.00  0.00    -0.056 C  
HETATM    5  C   UNK A   0      -8.259  11.874  68.456  1.00  0.00    -0.126 C  
HETATM    6  C   UNK A   0      -8.226  11.592  66.946  1.00  0.00    -0.167 C  
HETATM    7  C   UNK A   0      -9.590  11.220  66.330  1.00  0.00    -0.235 C  
HETATM    8  C   UNK A   0     -10.290  10.162  67.188  1.00  0.00    -0.295 C  
HETATM    9  C   UNK A   0     -10.415  10.646  68.631  1.00  0.00    -0.211 C  
ENDROOT
BRANCH   7  10
HETATM   10  C   UNK A   0     -10.505  12.433  66.080  1.00  0.00    -0.254 C  
HETATM   11  O   UNK A   0     -11.484  12.407  65.346  1.00  0.00    -0.331 OA 
ATOM     12  N   PHE A   1     -10.152  13.563  66.786  1.00  0.00    -0.262 N  
ATOM     13  H   PHE A   1      -9.293  13.543  67.336  1.00  0.00     0.000 HD 
BRANCH  12  14
ATOM     14  CA  PHE A   1     -10.951  14.792  66.787  1.00  0.00    -0.327 C  
ATOM     15  OXT PHE A   1     -10.621  14.708  69.201  1.00  0.00    -0.239 OA 
ATOM     16  C   PHE A   1     -11.176  15.229  68.240  1.00  0.00    -0.314 C  
ATOM     17  O   PHE A   1     -12.096  16.211  68.394  1.00  0.00    -0.030 OA 
BRANCH  14  18
ATOM     18  CB  PHE A   1     -10.391  15.931  65.912  1.00  0.00    -0.383 C  
BRANCH  18  19
ATOM     19  CG  PHE A   1      -9.918  17.183  66.620  1.00  0.00    -0.298 A  
ATOM     20  CD1 PHE A   1      -8.756  17.151  67.399  1.00  0.00    -0.211 A  
ATOM     21  CE1 PHE A   1      -8.283  18.303  68.029  1.00  0.00    -0.274 A  
ATOM     22  CZ  PHE A   1      -8.958  19.510  67.873  1.00  0.00    -0.378 A  
ATOM     23  CE2 PHE A   1     -10.111  19.561  67.091  1.00  0.00    -0.515 A  
ATOM     24  CD2 PHE A   1     -10.593  18.404  66.471  1.00  0.00    -0.344 A  
ENDBRANCH  18  19
ENDBRANCH  14  18
ENDBRANCH  12  14
ENDBRANCH   7  10
TORSDOF 4
ENDMDL
MODEL      182
REMARK 921   NORMALIZED FREE ENERGY PREDICTED BY IDOCK:   -3.58 KCAL/MOL
REMARK 922        TOTAL FREE ENERGY PREDICTED BY IDOCK:   -5.44 KCAL/MOL
REMARK 923 INTER-LIGAND FREE ENERGY PREDICTED BY IDOCK:   -5.12 KCAL/MOL
REMARK 924 INTRA-LIGAND FREE ENERGY PREDICTED BY IDOCK:   -0.32 KCAL/MOL
REMARK 927      BINDING AFFINITY PREDICTED BY RF-SCORE:    0.00 PKD
ROOT
HETATM    1  C   UNK A   0     -10.308   6.151  70.396  1.00  0.00    -0.269 C  
HETATM    2  C   UNK A   0      -9.870   6.262  68.931  1.00  0.00    -0.155 C  
HETATM    3  C   UNK A   0     -10.378   5.010  68.195  1.00  0.00    -0.091 C  
HETATM    4  C   UNK A   0     -10.367   7.574  68.248  1.00  0.00    -0.233 C  
HETATM    5  C   UNK A   0      -9.853   8.884  68.889  1.00  0.00    -0.182 C  
HETATM    6  C   UNK A   0      -8.389   9.225  68.568  1.00  0.00    -0.119 C  
HETATM    7  C   UNK A   0      -8.007   9.089  67.080  1.00  0.00    -0.102 C  
HETATM    8  C   UNK A   0      -8.518   7.758  66.520  1.00  0.00    -0.132 C  
HETATM    9  C   UNK A   0     -10.022   7.627  66.750  1.00  0.00    -0.317 C  
ENDROOT
BRANCH   7  10
HETATM   10  C   UNK A   0      -8.470  10.276  66.215  1.00  0.00    -0.135 C  
HETATM   11  O   UNK A   0      -8.365  10.310  64.995  1.00  0.00    -0.159 OA 
ATOM     12  N   PHE A   1      -9.057  11.301  66.926  1.00  0.00    -0.163 N  
ATOM     13  H   PHE A   1      -9.063  11.243  67.945  1.00  0.00     0.000 HD 
BRANCH  12  14
ATOM     14  CA  PHE A   1      -9.671  12.471  66.291  1.00  0.00    -0.254 C  
ATOM     15  OXT PHE A   1     -11.766  11.330  66.797  1.00  0.00    -0.418 OA 
ATOM     16  C   PHE A   1     -11.189  12.257  66.238  1.00  0.00    -0.323 C  
ATOM     17  O   PHE A   1     -11.854  13.148  65.465  1.00  0.00    -0.341 OA 
BRANCH  14  18
ATOM     18  CB  PHE A   1      -9.292  13.825  66.921  1.00  0.00    -0.267 C  
BRANCH  18  19
ATOM     19  CG  PHE A   1     -10.295  14.463  67.857  1.00  0.00    -0.232 A  
ATOM     20  CD1 PHE A   1     -10.647  13.822  69.050  1.00  0.00    -0.161 A  
ATOM     21  CE1 PHE A   1     -11.542  14.410  69.944  1.00  0.00    -0.341 A  
ATOM     22  CZ  PHE A   1     -12.085  15.660  69.665  1.00  0.00    -0.329 A  
ATOM     23  CE2 PHE A   1     -11.737  16.318  68.487  1.00  0.00    -0.083 A  
ATOM     24  CD2 PHE A   1     -10.850  15.722  67.584  1.00  0.00    -0.310 A  
ENDBRANCH  18  19
ENDBRANCH  14  18
ENDBRANCH  12  14
ENDBRANCH   7  10
TORSDOF 4
ENDMDL
MODEL      183
REMARK 921   NORMALIZED FREE ENERGY PREDICTED BY IDOCK:   -3.57 KCAL/MOL
REMARK 922        TOTAL FREE ENERGY PREDICTED BY IDOCK:   -5.43 KCAL/MOL
REMARK 923 INTER-LIGAND FREE ENERGY PREDICTED BY IDOCK:   -4.77 KCAL/MOL
REMARK 924 INTRA-LIGAND FREE ENERGY PREDICTED BY IDOCK:   -0.66 KCAL/MOL
REMARK 927      BINDING AFFINITY PREDICTED BY RF-SCORE:    0.00 PKD
ROOT
HETATM    1  C   UNK A   0     -11.034  11.562  64.817  1.00  0.00    -0.338 C  
HETATM    2  C   UNK A   0     -10.052  12.044  65.892  1.00  0.00    -0.264 C  
HETATM    3  C   UNK A   0     -10.058  13.582  65.875  1.00  0.00    -0.311 C  
HETATM    4  C   UNK A   0     -10.381  11.482  67.310  1.00  0.00    -0.236 C  
HETATM    5  C   UNK A   0     -10.338   9.940  67.432  1.00  0.00    -0.301 C  
HETATM    6  C   UNK A   0      -8.924   9.340  67.479  1.00  0.00    -0.127 C  
HETATM    7  C   UNK A   0      -7.954  10.050  68.444  1.00  0.00    -0.097 C  
HETATM    8  C   UNK A   0      -8.024  11.567  68.246  1.00  0.00    -0.142 C  
HETATM    9  C   UNK A   0      -9.463  12.057  68.401  1.00  0.00    -0.181 C  
ENDROOT
BRANCH   7  10
HETATM   10  C   UNK A   0      -8.162   9.667  69.921  1.00  0.00    -0.174 C  
HETATM   11  O   UNK A   0      -7.416  10.016  70.826  1.00  0.00    -0.298 OA 
ATOM     12  N   PHE A   1      -9.295   8.918  70.157  1.00  0.00    -0.170 N  
ATOM     13  H   PHE A   1      -9.847   8.608  69.357  1.00  0.00     0.000 HD 
BRANCH  12  14
ATOM     14  CA  PHE A   1      -9.746   8.545  71.501  1.00  0.00    -0.234 C  
ATOM     15  OXT PHE A   1     -11.974   8.926  70.586  1.00  0.00    -0.210 OA 
ATOM     16  C   PHE A   1     -11.271   8.696  71.564  1.00  0.00    -0.290 C  
ATOM     17  O   PHE A   1     -11.791   8.615  72.812  1.00  0.00    -0.270 OA 
BRANCH  14  18
ATOM     18  CB  PHE A   1      -9.274   7.159  71.983  1.00  0.00    -0.146 C  
BRANCH  18  19
ATOM     19  CG  PHE A   1      -9.001   6.111  70.926  1.00  0.00    -0.144 A  
ATOM     20  CD1 PHE A   1      -7.691   5.875  70.493  1.00  0.00    -0.100 A  
ATOM     21  CE1 PHE A   1      -7.415   4.888  69.547  1.00  0.00    -0.056 A  
ATOM     22  CZ  PHE A   1      -8.446   4.108  69.032  1.00  0.00    -0.101 A  
ATOM     23  CE2 PHE A   1      -9.755   4.321  69.461  1.00  0.00    -0.272 A  
ATOM     24  CD2 PHE A   1     -10.034   5.321  70.399  1.00  0.00    -0.303 A  
ENDBRANCH  18  19
ENDBRANCH  14  18
ENDBRANCH  12  14
ENDBRANCH   7  10
TORSDOF 4
ENDMDL
MODEL      184
REMARK 921   NORMALIZED FREE ENERGY PREDICTED BY IDOCK:   -3.55 KCAL/MOL
REMARK 922        TOTAL FREE ENERGY PREDICTED BY IDOCK:   -5.40 KCAL/MOL
REMARK 923 INTER-LIGAND FREE ENERGY PREDICTED BY IDOCK:   -5.10 KCAL/MOL
REMARK 924 INTRA-LIGAND FREE ENERGY PREDICTED BY IDOCK:   -0.30 KCAL/MOL
REMARK 927      BINDING AFFINITY PREDICTED BY RF-SCORE:    0.00 PKD
ROOT
HETATM    1  C   UNK A   0      -7.315   5.157  65.497  1.00  0.00    -0.073 C  
HETATM    2  C   UNK A   0      -7.583   4.204  66.668  1.00  0.00    -0.089 C  
HETATM    3  C   UNK A   0      -6.632   3.003  66.521  1.00  0.00    -0.036 C  
HETATM    4  C   UNK A   0      -7.430   4.894  68.058  1.00  0.00    -0.075 C  
HETATM    5  C   UNK A   0      -8.393   6.076  68.315  1.00  0.00    -0.113 C  
HETATM    6  C   UNK A   0      -9.840   5.668  68.633  1.00  0.00    -0.190 C  
HETATM    7  C   UNK A   0      -9.977   4.539  69.675  1.00  0.00    -0.251 C  
HETATM    8  C   UNK A   0      -9.021   3.390  69.341  1.00  0.00    -0.178 C  
HETATM    9  C   UNK A   0      -7.589   3.907  69.228  1.00  0.00    -0.053 C  
ENDROOT
BRANCH   7  10
HETATM   10  C   UNK A   0      -9.796   5.016  71.128  1.00  0.00    -0.187 C  
HETATM   11  O   UNK A   0      -9.668   4.259  72.081  1.00  0.00    -0.145 OA 
ATOM     12  N   PHE A   1      -9.749   6.386  71.272  1.00  0.00    -0.174 N  
ATOM     13  H   PHE A   1      -9.920   6.967  70.451  1.00  0.00     0.000 HD 
BRANCH  12  14
ATOM     14  CA  PHE A   1      -9.467   7.050  72.548  1.00  0.00    -0.142 C  
ATOM     15  OXT PHE A   1      -7.772   8.244  71.265  1.00  0.00    -0.082 OA 
ATOM     16  C   PHE A   1      -8.271   7.991  72.356  1.00  0.00    -0.145 C  
ATOM     17  O   PHE A   1      -7.755   8.484  73.507  1.00  0.00    -0.345 OA 
BRANCH  14  18
ATOM     18  CB  PHE A   1     -10.675   7.762  73.191  1.00  0.00    -0.414 C  
BRANCH  18  19
ATOM     19  CG  PHE A   1     -11.512   8.653  72.299  1.00  0.00    -0.423 A  
ATOM     20  CD1 PHE A   1     -12.903   8.689  72.451  1.00  0.00    -0.413 A  
ATOM     21  CE1 PHE A   1     -13.689   9.531  71.664  1.00  0.00    -0.365 A  
ATOM     22  CZ  PHE A   1     -13.092  10.365  70.724  1.00  0.00    -0.362 A  
ATOM     23  CE2 PHE A   1     -11.707  10.350  70.568  1.00  0.00    -0.434 A  
ATOM     24  CD2 PHE A   1     -10.920   9.496  71.347  1.00  0.00    -0.415 A  
ENDBRANCH  18  19
ENDBRANCH  14  18
ENDBRANCH  12  14
ENDBRANCH   7  10
TORSDOF 4
ENDMDL
MODEL      185
REMARK 921   NORMALIZED FREE ENERGY PREDICTED BY IDOCK:   -3.53 KCAL/MOL
REMARK 922        TOTAL FREE ENERGY PREDICTED BY IDOCK:   -5.39 KCAL/MOL
REMARK 923 INTER-LIGAND FREE ENERGY PREDICTED BY IDOCK:   -4.90 KCAL/MOL
REMARK 924 INTRA-LIGAND FREE ENERGY PREDICTED BY IDOCK:   -0.49 KCAL/MOL
REMARK 927      BINDING AFFINITY PREDICTED BY RF-SCORE:    0.00 PKD
ROOT
HETATM    1  C   UNK A   0      -9.293   3.545  69.689  1.00  0.00    -0.244 C  
HETATM    2  C   UNK A   0      -9.680   4.846  70.403  1.00  0.00    -0.284 C  
HETATM    3  C   UNK A   0      -9.310   4.692  71.889  1.00  0.00    -0.185 C  
HETATM    4  C   UNK A   0      -9.014   6.106  69.770  1.00  0.00    -0.138 C  
HETATM    5  C   UNK A   0      -9.381   6.371  68.292  1.00  0.00    -0.109 C  
HETATM    6  C   UNK A   0     -10.786   6.956  68.074  1.00  0.00    -0.276 C  
HETATM    7  C   UNK A   0     -11.147   8.129  69.006  1.00  0.00     0.223 C  
HETATM    8  C   UNK A   0     -10.788   7.786  70.455  1.00  0.00    -0.245 C  
HETATM    9  C   UNK A   0      -9.317   7.392  70.558  1.00  0.00    -0.157 C  
ENDROOT
BRANCH   7  10
HETATM   10  C   UNK A   0     -10.525   9.472  68.577  1.00  0.00    -0.217 C  
HETATM   11  O   UNK A   0      -9.684  10.072  69.234  1.00  0.00    -0.191 OA 
ATOM     12  N   PHE A   1     -10.968   9.936  67.357  1.00  0.00    -0.331 N  
ATOM     13  H   PHE A   1     -11.712   9.424  66.884  1.00  0.00     0.000 HD 
BRANCH  12  14
ATOM     14  CA  PHE A   1     -10.423  11.131  66.707  1.00  0.00    -0.252 C  
ATOM     15  OXT PHE A   1     -10.160   9.657  64.783  1.00  0.00    -0.007 OA 
ATOM     16  C   PHE A   1      -9.947  10.748  65.300  1.00  0.00    -0.282 C  
ATOM     17  O   PHE A   1      -9.205  11.698  64.681  1.00  0.00    -0.041 OA 
BRANCH  14  18
ATOM     18  CB  PHE A   1     -11.365  12.351  66.694  1.00  0.00    -0.394 C  
BRANCH  18  19
ATOM     19  CG  PHE A   1     -11.243  13.336  67.837  1.00  0.00    -0.302 A  
ATOM     20  CD1 PHE A   1     -11.943  13.118  69.029  1.00  0.00    -0.329 A  
ATOM     21  CE1 PHE A   1     -11.816  13.994  70.107  1.00  0.00    -0.377 A  
ATOM     22  CZ  PHE A   1     -10.970  15.095  70.014  1.00  0.00    -0.291 A  
ATOM     23  CE2 PHE A   1     -10.256  15.321  68.839  1.00  0.00    -0.232 A  
ATOM     24  CD2 PHE A   1     -10.395  14.450  67.753  1.00  0.00    -0.238 A  
ENDBRANCH  18  19
ENDBRANCH  14  18
ENDBRANCH  12  14
ENDBRANCH   7  10
TORSDOF 4
ENDMDL
MODEL      186
REMARK 921   NORMALIZED FREE ENERGY PREDICTED BY IDOCK:   -3.53 KCAL/MOL
REMARK 922        TOTAL FREE ENERGY PREDICTED BY IDOCK:   -5.39 KCAL/MOL
REMARK 923 INTER-LIGAND FREE ENERGY PREDICTED BY IDOCK:   -4.64 KCAL/MOL
REMARK 924 INTRA-LIGAND FREE ENERGY PREDICTED BY IDOCK:   -0.75 KCAL/MOL
REMARK 927      BINDING AFFINITY PREDICTED BY RF-SCORE:    0.00 PKD
ROOT
HETATM    1  C   UNK A   0     -12.740  10.559  70.726  1.00  0.00    -0.471 C  
HETATM    2  C   UNK A   0     -12.352   9.534  71.799  1.00  0.00    -0.474 C  
HETATM    3  C   UNK A   0     -13.637   9.123  72.540  1.00  0.00    -0.497 C  
HETATM    4  C   UNK A   0     -11.604   8.297  71.213  1.00  0.00    -0.318 C  
HETATM    5  C   UNK A   0     -10.268   8.613  70.501  1.00  0.00    -0.229 C  
HETATM    6  C   UNK A   0      -9.096   8.923  71.446  1.00  0.00    -0.318 C  
HETATM    7  C   UNK A   0      -8.937   7.938  72.621  1.00  0.00    -0.251 C  
HETATM    8  C   UNK A   0     -10.290   7.697  73.299  1.00  0.00    -0.405 C  
HETATM    9  C   UNK A   0     -11.319   7.222  72.275  1.00  0.00    -0.310 C  
ENDROOT
BRANCH   7  10
HETATM   10  C   UNK A   0      -8.263   6.611  72.227  1.00  0.00    -0.104 C  
HETATM   11  O   UNK A   0      -7.864   5.784  73.036  1.00  0.00    -0.102 OA 
ATOM     12  N   PHE A   1      -8.176   6.403  70.867  1.00  0.00    -0.124 N  
ATOM     13  H   PHE A   1      -8.472   7.153  70.241  1.00  0.00     0.000 HD 
BRANCH  12  14
ATOM     14  CA  PHE A   1      -7.678   5.158  70.275  1.00  0.00    -0.071 C  
ATOM     15  OXT PHE A   1      -9.936   4.345  70.705  1.00  0.00    -0.204 OA 
ATOM     16  C   PHE A   1      -8.786   4.101  70.355  1.00  0.00    -0.085 C  
ATOM     17  O   PHE A   1      -8.382   2.841  70.064  1.00  0.00    -0.044 OA 
BRANCH  14  18
ATOM     18  CB  PHE A   1      -7.105   5.300  68.851  1.00  0.00    -0.061 C  
BRANCH  18  19
ATOM     19  CG  PHE A   1      -7.342   6.610  68.133  1.00  0.00    -0.090 A  
ATOM     20  CD1 PHE A   1      -8.569   6.853  67.504  1.00  0.00    -0.121 A  
ATOM     21  CE1 PHE A   1      -8.821   8.069  66.868  1.00  0.00    -0.146 A  
ATOM     22  CZ  PHE A   1      -7.854   9.069  66.867  1.00  0.00    -0.101 A  
ATOM     23  CE2 PHE A   1      -6.631   8.848  67.499  1.00  0.00    -0.062 A  
ATOM     24  CD2 PHE A   1      -6.373   7.624  68.124  1.00  0.00    -0.049 A  
ENDBRANCH  18  19
ENDBRANCH  14  18
ENDBRANCH  12  14
ENDBRANCH   7  10
TORSDOF 4
ENDMDL
MODEL      187
REMARK 921   NORMALIZED FREE ENERGY PREDICTED BY IDOCK:   -3.53 KCAL/MOL
REMARK 922        TOTAL FREE ENERGY PREDICTED BY IDOCK:   -5.38 KCAL/MOL
REMARK 923 INTER-LIGAND FREE ENERGY PREDICTED BY IDOCK:   -5.43 KCAL/MOL
REMARK 924 INTRA-LIGAND FREE ENERGY PREDICTED BY IDOCK:    0.05 KCAL/MOL
REMARK 927      BINDING AFFINITY PREDICTED BY RF-SCORE:    0.00 PKD
ROOT
HETATM    1  C   UNK A   0     -11.671  13.156  63.934  1.00  0.00    -0.515 C  
HETATM    2  C   UNK A   0     -10.878  11.926  64.391  1.00  0.00    -0.384 C  
HETATM    3  C   UNK A   0      -9.881  11.571  63.275  1.00  0.00    -0.431 C  
HETATM    4  C   UNK A   0     -10.160  12.141  65.759  1.00  0.00    -0.272 C  
HETATM    5  C   UNK A   0     -11.096  12.443  66.953  1.00  0.00    -0.335 C  
HETATM    6  C   UNK A   0     -11.855  11.223  67.498  1.00  0.00    -0.030 C  
HETATM    7  C   UNK A   0     -10.986   9.968  67.714  1.00  0.00    -0.310 C  
HETATM    8  C   UNK A   0     -10.111   9.710  66.484  1.00  0.00    -0.314 C  
HETATM    9  C   UNK A   0      -9.277  10.946  66.157  1.00  0.00    -0.205 C  
ENDROOT
BRANCH   7  10
HETATM   10  C   UNK A   0     -10.143  10.015  69.002  1.00  0.00    -0.200 C  
HETATM   11  O   UNK A   0     -10.459  10.652  69.999  1.00  0.00    -0.186 OA 
ATOM     12  N   PHE A   1      -9.002   9.243  68.960  1.00  0.00    -0.138 N  
ATOM     13  H   PHE A   1      -8.760   8.782  68.083  1.00  0.00     0.000 HD 
BRANCH  12  14
ATOM     14  CA  PHE A   1      -8.119   9.052  70.115  1.00  0.00    -0.126 C  
ATOM     15  OXT PHE A   1      -7.343  11.299  69.575  1.00  0.00    -0.081 OA 
ATOM     16  C   PHE A   1      -7.208  10.279  70.241  1.00  0.00    -0.065 C  
ATOM     17  O   PHE A   1      -6.184  10.130  71.116  1.00  0.00    -0.289 OA 
BRANCH  14  18
ATOM     18  CB  PHE A   1      -8.840   8.718  71.436  1.00  0.00    -0.292 C  
BRANCH  18  19
ATOM     19  CG  PHE A   1      -9.331   7.299  71.621  1.00  0.00    -0.160 A  
ATOM     20  CD1 PHE A   1      -8.579   6.227  71.127  1.00  0.00    -0.125 A  
ATOM     21  CE1 PHE A   1      -8.996   4.909  71.320  1.00  0.00    -0.163 A  
ATOM     22  CZ  PHE A   1     -10.164   4.644  72.028  1.00  0.00    -0.258 A  
ATOM     23  CE2 PHE A   1     -10.919   5.700  72.536  1.00  0.00    -0.313 A  
ATOM     24  CD2 PHE A   1     -10.509   7.021  72.331  1.00  0.00    -0.236 A  
ENDBRANCH  18  19
ENDBRANCH  14  18
ENDBRANCH  12  14
ENDBRANCH   7  10
TORSDOF 4
ENDMDL
MODEL      188
REMARK 921   NORMALIZED FREE ENERGY PREDICTED BY IDOCK:   -3.49 KCAL/MOL
REMARK 922        TOTAL FREE ENERGY PREDICTED BY IDOCK:   -5.33 KCAL/MOL
REMARK 923 INTER-LIGAND FREE ENERGY PREDICTED BY IDOCK:   -4.61 KCAL/MOL
REMARK 924 INTRA-LIGAND FREE ENERGY PREDICTED BY IDOCK:   -0.73 KCAL/MOL
REMARK 927      BINDING AFFINITY PREDICTED BY RF-SCORE:    0.00 PKD
ROOT
HETATM    1  C   UNK A   0     -12.537   7.092  71.556  1.00  0.00    -0.426 C  
HETATM    2  C   UNK A   0     -12.738   8.561  71.165  1.00  0.00    -0.127 C  
HETATM    3  C   UNK A   0     -13.660   9.202  72.217  1.00  0.00    -0.548 C  
HETATM    4  C   UNK A   0     -11.394   9.340  71.024  1.00  0.00    -0.390 C  
HETATM    5  C   UNK A   0     -10.430   8.797  69.944  1.00  0.00    -0.227 C  
HETATM    6  C   UNK A   0     -10.826   9.141  68.499  1.00  0.00    -0.089 C  
HETATM    7  C   UNK A   0     -11.221  10.614  68.273  1.00  0.00    -0.362 C  
HETATM    8  C   UNK A   0     -12.200  11.074  69.357  1.00  0.00    -0.329 C  
HETATM    9  C   UNK A   0     -11.606  10.837  70.744  1.00  0.00    -0.322 C  
ENDROOT
BRANCH   7  10
HETATM   10  C   UNK A   0     -10.015  11.567  68.165  1.00  0.00    -0.192 C  
HETATM   11  O   UNK A   0     -10.095  12.782  68.289  1.00  0.00    -0.229 OA 
ATOM     12  N   PHE A   1      -8.810  10.932  67.952  1.00  0.00    -0.132 N  
ATOM     13  H   PHE A   1      -8.813   9.924  67.799  1.00  0.00     0.000 HD 
BRANCH  12  14
ATOM     14  CA  PHE A   1      -7.524  11.636  67.935  1.00  0.00    -0.105 C  
ATOM     15  OXT PHE A   1      -7.257  10.681  70.162  1.00  0.00    -0.169 OA 
ATOM     16  C   PHE A   1      -6.843  11.442  69.295  1.00  0.00    -0.119 C  
ATOM     17  O   PHE A   1      -5.763  12.235  69.499  1.00  0.00    -0.073 OA 
BRANCH  14  18
ATOM     18  CB  PHE A   1      -6.599  11.268  66.758  1.00  0.00    -0.140 C  
BRANCH  18  19
ATOM     19  CG  PHE A   1      -7.041  10.140  65.852  1.00  0.00    -0.121 A  
ATOM     20  CD1 PHE A   1      -6.873   8.809  66.255  1.00  0.00    -0.074 A  
ATOM     21  CE1 PHE A   1      -7.307   7.755  65.450  1.00  0.00    -0.077 A  
ATOM     22  CZ  PHE A   1      -7.933   8.019  64.236  1.00  0.00    -0.137 A  
ATOM     23  CE2 PHE A   1      -8.119   9.338  63.825  1.00  0.00    -0.155 A  
ATOM     24  CD2 PHE A   1      -7.671  10.394  64.625  1.00  0.00    -0.063 A  
ENDBRANCH  18  19
ENDBRANCH  14  18
ENDBRANCH  12  14
ENDBRANCH   7  10
TORSDOF 4
ENDMDL
MODEL      189
REMARK 921   NORMALIZED FREE ENERGY PREDICTED BY IDOCK:   -3.48 KCAL/MOL
REMARK 922        TOTAL FREE ENERGY PREDICTED BY IDOCK:   -5.32 KCAL/MOL
REMARK 923 INTER-LIGAND FREE ENERGY PREDICTED BY IDOCK:   -5.14 KCAL/MOL
REMARK 924 INTRA-LIGAND FREE ENERGY PREDICTED BY IDOCK:   -0.19 KCAL/MOL
REMARK 927      BINDING AFFINITY PREDICTED BY RF-SCORE:    0.00 PKD
ROOT
HETATM    1  C   UNK A   0     -11.213  15.613  64.754  1.00  0.00    -0.391 C  
HETATM    2  C   UNK A   0     -10.808  14.938  66.070  1.00  0.00    -0.328 C  
HETATM    3  C   UNK A   0     -10.991  15.968  67.199  1.00  0.00    -0.183 C  
HETATM    4  C   UNK A   0     -11.607  13.628  66.351  1.00  0.00    -0.375 C  
HETATM    5  C   UNK A   0     -11.432  12.513  65.293  1.00  0.00    -0.374 C  
HETATM    6  C   UNK A   0     -10.095  11.760  65.370  1.00  0.00    -0.291 C  
HETATM    7  C   UNK A   0      -9.684  11.318  66.789  1.00  0.00    -0.218 C  
HETATM    8  C   UNK A   0      -9.850  12.478  67.775  1.00  0.00    -0.204 C  
HETATM    9  C   UNK A   0     -11.278  13.018  67.723  1.00  0.00    -0.313 C  
ENDROOT
BRANCH   7  10
HETATM   10  C   UNK A   0     -10.418  10.056  67.278  1.00  0.00    -0.254 C  
HETATM   11  O   UNK A   0     -11.473  10.081  67.899  1.00  0.00    -0.210 OA 
ATOM     12  N   PHE A   1      -9.806   8.872  66.925  1.00  0.00    -0.201 N  
ATOM     13  H   PHE A   1      -8.900   8.915  66.459  1.00  0.00     0.000 HD 
BRANCH  12  14
ATOM     14  CA  PHE A   1     -10.394   7.555  67.187  1.00  0.00    -0.313 C  
ATOM     15  OXT PHE A   1      -8.546   6.738  65.822  1.00  0.00    -0.148 OA 
ATOM     16  C   PHE A   1      -9.594   6.500  66.412  1.00  0.00    -0.104 C  
ATOM     17  O   PHE A   1     -10.172   5.276  66.372  1.00  0.00    -0.206 OA 
BRANCH  14  18
ATOM     18  CB  PHE A   1     -10.545   7.196  68.678  1.00  0.00    -0.217 C  
BRANCH  18  19
ATOM     19  CG  PHE A   1      -9.371   7.491  69.587  1.00  0.00    -0.153 A  
ATOM     20  CD1 PHE A   1      -8.237   6.671  69.557  1.00  0.00    -0.130 A  
ATOM     21  CE1 PHE A   1      -7.130   6.947  70.360  1.00  0.00    -0.067 A  
ATOM     22  CZ  PHE A   1      -7.135   8.061  71.194  1.00  0.00    -0.055 A  
ATOM     23  CE2 PHE A   1      -8.251   8.895  71.228  1.00  0.00    -0.207 A  
ATOM     24  CD2 PHE A   1      -9.366   8.610  70.433  1.00  0.00    -0.191 A  
ENDBRANCH  18  19
ENDBRANCH  14  18
ENDBRANCH  12  14
ENDBRANCH   7  10
TORSDOF 4
ENDMDL
MODEL      190
REMARK 921   NORMALIZED FREE ENERGY PREDICTED BY IDOCK:   -3.42 KCAL/MOL
REMARK 922        TOTAL FREE ENERGY PREDICTED BY IDOCK:   -5.24 KCAL/MOL
REMARK 923 INTER-LIGAND FREE ENERGY PREDICTED BY IDOCK:   -3.80 KCAL/MOL
REMARK 924 INTRA-LIGAND FREE ENERGY PREDICTED BY IDOCK:   -1.44 KCAL/MOL
REMARK 927      BINDING AFFINITY PREDICTED BY RF-SCORE:    0.00 PKD
ROOT
HETATM    1  C   UNK A   0      -6.211   3.945  64.966  1.00  0.00    -0.024 C  
HETATM    2  C   UNK A   0      -7.495   4.610  65.476  1.00  0.00    -0.081 C  
HETATM    3  C   UNK A   0      -8.440   3.495  65.956  1.00  0.00    -0.112 C  
HETATM    4  C   UNK A   0      -7.229   5.663  66.595  1.00  0.00    -0.074 C  
HETATM    5  C   UNK A   0      -6.335   6.854  66.178  1.00  0.00    -0.050 C  
HETATM    6  C   UNK A   0      -7.033   7.905  65.301  1.00  0.00    -0.059 C  
HETATM    7  C   UNK A   0      -8.425   8.340  65.802  1.00  0.00    -0.164 C  
HETATM    8  C   UNK A   0      -9.267   7.113  66.165  1.00  0.00    -0.126 C  
HETATM    9  C   UNK A   0      -8.527   6.243  67.180  1.00  0.00    -0.108 C  
ENDROOT
BRANCH   7  10
HETATM   10  C   UNK A   0      -8.374   9.348  66.965  1.00  0.00    -0.127 C  
HETATM   11  O   UNK A   0      -7.352   9.913  67.332  1.00  0.00    -0.089 OA 
ATOM     12  N   PHE A   1      -9.597   9.601  67.549  1.00  0.00    -0.147 N  
ATOM     13  H   PHE A   1     -10.404   9.058  67.240  1.00  0.00     0.000 HD 
BRANCH  12  14
ATOM     14  CA  PHE A   1      -9.796  10.612  68.592  1.00  0.00    -0.179 C  
ATOM     15  OXT PHE A   1     -11.508  11.470  67.083  1.00  0.00    -0.430 OA 
ATOM     16  C   PHE A   1     -10.847  11.618  68.105  1.00  0.00    -0.217 C  
ATOM     17  O   PHE A   1     -10.950  12.733  68.866  1.00  0.00    -0.245 OA 
BRANCH  14  18
ATOM     18  CB  PHE A   1     -10.128  10.048  69.988  1.00  0.00    -0.289 C  
BRANCH  18  19
ATOM     19  CG  PHE A   1      -9.980   8.555  70.188  1.00  0.00    -0.187 A  
ATOM     20  CD1 PHE A   1      -8.748   8.018  70.579  1.00  0.00    -0.135 A  
ATOM     21  CE1 PHE A   1      -8.601   6.649  70.804  1.00  0.00    -0.135 A  
ATOM     22  CZ  PHE A   1      -9.692   5.798  70.659  1.00  0.00    -0.224 A  
ATOM     23  CE2 PHE A   1     -10.929   6.317  70.281  1.00  0.00    -0.400 A  
ATOM     24  CD2 PHE A   1     -11.073   7.688  70.041  1.00  0.00    -0.201 A  
ENDBRANCH  18  19
ENDBRANCH  14  18
ENDBRANCH  12  14
ENDBRANCH   7  10
TORSDOF 4
ENDMDL
MODEL      191
REMARK 921   NORMALIZED FREE ENERGY PREDICTED BY IDOCK:   -3.40 KCAL/MOL
REMARK 922        TOTAL FREE ENERGY PREDICTED BY IDOCK:   -5.23 KCAL/MOL
REMARK 923 INTER-LIGAND FREE ENERGY PREDICTED BY IDOCK:   -5.49 KCAL/MOL
REMARK 924 INTRA-LIGAND FREE ENERGY PREDICTED BY IDOCK:    0.27 KCAL/MOL
REMARK 927      BINDING AFFINITY PREDICTED BY RF-SCORE:    0.00 PKD
ROOT
HETATM    1  C   UNK A   0     -10.565   7.550  66.797  1.00  0.00    -0.269 C  
HETATM    2  C   UNK A   0      -9.588   8.694  66.497  1.00  0.00    -0.303 C  
HETATM    3  C   UNK A   0      -8.972   8.431  65.112  1.00  0.00    -0.005 C  
HETATM    4  C   UNK A   0     -10.260  10.099  66.573  1.00  0.00    -0.288 C  
HETATM    5  C   UNK A   0     -10.854  10.471  67.952  1.00  0.00    -0.333 C  
HETATM    6  C   UNK A   0      -9.815  10.866  69.013  1.00  0.00    -0.196 C  
HETATM    7  C   UNK A   0      -8.745  11.864  68.527  1.00  0.00    -0.108 C  
HETATM    8  C   UNK A   0      -8.178  11.419  67.176  1.00  0.00    -0.157 C  
HETATM    9  C   UNK A   0      -9.305  11.233  66.162  1.00  0.00    -0.230 C  
ENDROOT
BRANCH   7  10
HETATM   10  C   UNK A   0      -9.240  13.322  68.474  1.00  0.00    -0.073 C  
HETATM   11  O   UNK A   0     -10.423  13.637  68.437  1.00  0.00    -0.235 OA 
ATOM     12  N   PHE A   1      -8.234  14.263  68.508  1.00  0.00    -0.143 N  
ATOM     13  H   PHE A   1      -7.267  13.941  68.478  1.00  0.00     0.000 HD 
BRANCH  12  14
ATOM     14  CA  PHE A   1      -8.486  15.705  68.584  1.00  0.00    -0.179 C  
ATOM     15  OXT PHE A   1      -6.110  15.838  69.115  1.00  0.00    -0.113 OA 
ATOM     16  C   PHE A   1      -7.193  16.405  69.021  1.00  0.00    -0.215 C  
ATOM     17  O   PHE A   1      -7.348  17.707  69.362  1.00  0.00    -0.101 OA 
BRANCH  14  18
ATOM     18  CB  PHE A   1      -9.087  16.328  67.308  1.00  0.00    -0.214 C  
BRANCH  18  19
ATOM     19  CG  PHE A   1      -9.311  17.824  67.303  1.00  0.00    -0.254 A  
ATOM     20  CD1 PHE A   1     -10.219  18.401  68.199  1.00  0.00    -0.410 A  
ATOM     21  CE1 PHE A   1     -10.413  19.782  68.236  1.00  0.00    -0.449 A  
ATOM     22  CZ  PHE A   1      -9.686  20.610  67.387  1.00  0.00    -0.552 A  
ATOM     23  CE2 PHE A   1      -8.769  20.054  66.496  1.00  0.00    -0.384 A  
ATOM     24  CD2 PHE A   1      -8.585  18.668  66.450  1.00  0.00    -0.284 A  
ENDBRANCH  18  19
ENDBRANCH  14  18
ENDBRANCH  12  14
ENDBRANCH   7  10
TORSDOF 4
ENDMDL
MODEL      192
REMARK 921   NORMALIZED FREE ENERGY PREDICTED BY IDOCK:   -3.40 KCAL/MOL
REMARK 922        TOTAL FREE ENERGY PREDICTED BY IDOCK:   -5.22 KCAL/MOL
REMARK 923 INTER-LIGAND FREE ENERGY PREDICTED BY IDOCK:   -5.80 KCAL/MOL
REMARK 924 INTRA-LIGAND FREE ENERGY PREDICTED BY IDOCK:    0.58 KCAL/MOL
REMARK 927      BINDING AFFINITY PREDICTED BY RF-SCORE:    0.00 PKD
ROOT
HETATM    1  C   UNK A   0      -6.146  19.424  69.760  1.00  0.00    -0.312 C  
HETATM    2  C   UNK A   0      -6.821  19.335  68.386  1.00  0.00    -0.309 C  
HETATM    3  C   UNK A   0      -5.998  20.187  67.404  1.00  0.00    -0.209 C  
HETATM    4  C   UNK A   0      -6.980  17.867  67.883  1.00  0.00    -0.205 C  
HETATM    5  C   UNK A   0      -7.846  16.954  68.782  1.00  0.00    -0.250 C  
HETATM    6  C   UNK A   0      -9.359  17.196  68.674  1.00  0.00    -0.269 C  
HETATM    7  C   UNK A   0      -9.893  17.306  67.231  1.00  0.00    -0.267 C  
HETATM    8  C   UNK A   0      -9.009  18.249  66.409  1.00  0.00    -0.257 C  
HETATM    9  C   UNK A   0      -7.554  17.790  66.458  1.00  0.00    -0.291 C  
ENDROOT
BRANCH   7  10
HETATM   10  C   UNK A   0     -10.064  15.945  66.532  1.00  0.00    -0.282 C  
HETATM   11  O   UNK A   0     -10.102  15.805  65.316  1.00  0.00    -0.388 OA 
ATOM     12  N   PHE A   1     -10.134  14.871  67.393  1.00  0.00    -0.228 N  
ATOM     13  H   PHE A   1     -10.156  15.054  68.396  1.00  0.00     0.000 HD 
BRANCH  12  14
ATOM     14  CA  PHE A   1     -10.180  13.478  66.937  1.00  0.00    -0.256 C  
ATOM     15  OXT PHE A   1      -7.855  13.425  67.673  1.00  0.00    -0.145 OA 
ATOM     16  C   PHE A   1      -8.783  12.865  67.098  1.00  0.00    -0.205 C  
ATOM     17  O   PHE A   1      -8.626  11.663  66.495  1.00  0.00    -0.179 OA 
BRANCH  14  18
ATOM     18  CB  PHE A   1     -11.277  12.616  67.593  1.00  0.00    -0.329 C  
BRANCH  18  19
ATOM     19  CG  PHE A   1     -10.903  11.208  68.003  1.00  0.00    -0.274 A  
ATOM     20  CD1 PHE A   1     -10.983  10.163  67.075  1.00  0.00    -0.162 A  
ATOM     21  CE1 PHE A   1     -10.608   8.865  67.422  1.00  0.00    -0.305 A  
ATOM     22  CZ  PHE A   1     -10.130   8.596  68.701  1.00  0.00    -0.207 A  
ATOM     23  CE2 PHE A   1     -10.033   9.627  69.633  1.00  0.00    -0.239 A  
ATOM     24  CD2 PHE A   1     -10.422  10.926  69.290  1.00  0.00    -0.230 A  
ENDBRANCH  18  19
ENDBRANCH  14  18
ENDBRANCH  12  14
ENDBRANCH   7  10
TORSDOF 4
ENDMDL
MODEL      193
REMARK 921   NORMALIZED FREE ENERGY PREDICTED BY IDOCK:   -3.40 KCAL/MOL
REMARK 922        TOTAL FREE ENERGY PREDICTED BY IDOCK:   -5.22 KCAL/MOL
REMARK 923 INTER-LIGAND FREE ENERGY PREDICTED BY IDOCK:   -4.63 KCAL/MOL
REMARK 924 INTRA-LIGAND FREE ENERGY PREDICTED BY IDOCK:   -0.59 KCAL/MOL
REMARK 927      BINDING AFFINITY PREDICTED BY RF-SCORE:    0.00 PKD
ROOT
HETATM    1  C   UNK A   0     -12.779  15.533  70.480  1.00  0.00    -0.436 C  
HETATM    2  C   UNK A   0     -12.131  14.143  70.456  1.00  0.00    -0.420 C  
HETATM    3  C   UNK A   0     -12.643  13.368  71.683  1.00  0.00    -0.284 C  
HETATM    4  C   UNK A   0     -12.404  13.370  69.129  1.00  0.00    -0.050 C  
HETATM    5  C   UNK A   0     -11.867  14.051  67.849  1.00  0.00    -0.411 C  
HETATM    6  C   UNK A   0     -10.348  13.936  67.649  1.00  0.00    -0.242 C  
HETATM    7  C   UNK A   0      -9.775  12.521  67.867  1.00  0.00    -0.205 C  
HETATM    8  C   UNK A   0     -10.322  11.921  69.166  1.00  0.00     0.028 C  
HETATM    9  C   UNK A   0     -11.849  11.936  69.157  1.00  0.00    -0.371 C  
ENDROOT
BRANCH   7  10
HETATM   10  C   UNK A   0     -10.000  11.574  66.674  1.00  0.00    -0.207 C  
HETATM   11  O   UNK A   0     -10.490  11.927  65.609  1.00  0.00    -0.244 OA 
ATOM     12  N   PHE A   1      -9.567  10.282  66.886  1.00  0.00    -0.168 N  
ATOM     13  H   PHE A   1      -9.222  10.033  67.813  1.00  0.00     0.000 HD 
BRANCH  12  14
ATOM     14  CA  PHE A   1      -9.579   9.250  65.845  1.00  0.00    -0.275 C  
ATOM     15  OXT PHE A   1      -7.398  10.171  65.261  1.00  0.00    -0.132 OA 
ATOM     16  C   PHE A   1      -8.318   9.408  64.986  1.00  0.00    -0.150 C  
ATOM     17  O   PHE A   1      -8.321   8.675  63.847  1.00  0.00    -0.167 OA 
BRANCH  14  18
ATOM     18  CB  PHE A   1      -9.759   7.809  66.362  1.00  0.00    -0.219 C  
BRANCH  18  19
ATOM     19  CG  PHE A   1      -8.917   7.384  67.545  1.00  0.00    -0.126 A  
ATOM     20  CD1 PHE A   1      -7.628   6.876  67.342  1.00  0.00    -0.109 A  
ATOM     21  CE1 PHE A   1      -6.821   6.513  68.421  1.00  0.00    -0.071 A  
ATOM     22  CZ  PHE A   1      -7.287   6.670  69.723  1.00  0.00    -0.086 A  
ATOM     23  CE2 PHE A   1      -8.563   7.185  69.943  1.00  0.00    -0.141 A  
ATOM     24  CD2 PHE A   1      -9.377   7.535  68.862  1.00  0.00    -0.142 A  
ENDBRANCH  18  19
ENDBRANCH  14  18
ENDBRANCH  12  14
ENDBRANCH   7  10
TORSDOF 4
ENDMDL
MODEL      194
REMARK 921   NORMALIZED FREE ENERGY PREDICTED BY IDOCK:   -3.37 KCAL/MOL
REMARK 922        TOTAL FREE ENERGY PREDICTED BY IDOCK:   -5.19 KCAL/MOL
REMARK 923 INTER-LIGAND FREE ENERGY PREDICTED BY IDOCK:   -5.32 KCAL/MOL
REMARK 924 INTRA-LIGAND FREE ENERGY PREDICTED BY IDOCK:    0.13 KCAL/MOL
REMARK 927      BINDING AFFINITY PREDICTED BY RF-SCORE:    0.00 PKD
ROOT
HETATM    1  C   UNK A   0      -7.489   3.539  65.002  1.00  0.00    -0.073 C  
HETATM    2  C   UNK A   0      -7.915   3.377  66.467  1.00  0.00    -0.084 C  
HETATM    3  C   UNK A   0      -6.997   2.320  67.106  1.00  0.00    -0.044 C  
HETATM    4  C   UNK A   0      -7.888   4.720  67.258  1.00  0.00    -0.094 C  
HETATM    5  C   UNK A   0      -8.830   5.821  66.718  1.00  0.00    -0.117 C  
HETATM    6  C   UNK A   0     -10.316   5.612  67.047  1.00  0.00    -0.306 C  
HETATM    7  C   UNK A   0     -10.605   5.236  68.514  1.00  0.00    -0.084 C  
HETATM    8  C   UNK A   0      -9.660   4.120  68.972  1.00  0.00    -0.232 C  
HETATM    9  C   UNK A   0      -8.206   4.532  68.751  1.00  0.00    -0.082 C  
ENDROOT
BRANCH   7  10
HETATM   10  C   UNK A   0     -10.564   6.436  69.478  1.00  0.00    -0.253 C  
HETATM   11  O   UNK A   0      -9.529   6.919  69.919  1.00  0.00    -0.157 OA 
ATOM     12  N   PHE A   1     -11.802   6.960  69.783  1.00  0.00    -0.632 N  
ATOM     13  H   PHE A   1     -12.631   6.479  69.434  1.00  0.00     0.000 HD 
BRANCH  12  14
ATOM     14  CA  PHE A   1     -11.985   8.172  70.587  1.00  0.00    -0.029 C  
ATOM     15  OXT PHE A   1     -11.968   6.624  72.470  1.00  0.00    -0.186 OA 
ATOM     16  C   PHE A   1     -12.143   7.765  72.057  1.00  0.00    -0.311 C  
ATOM     17  O   PHE A   1     -12.557   8.763  72.874  1.00  0.00    -0.288 OA 
BRANCH  14  18
ATOM     18  CB  PHE A   1     -10.902   9.251  70.390  1.00  0.00    -0.302 C  
BRANCH  18  19
ATOM     19  CG  PHE A   1     -11.098  10.234  69.257  1.00  0.00    -0.293 A  
ATOM     20  CD1 PHE A   1     -10.759   9.872  67.948  1.00  0.00    -0.316 A  
ATOM     21  CE1 PHE A   1     -10.965  10.750  66.883  1.00  0.00    -0.255 A  
ATOM     22  CZ  PHE A   1     -11.532  12.000  67.111  1.00  0.00    -0.401 A  
ATOM     23  CE2 PHE A   1     -11.886  12.372  68.407  1.00  0.00    -0.361 A  
ATOM     24  CD2 PHE A   1     -11.666  11.498  69.476  1.00  0.00    -0.413 A  
ENDBRANCH  18  19
ENDBRANCH  14  18
ENDBRANCH  12  14
ENDBRANCH   7  10
TORSDOF 4
ENDMDL
MODEL      195
REMARK 921   NORMALIZED FREE ENERGY PREDICTED BY IDOCK:   -3.34 KCAL/MOL
REMARK 922        TOTAL FREE ENERGY PREDICTED BY IDOCK:   -5.15 KCAL/MOL
REMARK 923 INTER-LIGAND FREE ENERGY PREDICTED BY IDOCK:   -4.49 KCAL/MOL
REMARK 924 INTRA-LIGAND FREE ENERGY PREDICTED BY IDOCK:   -0.66 KCAL/MOL
REMARK 927      BINDING AFFINITY PREDICTED BY RF-SCORE:    0.00 PKD
ROOT
HETATM    1  C   UNK A   0     -11.660  16.075  68.491  1.00  0.00    -0.316 C  
HETATM    2  C   UNK A   0     -11.223  14.794  67.769  1.00  0.00    -0.323 C  
HETATM    3  C   UNK A   0     -10.411  15.211  66.529  1.00  0.00    -0.292 C  
HETATM    4  C   UNK A   0     -10.417  13.826  68.687  1.00  0.00    -0.245 C  
HETATM    5  C   UNK A   0     -11.181  13.309  69.929  1.00  0.00     0.049 C  
HETATM    6  C   UNK A   0     -12.226  12.221  69.633  1.00  0.00    -0.175 C  
HETATM    7  C   UNK A   0     -11.732  11.088  68.711  1.00  0.00    -0.383 C  
HETATM    8  C   UNK A   0     -11.016  11.671  67.489  1.00  0.00    -0.312 C  
HETATM    9  C   UNK A   0      -9.885  12.598  67.929  1.00  0.00    -0.218 C  
ENDROOT
BRANCH   7  10
HETATM   10  C   UNK A   0     -10.856  10.046  69.430  1.00  0.00    -0.239 C  
HETATM   11  O   UNK A   0     -10.582  10.093  70.622  1.00  0.00    -0.272 OA 
ATOM     12  N   PHE A   1     -10.425   9.015  68.622  1.00  0.00    -0.252 N  
ATOM     13  H   PHE A   1     -10.635   9.059  67.625  1.00  0.00     0.000 HD 
BRANCH  12  14
ATOM     14  CA  PHE A   1      -9.678   7.858  69.126  1.00  0.00    -0.162 C  
ATOM     15  OXT PHE A   1     -11.410   6.566  67.997  1.00  0.00    -0.234 OA 
ATOM     16  C   PHE A   1     -10.438   6.582  68.744  1.00  0.00    -0.213 C  
ATOM     17  O   PHE A   1      -9.988   5.458  69.352  1.00  0.00    -0.172 OA 
BRANCH  14  18
ATOM     18  CB  PHE A   1      -8.197   7.807  68.704  1.00  0.00    -0.128 C  
BRANCH  18  19
ATOM     19  CG  PHE A   1      -7.895   7.426  67.271  1.00  0.00    -0.114 A  
ATOM     20  CD1 PHE A   1      -7.538   6.110  66.954  1.00  0.00    -0.099 A  
ATOM     21  CE1 PHE A   1      -7.291   5.731  65.635  1.00  0.00    -0.076 A  
ATOM     22  CZ  PHE A   1      -7.417   6.661  64.607  1.00  0.00    -0.093 A  
ATOM     23  CE2 PHE A   1      -7.784   7.972  64.903  1.00  0.00    -0.118 A  
ATOM     24  CD2 PHE A   1      -8.017   8.357  66.228  1.00  0.00    -0.099 A  
ENDBRANCH  18  19
ENDBRANCH  14  18
ENDBRANCH  12  14
ENDBRANCH   7  10
TORSDOF 4
ENDMDL
MODEL      196
REMARK 921   NORMALIZED FREE ENERGY PREDICTED BY IDOCK:   -3.33 KCAL/MOL
REMARK 922        TOTAL FREE ENERGY PREDICTED BY IDOCK:   -5.13 KCAL/MOL
REMARK 923 INTER-LIGAND FREE ENERGY PREDICTED BY IDOCK:   -6.83 KCAL/MOL
REMARK 924 INTRA-LIGAND FREE ENERGY PREDICTED BY IDOCK:    1.70 KCAL/MOL
REMARK 927      BINDING AFFINITY PREDICTED BY RF-SCORE:    0.00 PKD
ROOT
HETATM    1  C   UNK A   0      -6.679  19.977  69.665  1.00  0.00    -0.294 C  
HETATM    2  C   UNK A   0      -7.157  19.754  68.224  1.00  0.00    -0.336 C  
HETATM    3  C   UNK A   0      -6.147  20.438  67.286  1.00  0.00    -0.237 C  
HETATM    4  C   UNK A   0      -7.341  18.246  67.873  1.00  0.00    -0.233 C  
HETATM    5  C   UNK A   0      -8.385  17.494  68.730  1.00  0.00    -0.219 C  
HETATM    6  C   UNK A   0      -9.848  17.796  68.370  1.00  0.00    -0.347 C  
HETATM    7  C   UNK A   0     -10.163  17.756  66.861  1.00  0.00    -0.346 C  
HETATM    8  C   UNK A   0      -9.109  18.546  66.078  1.00  0.00     0.018 C  
HETATM    9  C   UNK A   0      -7.710  18.024  66.396  1.00  0.00    -0.304 C  
ENDROOT
BRANCH   7  10
HETATM   10  C   UNK A   0     -10.323  16.330  66.302  1.00  0.00    -0.326 C  
HETATM   11  O   UNK A   0      -9.873  15.967  65.223  1.00  0.00    -0.435 OA 
ATOM     12  N   PHE A   1     -10.993  15.466  67.142  1.00  0.00    -0.326 N  
ATOM     13  H   PHE A   1     -11.397  15.839  68.001  1.00  0.00     0.000 HD 
BRANCH  12  14
ATOM     14  CA  PHE A   1     -11.155  14.036  66.859  1.00  0.00    -0.304 C  
ATOM     15  OXT PHE A   1     -12.584  14.814  65.043  1.00  0.00    -0.300 OA 
ATOM     16  C   PHE A   1     -12.151  13.876  65.704  1.00  0.00    -0.421 C  
ATOM     17  O   PHE A   1     -12.574  12.605  65.500  1.00  0.00    -0.634 OA 
BRANCH  14  18
ATOM     18  CB  PHE A   1      -9.841  13.270  66.611  1.00  0.00    -0.276 C  
BRANCH  18  19
ATOM     19  CG  PHE A   1      -9.814  12.290  65.459  1.00  0.00    -0.223 A  
ATOM     20  CD1 PHE A   1      -9.743  10.915  65.710  1.00  0.00    -0.270 A  
ATOM     21  CE1 PHE A   1      -9.754   9.992  64.663  1.00  0.00    -0.339 A  
ATOM     22  CZ  PHE A   1      -9.856  10.433  63.347  1.00  0.00    -0.251 A  
ATOM     23  CE2 PHE A   1      -9.939  11.799  63.080  1.00  0.00    -0.272 A  
ATOM     24  CD2 PHE A   1      -9.913  12.724  64.128  1.00  0.00    -0.152 A  
ENDBRANCH  18  19
ENDBRANCH  14  18
ENDBRANCH  12  14
ENDBRANCH   7  10
TORSDOF 4
ENDMDL
MODEL      197
REMARK 921   NORMALIZED FREE ENERGY PREDICTED BY IDOCK:   -3.32 KCAL/MOL
REMARK 922        TOTAL FREE ENERGY PREDICTED BY IDOCK:   -5.12 KCAL/MOL
REMARK 923 INTER-LIGAND FREE ENERGY PREDICTED BY IDOCK:   -4.13 KCAL/MOL
REMARK 924 INTRA-LIGAND FREE ENERGY PREDICTED BY IDOCK:   -0.99 KCAL/MOL
REMARK 927      BINDING AFFINITY PREDICTED BY RF-SCORE:    0.00 PKD
ROOT
HETATM    1  C   UNK A   0      -7.502   9.329  64.637  1.00  0.00    -0.102 C  
HETATM    2  C   UNK A   0      -7.287   8.978  66.114  1.00  0.00    -0.091 C  
HETATM    3  C   UNK A   0      -6.615  10.186  66.789  1.00  0.00    -0.073 C  
HETATM    4  C   UNK A   0      -8.608   8.573  66.839  1.00  0.00    -0.121 C  
HETATM    5  C   UNK A   0      -9.319   7.327  66.262  1.00  0.00    -0.160 C  
HETATM    6  C   UNK A   0      -8.662   5.986  66.626  1.00  0.00    -0.123 C  
HETATM    7  C   UNK A   0      -8.289   5.834  68.114  1.00  0.00    -0.107 C  
HETATM    8  C   UNK A   0      -7.560   7.087  68.610  1.00  0.00    -0.108 C  
HETATM    9  C   UNK A   0      -8.404   8.332  68.345  1.00  0.00    -0.132 C  
ENDROOT
BRANCH   7  10
HETATM   10  C   UNK A   0      -9.488   5.489  69.018  1.00  0.00    -0.129 C  
HETATM   11  O   UNK A   0     -10.656   5.651  68.690  1.00  0.00    -0.217 OA 
ATOM     12  N   PHE A   1      -9.140   4.939  70.233  1.00  0.00    -0.113 N  
ATOM     13  H   PHE A   1      -8.151   4.883  70.475  1.00  0.00     0.000 HD 
BRANCH  12  14
ATOM     14  CA  PHE A   1     -10.122   4.431  71.195  1.00  0.00    -0.126 C  
ATOM     15  OXT PHE A   1      -8.681   2.464  71.247  1.00  0.00    -0.061 OA 
ATOM     16  C   PHE A   1      -9.735   2.997  71.579  1.00  0.00    -0.153 C  
ATOM     17  O   PHE A   1     -10.685   2.326  72.273  1.00  0.00    -0.034 OA 
BRANCH  14  18
ATOM     18  CB  PHE A   1     -10.346   5.327  72.429  1.00  0.00    -0.259 C  
BRANCH  18  19
ATOM     19  CG  PHE A   1     -10.737   6.768  72.181  1.00  0.00    -0.249 A  
ATOM     20  CD1 PHE A   1      -9.747   7.743  72.008  1.00  0.00    -0.224 A  
ATOM     21  CE1 PHE A   1     -10.086   9.070  71.742  1.00  0.00    -0.373 A  
ATOM     22  CZ  PHE A   1     -11.423   9.438  71.625  1.00  0.00    -0.463 A  
ATOM     23  CE2 PHE A   1     -12.421   8.477  71.783  1.00  0.00    -0.388 A  
ATOM     24  CD2 PHE A   1     -12.082   7.150  72.064  1.00  0.00    -0.329 A  
ENDBRANCH  18  19
ENDBRANCH  14  18
ENDBRANCH  12  14
ENDBRANCH   7  10
TORSDOF 4
ENDMDL
MODEL      198
REMARK 921   NORMALIZED FREE ENERGY PREDICTED BY IDOCK:   -3.30 KCAL/MOL
REMARK 922        TOTAL FREE ENERGY PREDICTED BY IDOCK:   -5.09 KCAL/MOL
REMARK 923 INTER-LIGAND FREE ENERGY PREDICTED BY IDOCK:   -4.78 KCAL/MOL
REMARK 924 INTRA-LIGAND FREE ENERGY PREDICTED BY IDOCK:   -0.31 KCAL/MOL
REMARK 927      BINDING AFFINITY PREDICTED BY RF-SCORE:    0.00 PKD
ROOT
HETATM    1  C   UNK A   0      -9.447   5.020  71.631  1.00  0.00    -0.198 C  
HETATM    2  C   UNK A   0     -10.368   6.136  71.123  1.00  0.00    -0.257 C  
HETATM    3  C   UNK A   0     -11.421   6.404  72.212  1.00  0.00    -0.339 C  
HETATM    4  C   UNK A   0      -9.593   7.433  70.738  1.00  0.00    -0.170 C  
HETATM    5  C   UNK A   0      -8.554   7.266  69.604  1.00  0.00    -0.137 C  
HETATM    6  C   UNK A   0      -9.154   7.158  68.194  1.00  0.00    -0.133 C  
HETATM    7  C   UNK A   0     -10.236   8.209  67.872  1.00  0.00    -0.274 C  
HETATM    8  C   UNK A   0     -11.247   8.299  69.019  1.00  0.00     0.379 C  
HETATM    9  C   UNK A   0     -10.531   8.584  70.337  1.00  0.00    -0.227 C  
ENDROOT
BRANCH   7  10
HETATM   10  C   UNK A   0      -9.663   9.595  67.520  1.00  0.00    -0.158 C  
HETATM   11  O   UNK A   0      -8.537   9.965  67.828  1.00  0.00    -0.121 OA 
ATOM     12  N   PHE A   1     -10.517  10.390  66.785  1.00  0.00    -0.237 N  
ATOM     13  H   PHE A   1     -11.463  10.052  66.609  1.00  0.00     0.000 HD 
BRANCH  12  14
ATOM     14  CA  PHE A   1     -10.132  11.698  66.246  1.00  0.00    -0.221 C  
ATOM     15  OXT PHE A   1     -11.012  10.811  64.152  1.00  0.00    -0.094 OA 
ATOM     16  C   PHE A   1     -10.411  11.705  64.737  1.00  0.00    -0.282 C  
ATOM     17  O   PHE A   1      -9.881  12.761  64.075  1.00  0.00    -0.223 OA 
BRANCH  14  18
ATOM     18  CB  PHE A   1     -10.762  12.907  66.964  1.00  0.00    -0.273 C  
BRANCH  18  19
ATOM     19  CG  PHE A   1     -10.130  14.262  66.730  1.00  0.00    -0.264 A  
ATOM     20  CD1 PHE A   1      -8.800  14.489  67.105  1.00  0.00    -0.245 A  
ATOM     21  CE1 PHE A   1      -8.187  15.719  66.865  1.00  0.00    -0.288 A  
ATOM     22  CZ  PHE A   1      -8.891  16.736  66.228  1.00  0.00    -0.334 A  
ATOM     23  CE2 PHE A   1     -10.212  16.523  65.838  1.00  0.00    -0.368 A  
ATOM     24  CD2 PHE A   1     -10.832  15.295  66.092  1.00  0.00    -0.320 A  
ENDBRANCH  18  19
ENDBRANCH  14  18
ENDBRANCH  12  14
ENDBRANCH   7  10
TORSDOF 4
ENDMDL
MODEL      199
REMARK 921   NORMALIZED FREE ENERGY PREDICTED BY IDOCK:   -3.28 KCAL/MOL
REMARK 922        TOTAL FREE ENERGY PREDICTED BY IDOCK:   -5.07 KCAL/MOL
REMARK 923 INTER-LIGAND FREE ENERGY PREDICTED BY IDOCK:   -5.66 KCAL/MOL
REMARK 924 INTRA-LIGAND FREE ENERGY PREDICTED BY IDOCK:    0.58 KCAL/MOL
REMARK 927      BINDING AFFINITY PREDICTED BY RF-SCORE:    0.00 PKD
ROOT
HETATM    1  C   UNK A   0     -10.768  11.219  63.047  1.00  0.00    -0.042 C  
HETATM    2  C   UNK A   0     -11.714  12.196  63.756  1.00  0.00    -0.576 C  
HETATM    3  C   UNK A   0     -13.130  11.597  63.703  1.00  0.00     0.080 C  
HETATM    4  C   UNK A   0     -11.275  12.511  65.219  1.00  0.00    -0.341 C  
HETATM    5  C   UNK A   0      -9.884  13.173  65.360  1.00  0.00    -0.123 C  
HETATM    6  C   UNK A   0      -9.842  14.663  64.985  1.00  0.00    -0.065 C  
HETATM    7  C   UNK A   0     -10.980  15.512  65.587  1.00  0.00    -0.307 C  
HETATM    8  C   UNK A   0     -12.328  14.814  65.383  1.00  0.00    -0.087 C  
HETATM    9  C   UNK A   0     -12.287  13.401  65.960  1.00  0.00    -0.471 C  
ENDROOT
BRANCH   7  10
HETATM   10  C   UNK A   0     -10.757  15.881  67.065  1.00  0.00    -0.292 C  
HETATM   11  O   UNK A   0     -11.285  16.840  67.613  1.00  0.00    -0.159 OA 
ATOM     12  N   PHE A   1      -9.933  15.012  67.748  1.00  0.00    -0.228 N  
ATOM     13  H   PHE A   1      -9.476  14.265  67.225  1.00  0.00     0.000 HD 
BRANCH  12  14
ATOM     14  CA  PHE A   1      -9.681  15.109  69.189  1.00  0.00    -0.232 C  
ATOM     15  OXT PHE A   1      -7.378  15.522  68.503  1.00  0.00    -0.114 OA 
ATOM     16  C   PHE A   1      -8.177  15.312  69.409  1.00  0.00    -0.233 C  
ATOM     17  O   PHE A   1      -7.776  15.177  70.696  1.00  0.00     0.675 OA 
BRANCH  14  18
ATOM     18  CB  PHE A   1     -10.528  16.165  69.927  1.00  0.00    -0.261 C  
BRANCH  18  19
ATOM     19  CG  PHE A   1     -11.609  15.662  70.858  1.00  0.00    -0.424 A  
ATOM     20  CD1 PHE A   1     -12.187  14.404  70.648  1.00  0.00    -0.414 A  
ATOM     21  CE1 PHE A   1     -13.159  13.907  71.517  1.00  0.00    -0.441 A  
ATOM     22  CZ  PHE A   1     -13.554  14.654  72.622  1.00  0.00    -0.571 A  
ATOM     23  CE2 PHE A   1     -12.980  15.903  72.853  1.00  0.00    -0.595 A  
ATOM     24  CD2 PHE A   1     -12.016  16.408  71.974  1.00  0.00    -0.437 A  
ENDBRANCH  18  19
ENDBRANCH  14  18
ENDBRANCH  12  14
ENDBRANCH   7  10
TORSDOF 4
ENDMDL
MODEL      200
REMARK 921   NORMALIZED FREE ENERGY PREDICTED BY IDOCK:   -3.28 KCAL/MOL
REMARK 922        TOTAL FREE ENERGY PREDICTED BY IDOCK:   -5.07 KCAL/MOL
REMARK 923 INTER-LIGAND FREE ENERGY PREDICTED BY IDOCK:   -4.58 KCAL/MOL
REMARK 924 INTRA-LIGAND FREE ENERGY PREDICTED BY IDOCK:   -0.49 KCAL/MOL
REMARK 927      BINDING AFFINITY PREDICTED BY RF-SCORE:    0.00 PKD
ROOT
HETATM    1  C   UNK A   0      -6.193   4.817  70.321  1.00  0.00    -0.022 C  
HETATM    2  C   UNK A   0      -7.108   5.006  69.105  1.00  0.00    -0.056 C  
HETATM    3  C   UNK A   0      -7.767   3.649  68.801  1.00  0.00    -0.052 C  
HETATM    4  C   UNK A   0      -8.170   6.129  69.315  1.00  0.00    -0.116 C  
HETATM    5  C   UNK A   0      -7.593   7.541  69.567  1.00  0.00    -0.095 C  
HETATM    6  C   UNK A   0      -7.041   8.242  68.316  1.00  0.00    -0.081 C  
HETATM    7  C   UNK A   0      -7.964   8.178  67.082  1.00  0.00    -0.105 C  
HETATM    8  C   UNK A   0      -8.472   6.748  66.873  1.00  0.00    -0.115 C  
HETATM    9  C   UNK A   0      -9.156   6.237  68.139  1.00  0.00    -0.112 C  
ENDROOT
BRANCH   7  10
HETATM   10  C   UNK A   0      -9.128   9.185  67.130  1.00  0.00    -0.126 C  
HETATM   11  O   UNK A   0     -10.190   9.026  66.540  1.00  0.00    -0.278 OA 
ATOM     12  N   PHE A   1      -8.895  10.282  67.931  1.00  0.00    -0.122 N  
ATOM     13  H   PHE A   1      -7.971  10.389  68.349  1.00  0.00     0.000 HD 
BRANCH  12  14
ATOM     14  CA  PHE A   1      -9.910  11.303  68.210  1.00  0.00    -0.197 C  
ATOM     15  OXT PHE A   1      -9.179  12.251  66.086  1.00  0.00    -0.214 OA 
ATOM     16  C   PHE A   1      -9.854  12.363  67.104  1.00  0.00    -0.205 C  
ATOM     17  O   PHE A   1     -10.570  13.483  67.364  1.00  0.00    -0.249 OA 
BRANCH  14  18
ATOM     18  CB  PHE A   1     -11.335  10.758  68.429  1.00  0.00    -0.367 C  
BRANCH  18  19
ATOM     19  CG  PHE A   1     -11.620  10.061  69.741  1.00  0.00    -0.193 A  
ATOM     20  CD1 PHE A   1     -12.471  10.654  70.681  1.00  0.00    -0.462 A  
ATOM     21  CE1 PHE A   1     -12.776  10.011  71.881  1.00  0.00    -0.493 A  
ATOM     22  CZ  PHE A   1     -12.246   8.752  72.150  1.00  0.00    -0.448 A  
ATOM     23  CE2 PHE A   1     -11.406   8.142  71.221  1.00  0.00    -0.300 A  
ATOM     24  CD2 PHE A   1     -11.089   8.793  70.024  1.00  0.00    -0.169 A  
ENDBRANCH  18  19
ENDBRANCH  14  18
ENDBRANCH  12  14
ENDBRANCH   7  10
TORSDOF 4
ENDMDL
MODEL      201
REMARK 921   NORMALIZED FREE ENERGY PREDICTED BY IDOCK:   -3.23 KCAL/MOL
REMARK 922        TOTAL FREE ENERGY PREDICTED BY IDOCK:   -5.01 KCAL/MOL
REMARK 923 INTER-LIGAND FREE ENERGY PREDICTED BY IDOCK:   -4.24 KCAL/MOL
REMARK 924 INTRA-LIGAND FREE ENERGY PREDICTED BY IDOCK:   -0.78 KCAL/MOL
REMARK 927      BINDING AFFINITY PREDICTED BY RF-SCORE:    0.00 PKD
ROOT
HETATM    1  C   UNK A   0      -8.716  14.831  67.217  1.00  0.00    -0.226 C  
HETATM    2  C   UNK A   0      -9.748  13.836  66.671  1.00  0.00    -0.293 C  
HETATM    3  C   UNK A   0     -10.237  14.368  65.312  1.00  0.00    -0.416 C  
HETATM    4  C   UNK A   0      -9.188  12.385  66.554  1.00  0.00    -0.215 C  
HETATM    5  C   UNK A   0      -8.728  11.748  67.887  1.00  0.00    -0.164 C  
HETATM    6  C   UNK A   0      -9.871  11.276  68.800  1.00  0.00    -0.194 C  
HETATM    7  C   UNK A   0     -10.970  10.462  68.089  1.00  0.00    -0.334 C  
HETATM    8  C   UNK A   0     -11.400  11.165  66.797  1.00  0.00    -0.119 C  
HETATM    9  C   UNK A   0     -10.189  11.416  65.902  1.00  0.00    -0.292 C  
ENDROOT
BRANCH   7  10
HETATM   10  C   UNK A   0     -10.579   8.996  67.826  1.00  0.00    -0.214 C  
HETATM   11  O   UNK A   0     -10.998   8.339  66.881  1.00  0.00    -0.107 OA 
ATOM     12  N   PHE A   1      -9.675   8.481  68.730  1.00  0.00    -0.161 N  
ATOM     13  H   PHE A   1      -9.407   9.055  69.529  1.00  0.00     0.000 HD 
BRANCH  12  14
ATOM     14  CA  PHE A   1      -9.081   7.147  68.599  1.00  0.00    -0.133 C  
ATOM     15  OXT PHE A   1     -11.301   6.371  69.242  1.00  0.00    -0.379 OA 
ATOM     16  C   PHE A   1     -10.127   6.104  69.013  1.00  0.00    -0.173 C  
ATOM     17  O   PHE A   1      -9.637   4.850  69.169  1.00  0.00    -0.135 OA 
BRANCH  14  18
ATOM     18  CB  PHE A   1      -8.463   6.843  67.220  1.00  0.00    -0.121 C  
BRANCH  18  19
ATOM     19  CG  PHE A   1      -7.674   7.948  66.553  1.00  0.00    -0.097 A  
ATOM     20  CD1 PHE A   1      -7.969   8.323  65.237  1.00  0.00    -0.128 A  
ATOM     21  CE1 PHE A   1      -7.278   9.364  64.615  1.00  0.00    -0.104 A  
ATOM     22  CZ  PHE A   1      -6.292  10.059  65.310  1.00  0.00    -0.107 A  
ATOM     23  CE2 PHE A   1      -5.995   9.706  66.625  1.00  0.00    -0.059 A  
ATOM     24  CD2 PHE A   1      -6.677   8.653  67.243  1.00  0.00    -0.063 A  
ENDBRANCH  18  19
ENDBRANCH  14  18
ENDBRANCH  12  14
ENDBRANCH   7  10
TORSDOF 4
ENDMDL
MODEL      202
REMARK 921   NORMALIZED FREE ENERGY PREDICTED BY IDOCK:   -3.20 KCAL/MOL
REMARK 922        TOTAL FREE ENERGY PREDICTED BY IDOCK:   -4.97 KCAL/MOL
REMARK 923 INTER-LIGAND FREE ENERGY PREDICTED BY IDOCK:   -4.36 KCAL/MOL
REMARK 924 INTRA-LIGAND FREE ENERGY PREDICTED BY IDOCK:   -0.61 KCAL/MOL
REMARK 927      BINDING AFFINITY PREDICTED BY RF-SCORE:    0.00 PKD
ROOT
HETATM    1  C   UNK A   0     -10.369  11.736  62.845  1.00  0.00    -0.045 C  
HETATM    2  C   UNK A   0     -11.401  12.499  63.684  1.00  0.00    -0.555 C  
HETATM    3  C   UNK A   0     -12.733  11.732  63.598  1.00  0.00    -0.407 C  
HETATM    4  C   UNK A   0     -10.948  12.704  65.163  1.00  0.00    -0.324 C  
HETATM    5  C   UNK A   0      -9.647  13.519  65.345  1.00  0.00     0.083 C  
HETATM    6  C   UNK A   0      -9.805  15.034  65.142  1.00  0.00    -0.166 C  
HETATM    7  C   UNK A   0     -11.016  15.658  65.866  1.00  0.00    -0.231 C  
HETATM    8  C   UNK A   0     -12.273  14.820  65.616  1.00  0.00    -0.076 C  
HETATM    9  C   UNK A   0     -12.034  13.368  66.026  1.00  0.00    -0.460 C  
ENDROOT
BRANCH   7  10
HETATM   10  C   UNK A   0     -10.784  15.887  67.371  1.00  0.00    -0.313 C  
HETATM   11  O   UNK A   0     -11.686  15.951  68.196  1.00  0.00    -0.292 OA 
ATOM     12  N   PHE A   1      -9.457  15.978  67.732  1.00  0.00    -0.216 N  
ATOM     13  H   PHE A   1      -8.752  15.977  66.994  1.00  0.00     0.000 HD 
BRANCH  12  14
ATOM     14  CA  PHE A   1      -9.008  16.079  69.124  1.00  0.00    -0.252 C  
ATOM     15  OXT PHE A   1      -6.899  15.230  68.241  1.00  0.00    -0.107 OA 
ATOM     16  C   PHE A   1      -7.578  15.532  69.217  1.00  0.00    -0.221 C  
ATOM     17  O   PHE A   1      -7.131  15.343  70.481  1.00  0.00     0.246 OA 
BRANCH  14  18
ATOM     18  CB  PHE A   1      -9.141  17.481  69.749  1.00  0.00     1.165 C  
BRANCH  18  19
ATOM     19  CG  PHE A   1      -8.856  18.670  68.858  1.00  0.00    -0.210 A  
ATOM     20  CD1 PHE A   1      -7.551  19.166  68.746  1.00  0.00    -0.388 A  
ATOM     21  CE1 PHE A   1      -7.261  20.239  67.901  1.00  0.00    -0.319 A  
ATOM     22  CZ  PHE A   1      -8.271  20.819  67.141  1.00  0.00    -0.227 A  
ATOM     23  CE2 PHE A   1      -9.573  20.330  67.231  1.00  0.00    -0.581 A  
ATOM     24  CD2 PHE A   1      -9.867  19.265  68.088  1.00  0.00    -0.464 A  
ENDBRANCH  18  19
ENDBRANCH  14  18
ENDBRANCH  12  14
ENDBRANCH   7  10
TORSDOF 4
ENDMDL
MODEL      203
REMARK 921   NORMALIZED FREE ENERGY PREDICTED BY IDOCK:   -3.19 KCAL/MOL
REMARK 922        TOTAL FREE ENERGY PREDICTED BY IDOCK:   -4.96 KCAL/MOL
REMARK 923 INTER-LIGAND FREE ENERGY PREDICTED BY IDOCK:   -4.31 KCAL/MOL
REMARK 924 INTRA-LIGAND FREE ENERGY PREDICTED BY IDOCK:   -0.65 KCAL/MOL
REMARK 927      BINDING AFFINITY PREDICTED BY RF-SCORE:    0.00 PKD
ROOT
HETATM    1  C   UNK A   0      -7.038   3.806  73.128  1.00  0.00    -0.054 C  
HETATM    2  C   UNK A   0      -8.395   4.475  72.876  1.00  0.00    -0.103 C  
HETATM    3  C   UNK A   0      -9.104   4.620  74.234  1.00  0.00    -0.112 C  
HETATM    4  C   UNK A   0      -8.267   5.846  72.143  1.00  0.00    -0.108 C  
HETATM    5  C   UNK A   0      -7.619   5.784  70.740  1.00  0.00    -0.092 C  
HETATM    6  C   UNK A   0      -8.532   5.233  69.634  1.00  0.00    -0.098 C  
HETATM    7  C   UNK A   0      -9.955   5.829  69.617  1.00  0.00    -0.249 C  
HETATM    8  C   UNK A   0     -10.547   5.829  71.029  1.00  0.00    -0.318 C  
HETATM    9  C   UNK A   0      -9.619   6.564  71.994  1.00  0.00    -0.154 C  
ENDROOT
BRANCH   7  10
HETATM   10  C   UNK A   0     -10.029   7.228  68.977  1.00  0.00    -0.177 C  
HETATM   11  O   UNK A   0     -10.953   8.011  69.159  1.00  0.00    -0.089 OA 
ATOM     12  N   PHE A   1      -8.938   7.553  68.200  1.00  0.00    -0.130 N  
ATOM     13  H   PHE A   1      -8.228   6.840  68.037  1.00  0.00     0.000 HD 
BRANCH  12  14
ATOM     14  CA  PHE A   1      -8.750   8.875  67.594  1.00  0.00    -0.124 C  
ATOM     15  OXT PHE A   1      -6.872   9.038  69.141  1.00  0.00    -0.053 OA 
ATOM     16  C   PHE A   1      -7.598   9.584  68.317  1.00  0.00    -0.078 C  
ATOM     17  O   PHE A   1      -7.475  10.900  68.019  1.00  0.00    -0.087 OA 
BRANCH  14  18
ATOM     18  CB  PHE A   1      -8.565   8.867  66.063  1.00  0.00    -0.162 C  
BRANCH  18  19
ATOM     19  CG  PHE A   1      -9.379   9.857  65.259  1.00  0.00    -0.309 A  
ATOM     20  CD1 PHE A   1     -10.277  10.715  65.905  1.00  0.00    -0.314 A  
ATOM     21  CE1 PHE A   1     -11.011  11.659  65.186  1.00  0.00    -0.326 A  
ATOM     22  CZ  PHE A   1     -10.843  11.771  63.809  1.00  0.00    -0.490 A  
ATOM     23  CE2 PHE A   1      -9.945  10.932  63.152  1.00  0.00    -0.368 A  
ATOM     24  CD2 PHE A   1      -9.220   9.975  63.871  1.00  0.00    -0.317 A  
ENDBRANCH  18  19
ENDBRANCH  14  18
ENDBRANCH  12  14
ENDBRANCH   7  10
TORSDOF 4
ENDMDL
MODEL      204
REMARK 921   NORMALIZED FREE ENERGY PREDICTED BY IDOCK:   -3.18 KCAL/MOL
REMARK 922        TOTAL FREE ENERGY PREDICTED BY IDOCK:   -4.94 KCAL/MOL
REMARK 923 INTER-LIGAND FREE ENERGY PREDICTED BY IDOCK:   -4.74 KCAL/MOL
REMARK 924 INTRA-LIGAND FREE ENERGY PREDICTED BY IDOCK:   -0.21 KCAL/MOL
REMARK 927      BINDING AFFINITY PREDICTED BY RF-SCORE:    0.00 PKD
ROOT
HETATM    1  C   UNK A   0      -9.563   6.597  70.841  1.00  0.00    -0.183 C  
HETATM    2  C   UNK A   0      -8.481   6.830  69.779  1.00  0.00    -0.133 C  
HETATM    3  C   UNK A   0      -7.962   5.453  69.330  1.00  0.00    -0.089 C  
HETATM    4  C   UNK A   0      -8.989   7.677  68.572  1.00  0.00    -0.129 C  
HETATM    5  C   UNK A   0      -9.474   9.102  68.926  1.00  0.00    -0.151 C  
HETATM    6  C   UNK A   0      -8.350  10.111  69.211  1.00  0.00    -0.160 C  
HETATM    7  C   UNK A   0      -7.200  10.101  68.184  1.00  0.00    -0.081 C  
HETATM    8  C   UNK A   0      -6.748   8.664  67.905  1.00  0.00    -0.066 C  
HETATM    9  C   UNK A   0      -7.934   7.812  67.460  1.00  0.00    -0.123 C  
ENDROOT
BRANCH   7  10
HETATM   10  C   UNK A   0      -7.534  10.847  66.878  1.00  0.00    -0.128 C  
HETATM   11  O   UNK A   0      -6.736  11.554  66.276  1.00  0.00    -0.020 OA 
ATOM     12  N   PHE A   1      -8.811  10.624  66.410  1.00  0.00    -0.150 N  
ATOM     13  H   PHE A   1      -9.449  10.073  66.984  1.00  0.00     0.000 HD 
BRANCH  12  14
ATOM     14  CA  PHE A   1      -9.297  11.140  65.127  1.00  0.00    -0.213 C  
ATOM     15  OXT PHE A   1      -8.642   8.948  64.283  1.00  0.00    -0.176 OA 
ATOM     16  C   PHE A   1      -9.037  10.085  64.045  1.00  0.00    -0.257 C  
ATOM     17  O   PHE A   1      -9.217  10.526  62.777  1.00  0.00    -0.243 OA 
BRANCH  14  18
ATOM     18  CB  PHE A   1     -10.761  11.622  65.134  1.00  0.00    -0.351 C  
BRANCH  18  19
ATOM     19  CG  PHE A   1     -11.096  12.817  66.001  1.00  0.00    -0.315 A  
ATOM     20  CD1 PHE A   1     -11.667  12.628  67.265  1.00  0.00    -0.435 A  
ATOM     21  CE1 PHE A   1     -11.949  13.714  68.094  1.00  0.00    -0.390 A  
ATOM     22  CZ  PHE A   1     -11.647  15.007  67.677  1.00  0.00    -0.327 A  
ATOM     23  CE2 PHE A   1     -11.067  15.211  66.426  1.00  0.00    -0.312 A  
ATOM     24  CD2 PHE A   1     -10.798  14.124  65.588  1.00  0.00    -0.306 A  
ENDBRANCH  18  19
ENDBRANCH  14  18
ENDBRANCH  12  14
ENDBRANCH   7  10
TORSDOF 4
ENDMDL
MODEL      205
REMARK 921   NORMALIZED FREE ENERGY PREDICTED BY IDOCK:   -3.11 KCAL/MOL
REMARK 922        TOTAL FREE ENERGY PREDICTED BY IDOCK:   -4.86 KCAL/MOL
REMARK 923 INTER-LIGAND FREE ENERGY PREDICTED BY IDOCK:   -4.33 KCAL/MOL
REMARK 924 INTRA-LIGAND FREE ENERGY PREDICTED BY IDOCK:   -0.53 KCAL/MOL
REMARK 927      BINDING AFFINITY PREDICTED BY RF-SCORE:    0.00 PKD
ROOT
HETATM    1  C   UNK A   0      -7.095   7.073  70.018  1.00  0.00    -0.070 C  
HETATM    2  C   UNK A   0      -7.527   7.222  68.554  1.00  0.00    -0.105 C  
HETATM    3  C   UNK A   0      -8.057   5.856  68.082  1.00  0.00    -0.109 C  
HETATM    4  C   UNK A   0      -8.581   8.353  68.345  1.00  0.00    -0.139 C  
HETATM    5  C   UNK A   0      -8.109   9.772  68.738  1.00  0.00    -0.102 C  
HETATM    6  C   UNK A   0      -7.148  10.429  67.736  1.00  0.00    -0.084 C  
HETATM    7  C   UNK A   0      -7.583  10.324  66.261  1.00  0.00    -0.117 C  
HETATM    8  C   UNK A   0      -8.005   8.889  65.933  1.00  0.00    -0.107 C  
HETATM    9  C   UNK A   0      -9.094   8.422  66.897  1.00  0.00    -0.179 C  
ENDROOT
BRANCH   7  10
HETATM   10  C   UNK A   0      -8.678  11.334  65.868  1.00  0.00    -0.145 C  
HETATM   11  O   UNK A   0      -9.164  11.408  64.746  1.00  0.00    -0.155 OA 
ATOM     12  N   PHE A   1      -9.104  12.138  66.903  1.00  0.00    -0.198 N  
ATOM     13  H   PHE A   1      -8.622  12.071  67.799  1.00  0.00     0.000 HD 
BRANCH  12  14
ATOM     14  CA  PHE A   1     -10.216  13.085  66.779  1.00  0.00    -0.246 C  
ATOM     15  OXT PHE A   1     -11.593  11.158  67.357  1.00  0.00    -0.522 OA 
ATOM     16  C   PHE A   1     -11.532  12.324  66.985  1.00  0.00    -0.354 C  
ATOM     17  O   PHE A   1     -12.643  13.028  66.660  1.00  0.00    -0.260 OA 
BRANCH  14  18
ATOM     18  CB  PHE A   1     -10.112  14.331  67.681  1.00  0.00    -0.229 C  
BRANCH  18  19
ATOM     19  CG  PHE A   1      -8.789  15.065  67.703  1.00  0.00    -0.183 A  
ATOM     20  CD1 PHE A   1      -8.417  15.873  66.623  1.00  0.00    -0.322 A  
ATOM     21  CE1 PHE A   1      -7.219  16.587  66.639  1.00  0.00    -0.246 A  
ATOM     22  CZ  PHE A   1      -6.382  16.517  67.749  1.00  0.00    -0.164 A  
ATOM     23  CE2 PHE A   1      -6.742  15.727  68.838  1.00  0.00    -0.126 A  
ATOM     24  CD2 PHE A   1      -7.937  14.999  68.815  1.00  0.00    -0.162 A  
ENDBRANCH  18  19
ENDBRANCH  14  18
ENDBRANCH  12  14
ENDBRANCH   7  10
TORSDOF 4
ENDMDL
MODEL      206
REMARK 921   NORMALIZED FREE ENERGY PREDICTED BY IDOCK:   -3.10 KCAL/MOL
REMARK 922        TOTAL FREE ENERGY PREDICTED BY IDOCK:   -4.85 KCAL/MOL
REMARK 923 INTER-LIGAND FREE ENERGY PREDICTED BY IDOCK:   -4.92 KCAL/MOL
REMARK 924 INTRA-LIGAND FREE ENERGY PREDICTED BY IDOCK:    0.07 KCAL/MOL
REMARK 927      BINDING AFFINITY PREDICTED BY RF-SCORE:    0.00 PKD
ROOT
HETATM    1  C   UNK A   0      -8.663   6.687  72.411  1.00  0.00    -0.129 C  
HETATM    2  C   UNK A   0      -9.370   6.295  71.108  1.00  0.00    -0.169 C  
HETATM    3  C   UNK A   0     -10.474   5.283  71.461  1.00  0.00    -0.279 C  
HETATM    4  C   UNK A   0      -9.940   7.523  70.334  1.00  0.00    -0.184 C  
HETATM    5  C   UNK A   0      -8.887   8.564  69.885  1.00  0.00    -0.137 C  
HETATM    6  C   UNK A   0      -8.043   8.141  68.673  1.00  0.00    -0.124 C  
HETATM    7  C   UNK A   0      -8.851   7.554  67.498  1.00  0.00    -0.127 C  
HETATM    8  C   UNK A   0      -9.848   6.510  68.009  1.00  0.00    -0.129 C  
HETATM    9  C   UNK A   0     -10.744   7.114  69.088  1.00  0.00    -0.216 C  
ENDROOT
BRANCH   7  10
HETATM   10  C   UNK A   0      -9.550   8.622  66.636  1.00  0.00    -0.221 C  
HETATM   11  O   UNK A   0     -10.741   8.593  66.350  1.00  0.00     0.014 OA 
ATOM     12  N   PHE A   1      -8.728   9.652  66.233  1.00  0.00    -0.140 N  
ATOM     13  H   PHE A   1      -7.733   9.592  66.452  1.00  0.00     0.000 HD 
BRANCH  12  14
ATOM     14  CA  PHE A   1      -9.212  10.829  65.506  1.00  0.00    -0.202 C  
ATOM     15  OXT PHE A   1      -9.006   9.391  63.547  1.00  0.00    -0.220 OA 
ATOM     16  C   PHE A   1      -9.216  10.509  64.006  1.00  0.00    -0.253 C  
ATOM     17  O   PHE A   1      -9.411  11.583  63.204  1.00  0.00    -0.339 OA 
BRANCH  14  18
ATOM     18  CB  PHE A   1     -10.567  11.380  65.991  1.00  0.00    -0.319 C  
BRANCH  18  19
ATOM     19  CG  PHE A   1     -10.554  12.692  66.745  1.00  0.00    -0.254 A  
ATOM     20  CD1 PHE A   1     -11.740  13.199  67.290  1.00  0.00    -0.425 A  
ATOM     21  CE1 PHE A   1     -11.743  14.389  68.020  1.00  0.00    -0.374 A  
ATOM     22  CZ  PHE A   1     -10.554  15.080  68.231  1.00  0.00    -0.247 A  
ATOM     23  CE2 PHE A   1      -9.363  14.583  67.705  1.00  0.00    -0.202 A  
ATOM     24  CD2 PHE A   1      -9.362  13.399  66.961  1.00  0.00    -0.243 A  
ENDBRANCH  18  19
ENDBRANCH  14  18
ENDBRANCH  12  14
ENDBRANCH   7  10
TORSDOF 4
ENDMDL
MODEL      207
REMARK 921   NORMALIZED FREE ENERGY PREDICTED BY IDOCK:   -3.09 KCAL/MOL
REMARK 922        TOTAL FREE ENERGY PREDICTED BY IDOCK:   -4.84 KCAL/MOL
REMARK 923 INTER-LIGAND FREE ENERGY PREDICTED BY IDOCK:   -4.15 KCAL/MOL
REMARK 924 INTRA-LIGAND FREE ENERGY PREDICTED BY IDOCK:   -0.69 KCAL/MOL
REMARK 927      BINDING AFFINITY PREDICTED BY RF-SCORE:    0.00 PKD
ROOT
HETATM    1  C   UNK A   0     -10.303  18.222  67.075  1.00  0.00    -0.408 C  
HETATM    2  C   UNK A   0      -9.813  17.320  68.215  1.00  0.00    -0.304 C  
HETATM    3  C   UNK A   0     -10.833  17.423  69.363  1.00  0.00     0.275 C  
HETATM    4  C   UNK A   0      -9.594  15.842  67.768  1.00  0.00    -0.218 C  
HETATM    5  C   UNK A   0      -8.538  15.641  66.656  1.00  0.00    -0.330 C  
HETATM    6  C   UNK A   0      -7.080  15.756  67.128  1.00  0.00    -0.225 C  
HETATM    7  C   UNK A   0      -6.757  14.975  68.418  1.00  0.00    -0.111 C  
HETATM    8  C   UNK A   0      -7.823  15.245  69.484  1.00  0.00    -0.204 C  
HETATM    9  C   UNK A   0      -9.212  14.922  68.939  1.00  0.00    -0.192 C  
ENDROOT
BRANCH   7  10
HETATM   10  C   UNK A   0      -6.562  13.464  68.191  1.00  0.00    -0.118 C  
HETATM   11  O   UNK A   0      -6.102  12.984  67.162  1.00  0.00    -0.307 OA 
ATOM     12  N   PHE A   1      -6.915  12.680  69.268  1.00  0.00    -0.289 N  
ATOM     13  H   PHE A   1      -7.347  13.130  70.075  1.00  0.00     0.000 HD 
BRANCH  12  14
ATOM     14  CA  PHE A   1      -6.702  11.230  69.310  1.00  0.00    -0.110 C  
ATOM     15  OXT PHE A   1      -5.581  11.710  71.422  1.00  0.00    -0.371 OA 
ATOM     16  C   PHE A   1      -5.862  10.895  70.549  1.00  0.00    -0.130 C  
ATOM     17  O   PHE A   1      -5.390   9.626  70.580  1.00  0.00    -0.034 OA 
BRANCH  14  18
ATOM     18  CB  PHE A   1      -7.987  10.382  69.227  1.00  0.00    -0.157 C  
BRANCH  18  19
ATOM     19  CG  PHE A   1      -8.215   9.587  67.961  1.00  0.00    -0.114 A  
ATOM     20  CD1 PHE A   1      -7.201   9.492  67.000  1.00  0.00    -0.087 A  
ATOM     21  CE1 PHE A   1      -7.378   8.733  65.842  1.00  0.00    -0.085 A  
ATOM     22  CZ  PHE A   1      -8.569   8.042  65.637  1.00  0.00    -0.167 A  
ATOM     23  CE2 PHE A   1      -9.584   8.117  66.589  1.00  0.00    -0.295 A  
ATOM     24  CD2 PHE A   1      -9.412   8.888  67.743  1.00  0.00    -0.163 A  
ENDBRANCH  18  19
ENDBRANCH  14  18
ENDBRANCH  12  14
ENDBRANCH   7  10
TORSDOF 4
ENDMDL
MODEL      208
REMARK 921   NORMALIZED FREE ENERGY PREDICTED BY IDOCK:   -3.04 KCAL/MOL
REMARK 922        TOTAL FREE ENERGY PREDICTED BY IDOCK:   -4.77 KCAL/MOL
REMARK 923 INTER-LIGAND FREE ENERGY PREDICTED BY IDOCK:   -3.45 KCAL/MOL
REMARK 924 INTRA-LIGAND FREE ENERGY PREDICTED BY IDOCK:   -1.32 KCAL/MOL
REMARK 927      BINDING AFFINITY PREDICTED BY RF-SCORE:    0.00 PKD
ROOT
HETATM    1  C   UNK A   0      -8.976   9.072  65.049  1.00  0.00    -0.198 C  
HETATM    2  C   UNK A   0      -8.392   8.096  66.078  1.00  0.00    -0.132 C  
HETATM    3  C   UNK A   0      -6.885   8.386  66.194  1.00  0.00    -0.065 C  
HETATM    4  C   UNK A   0      -9.103   8.177  67.463  1.00  0.00    -0.147 C  
HETATM    5  C   UNK A   0     -10.612   7.840  67.448  1.00  0.00    -0.345 C  
HETATM    6  C   UNK A   0     -10.934   6.342  67.328  1.00  0.00    -0.474 C  
HETATM    7  C   UNK A   0     -10.120   5.430  68.267  1.00  0.00    -0.225 C  
HETATM    8  C   UNK A   0      -8.634   5.797  68.207  1.00  0.00    -0.112 C  
HETATM    9  C   UNK A   0      -8.440   7.279  68.521  1.00  0.00    -0.125 C  
ENDROOT
BRANCH   7  10
HETATM   10  C   UNK A   0     -10.637   5.421  69.718  1.00  0.00    -0.277 C  
HETATM   11  O   UNK A   0     -11.602   6.071  70.100  1.00  0.00    -0.308 OA 
ATOM     12  N   PHE A   1      -9.942   4.581  70.561  1.00  0.00    -0.223 N  
ATOM     13  H   PHE A   1      -9.112   4.111  70.201  1.00  0.00     0.000 HD 
BRANCH  12  14
ATOM     14  CA  PHE A   1     -10.336   4.332  71.951  1.00  0.00    -0.070 C  
ATOM     15  OXT PHE A   1     -10.236   1.986  71.295  1.00  0.00     0.015 OA 
ATOM     16  C   PHE A   1     -10.533   2.823  72.140  1.00  0.00     0.113 C  
ATOM     17  O   PHE A   1     -11.129   2.477  73.307  1.00  0.00    -0.174 OA 
BRANCH  14  18
ATOM     18  CB  PHE A   1      -9.395   4.938  73.012  1.00  0.00    -0.142 C  
BRANCH  18  19
ATOM     19  CG  PHE A   1      -8.390   5.967  72.543  1.00  0.00    -0.116 A  
ATOM     20  CD1 PHE A   1      -7.068   5.588  72.281  1.00  0.00    -0.087 A  
ATOM     21  CE1 PHE A   1      -6.135   6.514  71.813  1.00  0.00    -0.038 A  
ATOM     22  CZ  PHE A   1      -6.517   7.833  71.584  1.00  0.00    -0.039 A  
ATOM     23  CE2 PHE A   1      -7.832   8.224  71.829  1.00  0.00    -0.147 A  
ATOM     24  CD2 PHE A   1      -8.764   7.299  72.311  1.00  0.00    -0.136 A  
ENDBRANCH  18  19
ENDBRANCH  14  18
ENDBRANCH  12  14
ENDBRANCH   7  10
TORSDOF 4
ENDMDL
MODEL      209
REMARK 921   NORMALIZED FREE ENERGY PREDICTED BY IDOCK:   -3.01 KCAL/MOL
REMARK 922        TOTAL FREE ENERGY PREDICTED BY IDOCK:   -4.74 KCAL/MOL
REMARK 923 INTER-LIGAND FREE ENERGY PREDICTED BY IDOCK:   -4.37 KCAL/MOL
REMARK 924 INTRA-LIGAND FREE ENERGY PREDICTED BY IDOCK:   -0.38 KCAL/MOL
REMARK 927      BINDING AFFINITY PREDICTED BY RF-SCORE:    0.00 PKD
ROOT
HETATM    1  C   UNK A   0      -8.941   3.641  71.825  1.00  0.00    -0.153 C  
HETATM    2  C   UNK A   0      -8.888   5.063  72.396  1.00  0.00    -0.133 C  
HETATM    3  C   UNK A   0      -8.435   4.961  73.862  1.00  0.00    -0.104 C  
HETATM    4  C   UNK A   0      -7.966   6.013  71.571  1.00  0.00    -0.113 C  
HETATM    5  C   UNK A   0      -8.386   6.221  70.097  1.00  0.00    -0.129 C  
HETATM    6  C   UNK A   0      -9.592   7.153  69.898  1.00  0.00    -0.163 C  
HETATM    7  C   UNK A   0      -9.528   8.469  70.700  1.00  0.00    -0.203 C  
HETATM    8  C   UNK A   0      -9.140   8.186  72.154  1.00  0.00    -0.249 C  
HETATM    9  C   UNK A   0      -7.829   7.405  72.212  1.00  0.00    -0.104 C  
ENDROOT
BRANCH   7  10
HETATM   10  C   UNK A   0      -8.606   9.530  70.070  1.00  0.00    -0.215 C  
HETATM   11  O   UNK A   0      -7.695  10.084  70.672  1.00  0.00    -0.268 OA 
ATOM     12  N   PHE A   1      -8.866   9.788  68.741  1.00  0.00    -0.125 N  
ATOM     13  H   PHE A   1      -9.674   9.340  68.308  1.00  0.00     0.000 HD 
BRANCH  12  14
ATOM     14  CA  PHE A   1      -8.037  10.675  67.918  1.00  0.00    -0.111 C  
ATOM     15  OXT PHE A   1      -8.970   9.405  66.057  1.00  0.00    -0.149 OA 
ATOM     16  C   PHE A   1      -8.167  10.244  66.452  1.00  0.00    -0.129 C  
ATOM     17  O   PHE A   1      -7.272  10.822  65.616  1.00  0.00    -0.114 OA 
BRANCH  14  18
ATOM     18  CB  PHE A   1      -8.307  12.180  68.112  1.00  0.00    -0.170 C  
BRANCH  18  19
ATOM     19  CG  PHE A   1      -9.479  12.779  67.366  1.00  0.00    -0.190 A  
ATOM     20  CD1 PHE A   1     -10.785  12.562  67.821  1.00  0.00    -0.242 A  
ATOM     21  CE1 PHE A   1     -11.877  13.135  67.169  1.00  0.00    -0.424 A  
ATOM     22  CZ  PHE A   1     -11.676  13.951  66.060  1.00  0.00    -0.381 A  
ATOM     23  CE2 PHE A   1     -10.382  14.187  65.600  1.00  0.00    -0.348 A  
ATOM     24  CD2 PHE A   1      -9.288  13.600  66.245  1.00  0.00    -0.153 A  
ENDBRANCH  18  19
ENDBRANCH  14  18
ENDBRANCH  12  14
ENDBRANCH   7  10
TORSDOF 4
ENDMDL
MODEL      210
REMARK 921   NORMALIZED FREE ENERGY PREDICTED BY IDOCK:   -2.98 KCAL/MOL
REMARK 922        TOTAL FREE ENERGY PREDICTED BY IDOCK:   -4.70 KCAL/MOL
REMARK 923 INTER-LIGAND FREE ENERGY PREDICTED BY IDOCK:   -5.57 KCAL/MOL
REMARK 924 INTRA-LIGAND FREE ENERGY PREDICTED BY IDOCK:    0.87 KCAL/MOL
REMARK 927      BINDING AFFINITY PREDICTED BY RF-SCORE:    0.00 PKD
ROOT
HETATM    1  C   UNK A   0     -10.433   4.004  72.598  1.00  0.00    -0.222 C  
HETATM    2  C   UNK A   0      -9.714   4.536  71.352  1.00  0.00    -0.248 C  
HETATM    3  C   UNK A   0      -9.711   3.415  70.299  1.00  0.00    -0.140 C  
HETATM    4  C   UNK A   0     -10.354   5.847  70.798  1.00  0.00    -0.292 C  
HETATM    5  C   UNK A   0     -10.344   7.047  71.773  1.00  0.00    -0.216 C  
HETATM    6  C   UNK A   0      -8.979   7.734  71.932  1.00  0.00    -0.164 C  
HETATM    7  C   UNK A   0      -8.246   8.026  70.606  1.00  0.00    -0.114 C  
HETATM    8  C   UNK A   0      -8.266   6.787  69.705  1.00  0.00    -0.127 C  
HETATM    9  C   UNK A   0      -9.701   6.313  69.486  1.00  0.00    -0.169 C  
ENDROOT
BRANCH   7  10
HETATM   10  C   UNK A   0      -8.781   9.266  69.867  1.00  0.00    -0.180 C  
HETATM   11  O   UNK A   0      -8.139  10.298  69.717  1.00  0.00    -0.166 OA 
ATOM     12  N   PHE A   1     -10.047   9.111  69.343  1.00  0.00    -0.190 N  
ATOM     13  H   PHE A   1     -10.555   8.251  69.550  1.00  0.00     0.000 HD 
BRANCH  12  14
ATOM     14  CA  PHE A   1     -10.699  10.121  68.504  1.00  0.00    -0.230 C  
ATOM     15  OXT PHE A   1     -11.746  10.817  70.594  1.00  0.00    -0.325 OA 
ATOM     16  C   PHE A   1     -11.676  10.922  69.374  1.00  0.00    -0.325 C  
ATOM     17  O   PHE A   1     -12.517  11.724  68.679  1.00  0.00    -0.206 OA 
BRANCH  14  18
ATOM     18  CB  PHE A   1      -9.735  11.031  67.717  1.00  0.00    -0.183 C  
BRANCH  18  19
ATOM     19  CG  PHE A   1      -9.987  11.192  66.233  1.00  0.00    -0.261 A  
ATOM     20  CD1 PHE A   1      -9.351  10.345  65.318  1.00  0.00    -0.263 A  
ATOM     21  CE1 PHE A   1      -9.598  10.453  63.949  1.00  0.00    -0.370 A  
ATOM     22  CZ  PHE A   1     -10.501  11.400  63.476  1.00  0.00    -0.477 A  
ATOM     23  CE2 PHE A   1     -11.152  12.243  64.375  1.00  0.00    -0.381 A  
ATOM     24  CD2 PHE A   1     -10.894  12.145  65.746  1.00  0.00    -0.319 A  
ENDBRANCH  18  19
ENDBRANCH  14  18
ENDBRANCH  12  14
ENDBRANCH   7  10
TORSDOF 4
ENDMDL
MODEL      211
REMARK 921   NORMALIZED FREE ENERGY PREDICTED BY IDOCK:   -2.92 KCAL/MOL
REMARK 922        TOTAL FREE ENERGY PREDICTED BY IDOCK:   -4.63 KCAL/MOL
REMARK 923 INTER-LIGAND FREE ENERGY PREDICTED BY IDOCK:   -4.67 KCAL/MOL
REMARK 924 INTRA-LIGAND FREE ENERGY PREDICTED BY IDOCK:    0.04 KCAL/MOL
REMARK 927      BINDING AFFINITY PREDICTED BY RF-SCORE:    0.00 PKD
ROOT
HETATM    1  C   UNK A   0      -8.557   6.626  72.297  1.00  0.00    -0.121 C  
HETATM    2  C   UNK A   0      -8.877   5.950  70.958  1.00  0.00    -0.141 C  
HETATM    3  C   UNK A   0      -9.923   4.854  71.226  1.00  0.00    -0.271 C  
HETATM    4  C   UNK A   0      -9.362   6.958  69.871  1.00  0.00    -0.150 C  
HETATM    5  C   UNK A   0      -8.344   8.060  69.496  1.00  0.00    -0.127 C  
HETATM    6  C   UNK A   0      -7.188   7.589  68.600  1.00  0.00    -0.086 C  
HETATM    7  C   UNK A   0      -7.616   6.727  67.395  1.00  0.00    -0.105 C  
HETATM    8  C   UNK A   0      -8.596   5.638  67.843  1.00  0.00    -0.101 C  
HETATM    9  C   UNK A   0      -9.787   6.260  68.568  1.00  0.00    -0.152 C  
ENDROOT
BRANCH   7  10
HETATM   10  C   UNK A   0      -8.188   7.546  66.223  1.00  0.00    -0.125 C  
HETATM   11  O   UNK A   0      -9.008   7.111  65.425  1.00  0.00     0.025 OA 
ATOM     12  N   PHE A   1      -7.725   8.843  66.160  1.00  0.00    -0.097 N  
ATOM     13  H   PHE A   1      -6.998   9.131  66.816  1.00  0.00     0.000 HD 
BRANCH  12  14
ATOM     14  CA  PHE A   1      -8.224   9.829  65.197  1.00  0.00    -0.140 C  
ATOM     15  OXT PHE A   1      -6.805   8.631  63.617  1.00  0.00    -0.087 OA 
ATOM     16  C   PHE A   1      -7.525   9.595  63.852  1.00  0.00    -0.123 C  
ATOM     17  O   PHE A   1      -7.714  10.582  62.943  1.00  0.00    -0.147 OA 
BRANCH  14  18
ATOM     18  CB  PHE A   1      -9.759   9.881  65.058  1.00  0.00    -0.359 C  
BRANCH  18  19
ATOM     19  CG  PHE A   1     -10.396  11.244  64.894  1.00  0.00    -0.362 A  
ATOM     20  CD1 PHE A   1     -10.104  12.268  65.802  1.00  0.00    -0.274 A  
ATOM     21  CE1 PHE A   1     -10.653  13.542  65.648  1.00  0.00    -0.284 A  
ATOM     22  CZ  PHE A   1     -11.489  13.814  64.569  1.00  0.00    -0.401 A  
ATOM     23  CE2 PHE A   1     -11.780  12.809  63.649  1.00  0.00    -0.587 A  
ATOM     24  CD2 PHE A   1     -11.242  11.528  63.812  1.00  0.00    -0.456 A  
ENDBRANCH  18  19
ENDBRANCH  14  18
ENDBRANCH  12  14
ENDBRANCH   7  10
TORSDOF 4
ENDMDL
MODEL      212
REMARK 921   NORMALIZED FREE ENERGY PREDICTED BY IDOCK:   -2.92 KCAL/MOL
REMARK 922        TOTAL FREE ENERGY PREDICTED BY IDOCK:   -4.63 KCAL/MOL
REMARK 923 INTER-LIGAND FREE ENERGY PREDICTED BY IDOCK:   -4.34 KCAL/MOL
REMARK 924 INTRA-LIGAND FREE ENERGY PREDICTED BY IDOCK:   -0.29 KCAL/MOL
REMARK 927      BINDING AFFINITY PREDICTED BY RF-SCORE:    0.00 PKD
ROOT
HETATM    1  C   UNK A   0      -7.983   3.626  65.575  1.00  0.00    -0.093 C  
HETATM    2  C   UNK A   0      -8.310   3.513  67.069  1.00  0.00    -0.096 C  
HETATM    3  C   UNK A   0      -7.338   2.491  67.684  1.00  0.00    -0.056 C  
HETATM    4  C   UNK A   0      -8.249   4.885  67.809  1.00  0.00    -0.101 C  
HETATM    5  C   UNK A   0      -9.239   5.955  67.292  1.00  0.00    -0.113 C  
HETATM    6  C   UNK A   0     -10.698   5.741  67.726  1.00  0.00    -0.306 C  
HETATM    7  C   UNK A   0     -10.885   5.416  69.222  1.00  0.00    -0.070 C  
HETATM    8  C   UNK A   0      -9.897   4.329  69.656  1.00  0.00    -0.244 C  
HETATM    9  C   UNK A   0      -8.466   4.748  69.325  1.00  0.00    -0.087 C  
ENDROOT
BRANCH   7  10
HETATM   10  C   UNK A   0     -10.796   6.651  70.137  1.00  0.00    -0.279 C  
HETATM   11  O   UNK A   0     -10.242   6.651  71.229  1.00  0.00    -0.199 OA 
ATOM     12  N   PHE A   1     -11.366   7.789  69.608  1.00  0.00    -0.446 N  
ATOM     13  H   PHE A   1     -11.865   7.715  68.721  1.00  0.00     0.000 HD 
BRANCH  12  14
ATOM     14  CA  PHE A   1     -11.293   9.101  70.258  1.00  0.00    -0.188 C  
ATOM     15  OXT PHE A   1     -13.261   8.330  71.473  1.00  0.00    -0.325 OA 
ATOM     16  C   PHE A   1     -12.490   9.245  71.206  1.00  0.00    -0.316 C  
ATOM     17  O   PHE A   1     -12.677  10.498  71.687  1.00  0.00    -0.405 OA 
BRANCH  14  18
ATOM     18  CB  PHE A   1      -9.953   9.405  70.958  1.00  0.00    -0.334 C  
BRANCH  18  19
ATOM     19  CG  PHE A   1      -8.714   9.463  70.091  1.00  0.00    -0.245 A  
ATOM     20  CD1 PHE A   1      -7.457   9.195  70.646  1.00  0.00    -0.129 A  
ATOM     21  CE1 PHE A   1      -6.306   9.207  69.857  1.00  0.00    -0.042 A  
ATOM     22  CZ  PHE A   1      -6.399   9.470  68.494  1.00  0.00    -0.048 A  
ATOM     23  CE2 PHE A   1      -7.644   9.727  67.923  1.00  0.00    -0.086 A  
ATOM     24  CD2 PHE A   1      -8.796   9.730  68.717  1.00  0.00    -0.129 A  
ENDBRANCH  18  19
ENDBRANCH  14  18
ENDBRANCH  12  14
ENDBRANCH   7  10
TORSDOF 4
ENDMDL
MODEL      213
REMARK 921   NORMALIZED FREE ENERGY PREDICTED BY IDOCK:   -2.90 KCAL/MOL
REMARK 922        TOTAL FREE ENERGY PREDICTED BY IDOCK:   -4.61 KCAL/MOL
REMARK 923 INTER-LIGAND FREE ENERGY PREDICTED BY IDOCK:   -4.83 KCAL/MOL
REMARK 924 INTRA-LIGAND FREE ENERGY PREDICTED BY IDOCK:    0.22 KCAL/MOL
REMARK 927      BINDING AFFINITY PREDICTED BY RF-SCORE:    0.00 PKD
ROOT
HETATM    1  C   UNK A   0      -5.850  20.139  69.393  1.00  0.00    -0.343 C  
HETATM    2  C   UNK A   0      -5.541  18.695  69.806  1.00  0.00    -0.234 C  
HETATM    3  C   UNK A   0      -5.265  18.690  71.320  1.00  0.00    -0.279 C  
HETATM    4  C   UNK A   0      -6.680  17.699  69.425  1.00  0.00    -0.176 C  
HETATM    5  C   UNK A   0      -6.984  17.596  67.912  1.00  0.00    -0.190 C  
HETATM    6  C   UNK A   0      -5.955  16.789  67.104  1.00  0.00    -0.208 C  
HETATM    7  C   UNK A   0      -5.556  15.439  67.735  1.00  0.00    -0.127 C  
HETATM    8  C   UNK A   0      -5.238  15.621  69.222  1.00  0.00    -0.100 C  
HETATM    9  C   UNK A   0      -6.416  16.275  69.941  1.00  0.00    -0.087 C  
ENDROOT
BRANCH   7  10
HETATM   10  C   UNK A   0      -6.596  14.325  67.516  1.00  0.00    -0.075 C  
HETATM   11  O   UNK A   0      -6.306  13.163  67.265  1.00  0.00    -0.270 OA 
ATOM     12  N   PHE A   1      -7.904  14.735  67.664  1.00  0.00    -0.159 N  
ATOM     13  H   PHE A   1      -8.087  15.727  67.815  1.00  0.00     0.000 HD 
BRANCH  12  14
ATOM     14  CA  PHE A   1      -9.045  13.816  67.615  1.00  0.00    -0.196 C  
ATOM     15  OXT PHE A   1     -10.339  15.787  68.234  1.00  0.00    -0.231 OA 
ATOM     16  C   PHE A   1     -10.304  14.576  68.049  1.00  0.00    -0.229 C  
ATOM     17  O   PHE A   1     -11.382  13.788  68.279  1.00  0.00    -0.255 OA 
BRANCH  14  18
ATOM     18  CB  PHE A   1      -9.234  13.089  66.269  1.00  0.00    -0.077 C  
BRANCH  18  19
ATOM     19  CG  PHE A   1      -9.411  11.586  66.309  1.00  0.00    -0.235 A  
ATOM     20  CD1 PHE A   1      -9.977  10.976  67.435  1.00  0.00    -0.209 A  
ATOM     21  CE1 PHE A   1     -10.182   9.597  67.477  1.00  0.00    -0.274 A  
ATOM     22  CZ  PHE A   1      -9.841   8.808  66.382  1.00  0.00    -0.352 A  
ATOM     23  CE2 PHE A   1      -9.288   9.401  65.248  1.00  0.00    -0.303 A  
ATOM     24  CD2 PHE A   1      -9.069  10.782  65.212  1.00  0.00    -0.217 A  
ENDBRANCH  18  19
ENDBRANCH  14  18
ENDBRANCH  12  14
ENDBRANCH   7  10
TORSDOF 4
ENDMDL
MODEL      214
REMARK 921   NORMALIZED FREE ENERGY PREDICTED BY IDOCK:   -2.81 KCAL/MOL
REMARK 922        TOTAL FREE ENERGY PREDICTED BY IDOCK:   -4.50 KCAL/MOL
REMARK 923 INTER-LIGAND FREE ENERGY PREDICTED BY IDOCK:   -4.13 KCAL/MOL
REMARK 924 INTRA-LIGAND FREE ENERGY PREDICTED BY IDOCK:   -0.37 KCAL/MOL
REMARK 927      BINDING AFFINITY PREDICTED BY RF-SCORE:    0.00 PKD
ROOT
HETATM    1  C   UNK A   0      -9.034   8.779  62.891  1.00  0.00     0.235 C  
HETATM    2  C   UNK A   0      -8.218   8.891  64.184  1.00  0.00    -0.167 C  
HETATM    3  C   UNK A   0      -6.836   8.268  63.920  1.00  0.00    -0.075 C  
HETATM    4  C   UNK A   0      -8.100  10.359  64.701  1.00  0.00    -0.122 C  
HETATM    5  C   UNK A   0      -9.443  11.043  65.049  1.00  0.00    -0.269 C  
HETATM    6  C   UNK A   0     -10.071  10.585  66.375  1.00  0.00    -0.285 C  
HETATM    7  C   UNK A   0      -9.094  10.529  67.566  1.00  0.00    -0.144 C  
HETATM    8  C   UNK A   0      -7.803   9.811  67.161  1.00  0.00    -0.099 C  
HETATM    9  C   UNK A   0      -7.187  10.479  65.933  1.00  0.00    -0.135 C  
ENDROOT
BRANCH   7  10
HETATM   10  C   UNK A   0      -8.798  11.907  68.186  1.00  0.00    -0.178 C  
HETATM   11  O   UNK A   0      -7.822  12.142  68.888  1.00  0.00    -0.057 OA 
ATOM     12  N   PHE A   1      -9.712  12.884  67.855  1.00  0.00    -0.211 N  
ATOM     13  H   PHE A   1     -10.536  12.616  67.316  1.00  0.00     0.000 HD 
BRANCH  12  14
ATOM     14  CA  PHE A   1      -9.559  14.291  68.240  1.00  0.00    -0.221 C  
ATOM     15  OXT PHE A   1     -11.448  14.646  66.739  1.00  0.00    -0.352 OA 
ATOM     16  C   PHE A   1     -10.566  15.128  67.443  1.00  0.00    -0.271 C  
ATOM     17  O   PHE A   1     -10.371  16.466  67.523  1.00  0.00    -0.275 OA 
BRANCH  14  18
ATOM     18  CB  PHE A   1      -9.642  14.562  69.756  1.00  0.00     0.478 C  
BRANCH  18  19
ATOM     19  CG  PHE A   1     -11.019  14.747  70.355  1.00  0.00    -0.097 A  
ATOM     20  CD1 PHE A   1     -11.948  13.701  70.313  1.00  0.00    -0.397 A  
ATOM     21  CE1 PHE A   1     -13.210  13.839  70.892  1.00  0.00    -0.156 A  
ATOM     22  CZ  PHE A   1     -13.554  15.021  71.540  1.00  0.00    -0.536 A  
ATOM     23  CE2 PHE A   1     -12.636  16.068  71.601  1.00  0.00    -0.360 A  
ATOM     24  CD2 PHE A   1     -11.376  15.936  71.008  1.00  0.00    -0.434 A  
ENDBRANCH  18  19
ENDBRANCH  14  18
ENDBRANCH  12  14
ENDBRANCH   7  10
TORSDOF 4
ENDMDL
MODEL      215
REMARK 921   NORMALIZED FREE ENERGY PREDICTED BY IDOCK:   -2.80 KCAL/MOL
REMARK 922        TOTAL FREE ENERGY PREDICTED BY IDOCK:   -4.48 KCAL/MOL
REMARK 923 INTER-LIGAND FREE ENERGY PREDICTED BY IDOCK:   -3.54 KCAL/MOL
REMARK 924 INTRA-LIGAND FREE ENERGY PREDICTED BY IDOCK:   -0.94 KCAL/MOL
REMARK 927      BINDING AFFINITY PREDICTED BY RF-SCORE:    0.00 PKD
ROOT
HETATM    1  C   UNK A   0      -6.384   9.223  65.754  1.00  0.00    -0.067 C  
HETATM    2  C   UNK A   0      -6.620   9.273  67.269  1.00  0.00    -0.064 C  
HETATM    3  C   UNK A   0      -6.994  10.719  67.636  1.00  0.00    -0.082 C  
HETATM    4  C   UNK A   0      -7.704   8.258  67.747  1.00  0.00    -0.103 C  
HETATM    5  C   UNK A   0      -7.380   6.771  67.471  1.00  0.00    -0.096 C  
HETATM    6  C   UNK A   0      -6.334   6.157  68.413  1.00  0.00    -0.043 C  
HETATM    7  C   UNK A   0      -6.556   6.460  69.909  1.00  0.00    -0.048 C  
HETATM    8  C   UNK A   0      -6.839   7.951  70.112  1.00  0.00    -0.045 C  
HETATM    9  C   UNK A   0      -8.017   8.391  69.246  1.00  0.00    -0.113 C  
ENDROOT
BRANCH   7  10
HETATM   10  C   UNK A   0      -7.648   5.589  70.558  1.00  0.00    -0.084 C  
HETATM   11  O   UNK A   0      -8.317   4.766  69.945  1.00  0.00    -0.068 OA 
ATOM     12  N   PHE A   1      -7.793   5.782  71.915  1.00  0.00    -0.105 N  
ATOM     13  H   PHE A   1      -7.250   6.522  72.361  1.00  0.00     0.000 HD 
BRANCH  12  14
ATOM     14  CA  PHE A   1      -8.690   4.977  72.750  1.00  0.00    -0.119 C  
ATOM     15  OXT PHE A   1      -6.619   4.121  73.710  1.00  0.00    -0.047 OA 
ATOM     16  C   PHE A   1      -7.840   4.050  73.627  1.00  0.00    -0.084 C  
ATOM     17  O   PHE A   1      -8.544   3.087  74.270  1.00  0.00    -0.075 OA 
BRANCH  14  18
ATOM     18  CB  PHE A   1      -9.713   5.786  73.571  1.00  0.00    -0.159 C  
BRANCH  18  19
ATOM     19  CG  PHE A   1     -10.698   6.644  72.807  1.00  0.00    -0.272 A  
ATOM     20  CD1 PHE A   1     -11.863   6.074  72.281  1.00  0.00    -0.305 A  
ATOM     21  CE1 PHE A   1     -12.801   6.854  71.604  1.00  0.00    -0.383 A  
ATOM     22  CZ  PHE A   1     -12.595   8.223  71.459  1.00  0.00    -0.333 A  
ATOM     23  CE2 PHE A   1     -11.446   8.808  71.987  1.00  0.00    -0.441 A  
ATOM     24  CD2 PHE A   1     -10.498   8.024  72.653  1.00  0.00    -0.408 A  
ENDBRANCH  18  19
ENDBRANCH  14  18
ENDBRANCH  12  14
ENDBRANCH   7  10
TORSDOF 4
ENDMDL
MODEL      216
REMARK 921   NORMALIZED FREE ENERGY PREDICTED BY IDOCK:   -2.76 KCAL/MOL
REMARK 922        TOTAL FREE ENERGY PREDICTED BY IDOCK:   -4.43 KCAL/MOL
REMARK 923 INTER-LIGAND FREE ENERGY PREDICTED BY IDOCK:   -3.50 KCAL/MOL
REMARK 924 INTRA-LIGAND FREE ENERGY PREDICTED BY IDOCK:   -0.93 KCAL/MOL
REMARK 927      BINDING AFFINITY PREDICTED BY RF-SCORE:    0.00 PKD
ROOT
HETATM    1  C   UNK A   0     -10.820  16.997  66.760  1.00  0.00     0.014 C  
HETATM    2  C   UNK A   0     -10.702  15.745  67.637  1.00  0.00    -0.310 C  
HETATM    3  C   UNK A   0     -11.696  15.895  68.802  1.00  0.00    -0.355 C  
HETATM    4  C   UNK A   0     -10.937  14.424  66.843  1.00  0.00    -0.308 C  
HETATM    5  C   UNK A   0      -9.941  14.164  65.689  1.00  0.00    -0.331 C  
HETATM    6  C   UNK A   0      -8.549  13.692  66.137  1.00  0.00     0.740 C  
HETATM    7  C   UNK A   0      -8.558  12.568  67.193  1.00  0.00    -0.200 C  
HETATM    8  C   UNK A   0      -9.539  12.906  68.320  1.00  0.00    -0.212 C  
HETATM    9  C   UNK A   0     -10.929  13.181  67.749  1.00  0.00    -0.272 C  
ENDROOT
BRANCH   7  10
HETATM   10  C   UNK A   0      -8.839  11.172  66.606  1.00  0.00    -0.166 C  
HETATM   11  O   UNK A   0      -9.243  10.983  65.465  1.00  0.00    -0.204 OA 
ATOM     12  N   PHE A   1      -8.560  10.130  67.464  1.00  0.00    -0.119 N  
ATOM     13  H   PHE A   1      -8.282  10.351  68.420  1.00  0.00     0.000 HD 
BRANCH  12  14
ATOM     14  CA  PHE A   1      -8.644   8.721  67.070  1.00  0.00    -0.116 C  
ATOM     15  OXT PHE A   1      -6.273   8.682  67.638  1.00  0.00    -0.051 OA 
ATOM     16  C   PHE A   1      -7.241   8.106  67.155  1.00  0.00    -0.084 C  
ATOM     17  O   PHE A   1      -7.132   6.879  66.590  1.00  0.00    -0.068 OA 
BRANCH  14  18
ATOM     18  CB  PHE A   1      -9.694   7.893  67.837  1.00  0.00    -0.184 C  
BRANCH  18  19
ATOM     19  CG  PHE A   1     -10.274   8.501  69.095  1.00  0.00    -0.218 A  
ATOM     20  CD1 PHE A   1     -11.320   9.427  69.009  1.00  0.00     0.183 A  
ATOM     21  CE1 PHE A   1     -11.894   9.971  70.159  1.00  0.00    -0.245 A  
ATOM     22  CZ  PHE A   1     -11.440   9.581  71.415  1.00  0.00    -0.462 A  
ATOM     23  CE2 PHE A   1     -10.407   8.651  71.519  1.00  0.00    -0.341 A  
ATOM     24  CD2 PHE A   1      -9.822   8.117  70.367  1.00  0.00    -0.188 A  
ENDBRANCH  18  19
ENDBRANCH  14  18
ENDBRANCH  12  14
ENDBRANCH   7  10
TORSDOF 4
ENDMDL
MODEL      217
REMARK 921   NORMALIZED FREE ENERGY PREDICTED BY IDOCK:   -2.74 KCAL/MOL
REMARK 922        TOTAL FREE ENERGY PREDICTED BY IDOCK:   -4.41 KCAL/MOL
REMARK 923 INTER-LIGAND FREE ENERGY PREDICTED BY IDOCK:   -4.33 KCAL/MOL
REMARK 924 INTRA-LIGAND FREE ENERGY PREDICTED BY IDOCK:   -0.08 KCAL/MOL
REMARK 927      BINDING AFFINITY PREDICTED BY RF-SCORE:    0.00 PKD
ROOT
HETATM    1  C   UNK A   0      -8.246  16.038  66.700  1.00  0.00    -0.324 C  
HETATM    2  C   UNK A   0      -7.643  14.745  67.262  1.00  0.00    -0.195 C  
HETATM    3  C   UNK A   0      -6.403  15.127  68.088  1.00  0.00    -0.138 C  
HETATM    4  C   UNK A   0      -8.663  13.916  68.102  1.00  0.00    -0.182 C  
HETATM    5  C   UNK A   0      -9.915  13.437  67.331  1.00  0.00    -0.230 C  
HETATM    6  C   UNK A   0      -9.671  12.251  66.385  1.00  0.00    -0.243 C  
HETATM    7  C   UNK A   0      -8.860  11.093  66.999  1.00  0.00    -0.149 C  
HETATM    8  C   UNK A   0      -7.620  11.635  67.717  1.00  0.00    -0.121 C  
HETATM    9  C   UNK A   0      -8.022  12.680  68.756  1.00  0.00     0.068 C  
ENDROOT
BRANCH   7  10
HETATM   10  C   UNK A   0      -9.688  10.181  67.924  1.00  0.00    -0.146 C  
HETATM   11  O   UNK A   0     -10.781  10.490  68.382  1.00  0.00    -0.194 OA 
ATOM     12  N   PHE A   1      -9.114   8.953  68.171  1.00  0.00    -0.140 N  
ATOM     13  H   PHE A   1      -8.176   8.775  67.811  1.00  0.00     0.000 HD 
BRANCH  12  14
ATOM     14  CA  PHE A   1      -9.783   7.891  68.927  1.00  0.00    -0.158 C  
ATOM     15  OXT PHE A   1     -10.475   7.104  66.725  1.00  0.00    -0.271 OA 
ATOM     16  C   PHE A   1     -10.562   7.007  67.944  1.00  0.00    -0.218 C  
ATOM     17  O   PHE A   1     -11.417   6.135  68.531  1.00  0.00    -0.180 OA 
BRANCH  14  18
ATOM     18  CB  PHE A   1      -8.861   7.069  69.849  1.00  0.00    -0.142 C  
BRANCH  18  19
ATOM     19  CG  PHE A   1      -9.516   6.077  70.785  1.00  0.00    -0.189 A  
ATOM     20  CD1 PHE A   1      -9.042   4.762  70.858  1.00  0.00    -0.181 A  
ATOM     21  CE1 PHE A   1      -9.609   3.842  71.741  1.00  0.00    -0.227 A  
ATOM     22  CZ  PHE A   1     -10.649   4.231  72.579  1.00  0.00    -0.183 A  
ATOM     23  CE2 PHE A   1     -11.126   5.540  72.527  1.00  0.00    -0.324 A  
ATOM     24  CD2 PHE A   1     -10.568   6.458  71.632  1.00  0.00    -0.261 A  
ENDBRANCH  18  19
ENDBRANCH  14  18
ENDBRANCH  12  14
ENDBRANCH   7  10
TORSDOF 4
ENDMDL
MODEL      218
REMARK 921   NORMALIZED FREE ENERGY PREDICTED BY IDOCK:   -2.73 KCAL/MOL
REMARK 922        TOTAL FREE ENERGY PREDICTED BY IDOCK:   -4.40 KCAL/MOL
REMARK 923 INTER-LIGAND FREE ENERGY PREDICTED BY IDOCK:   -3.65 KCAL/MOL
REMARK 924 INTRA-LIGAND FREE ENERGY PREDICTED BY IDOCK:   -0.74 KCAL/MOL
REMARK 927      BINDING AFFINITY PREDICTED BY RF-SCORE:    0.00 PKD
ROOT
HETATM    1  C   UNK A   0     -12.160   9.817  71.423  1.00  0.00    -0.486 C  
HETATM    2  C   UNK A   0     -12.179   8.359  71.898  1.00  0.00    -0.395 C  
HETATM    3  C   UNK A   0     -13.481   7.717  71.389  1.00  0.00    -0.317 C  
HETATM    4  C   UNK A   0     -10.922   7.556  71.440  1.00  0.00    -0.254 C  
HETATM    5  C   UNK A   0      -9.570   8.099  71.960  1.00  0.00    -0.284 C  
HETATM    6  C   UNK A   0      -9.278   7.789  73.436  1.00  0.00    -0.344 C  
HETATM    7  C   UNK A   0      -9.544   6.328  73.852  1.00  0.00    -0.188 C  
HETATM    8  C   UNK A   0     -10.910   5.868  73.335  1.00  0.00    -0.275 C  
HETATM    9  C   UNK A   0     -11.000   6.069  71.823  1.00  0.00    -0.323 C  
ENDROOT
BRANCH   7  10
HETATM   10  C   UNK A   0      -8.428   5.354  73.431  1.00  0.00    -0.116 C  
HETATM   11  O   UNK A   0      -8.242   4.264  73.955  1.00  0.00    -0.094 OA 
ATOM     12  N   PHE A   1      -7.662   5.795  72.373  1.00  0.00    -0.101 N  
ATOM     13  H   PHE A   1      -7.825   6.737  72.015  1.00  0.00     0.000 HD 
BRANCH  12  14
ATOM     14  CA  PHE A   1      -6.624   4.978  71.737  1.00  0.00    -0.036 C  
ATOM     15  OXT PHE A   1      -8.446   4.232  70.298  1.00  0.00    -0.068 OA 
ATOM     16  C   PHE A   1      -7.279   4.110  70.656  1.00  0.00    -0.041 C  
ATOM     17  O   PHE A   1      -6.479   3.138  70.157  1.00  0.00    -0.031 OA 
BRANCH  14  18
ATOM     18  CB  PHE A   1      -5.414   5.768  71.200  1.00  0.00    -0.013 C  
BRANCH  18  19
ATOM     19  CG  PHE A   1      -5.561   7.269  71.080  1.00  0.00    -0.027 A  
ATOM     20  CD1 PHE A   1      -5.217   8.097  72.155  1.00  0.00    -0.035 A  
ATOM     21  CE1 PHE A   1      -5.311   9.485  72.052  1.00  0.00    -0.072 A  
ATOM     22  CZ  PHE A   1      -5.734  10.068  70.861  1.00  0.00    -0.088 A  
ATOM     23  CE2 PHE A   1      -6.069   9.259  69.777  1.00  0.00    -0.039 A  
ATOM     24  CD2 PHE A   1      -5.989   7.867  69.885  1.00  0.00    -0.023 A  
ENDBRANCH  18  19
ENDBRANCH  14  18
ENDBRANCH  12  14
ENDBRANCH   7  10
TORSDOF 4
ENDMDL
MODEL      219
REMARK 921   NORMALIZED FREE ENERGY PREDICTED BY IDOCK:   -2.64 KCAL/MOL
REMARK 922        TOTAL FREE ENERGY PREDICTED BY IDOCK:   -4.28 KCAL/MOL
REMARK 923 INTER-LIGAND FREE ENERGY PREDICTED BY IDOCK:   -4.55 KCAL/MOL
REMARK 924 INTRA-LIGAND FREE ENERGY PREDICTED BY IDOCK:    0.27 KCAL/MOL
REMARK 927      BINDING AFFINITY PREDICTED BY RF-SCORE:    0.00 PKD
ROOT
HETATM    1  C   UNK A   0      -9.013   2.844  71.566  1.00  0.00    -0.148 C  
HETATM    2  C   UNK A   0      -9.665   4.023  72.299  1.00  0.00    -0.217 C  
HETATM    3  C   UNK A   0      -9.655   3.701  73.804  1.00  0.00    -0.132 C  
HETATM    4  C   UNK A   0      -8.969   5.385  71.995  1.00  0.00    -0.142 C  
HETATM    5  C   UNK A   0      -8.987   5.816  70.510  1.00  0.00    -0.152 C  
HETATM    6  C   UNK A   0     -10.339   6.351  70.013  1.00  0.00    -0.245 C  
HETATM    7  C   UNK A   0     -11.009   7.378  70.949  1.00  0.00    -0.271 C  
HETATM    8  C   UNK A   0     -10.985   6.873  72.395  1.00  0.00    -0.280 C  
HETATM    9  C   UNK A   0      -9.555   6.544  72.819  1.00  0.00    -0.157 C  
ENDROOT
BRANCH   7  10
HETATM   10  C   UNK A   0     -10.412   8.793  70.839  1.00  0.00    -0.221 C  
HETATM   11  O   UNK A   0      -9.552   9.229  71.594  1.00  0.00    -0.277 OA 
ATOM     12  N   PHE A   1     -10.899   9.533  69.783  1.00  0.00    -0.237 N  
ATOM     13  H   PHE A   1     -11.656   9.139  69.223  1.00  0.00     0.000 HD 
BRANCH  12  14
ATOM     14  CA  PHE A   1     -10.385  10.858  69.425  1.00  0.00    -0.145 C  
ATOM     15  OXT PHE A   1      -9.014   9.620  67.834  1.00  0.00    -0.120 OA 
ATOM     16  C   PHE A   1      -9.277  10.686  68.378  1.00  0.00    -0.159 C  
ATOM     17  O   PHE A   1      -8.554  11.806  68.138  1.00  0.00    -0.147 OA 
BRANCH  14  18
ATOM     18  CB  PHE A   1     -11.457  11.873  68.982  1.00  0.00    -0.355 C  
BRANCH  18  19
ATOM     19  CG  PHE A   1     -11.035  13.321  68.858  1.00  0.00    -0.278 A  
ATOM     20  CD1 PHE A   1     -10.864  14.103  70.007  1.00  0.00     0.179 A  
ATOM     21  CE1 PHE A   1     -10.441  15.429  69.916  1.00  0.00    -0.310 A  
ATOM     22  CZ  PHE A   1     -10.163  15.988  68.673  1.00  0.00    -0.231 A  
ATOM     23  CE2 PHE A   1     -10.317  15.221  67.520  1.00  0.00    -0.244 A  
ATOM     24  CD2 PHE A   1     -10.756  13.896  67.609  1.00  0.00    -0.255 A  
ENDBRANCH  18  19
ENDBRANCH  14  18
ENDBRANCH  12  14
ENDBRANCH   7  10
TORSDOF 4
ENDMDL
MODEL      220
REMARK 921   NORMALIZED FREE ENERGY PREDICTED BY IDOCK:   -2.63 KCAL/MOL
REMARK 922        TOTAL FREE ENERGY PREDICTED BY IDOCK:   -4.27 KCAL/MOL
REMARK 923 INTER-LIGAND FREE ENERGY PREDICTED BY IDOCK:   -3.20 KCAL/MOL
REMARK 924 INTRA-LIGAND FREE ENERGY PREDICTED BY IDOCK:   -1.08 KCAL/MOL
REMARK 927      BINDING AFFINITY PREDICTED BY RF-SCORE:    0.00 PKD
ROOT
HETATM    1  C   UNK A   0      -5.493   3.837  65.233  1.00  0.00    -0.010 C  
HETATM    2  C   UNK A   0      -6.764   4.672  65.035  1.00  0.00    -0.045 C  
HETATM    3  C   UNK A   0      -7.965   3.799  65.439  1.00  0.00    -0.093 C  
HETATM    4  C   UNK A   0      -6.736   6.016  65.827  1.00  0.00    -0.048 C  
HETATM    5  C   UNK A   0      -5.593   6.983  65.440  1.00  0.00    -0.032 C  
HETATM    6  C   UNK A   0      -5.802   7.725  64.111  1.00  0.00    -0.052 C  
HETATM    7  C   UNK A   0      -7.204   8.343  63.931  1.00  0.00    -0.094 C  
HETATM    8  C   UNK A   0      -8.285   7.322  64.300  1.00  0.00     0.025 C  
HETATM    9  C   UNK A   0      -8.057   6.795  65.715  1.00  0.00    -0.123 C  
ENDROOT
BRANCH   7  10
HETATM   10  C   UNK A   0      -7.397   9.665  64.697  1.00  0.00    -0.123 C  
HETATM   11  O   UNK A   0      -6.485  10.438  64.961  1.00  0.00    -0.127 OA 
ATOM     12  N   PHE A   1      -8.705   9.936  65.037  1.00  0.00    -0.161 N  
ATOM     13  H   PHE A   1      -9.413   9.228  64.843  1.00  0.00     0.000 HD 
BRANCH  12  14
ATOM     14  CA  PHE A   1      -9.128  11.192  65.664  1.00  0.00    -0.205 C  
ATOM     15  OXT PHE A   1     -10.304  11.554  63.559  1.00  0.00    -0.354 OA 
ATOM     16  C   PHE A   1      -9.945  11.996  64.645  1.00  0.00    -0.214 C  
ATOM     17  O   PHE A   1     -10.193  13.277  65.011  1.00  0.00    -0.321 OA 
BRANCH  14  18
ATOM     18  CB  PHE A   1      -9.865  11.030  67.008  1.00  0.00    -0.211 C  
BRANCH  18  19
ATOM     19  CG  PHE A   1      -9.545   9.803  67.834  1.00  0.00    -0.158 A  
ATOM     20  CD1 PHE A   1      -8.517   9.844  68.783  1.00  0.00    -0.122 A  
ATOM     21  CE1 PHE A   1      -8.230   8.735  69.579  1.00  0.00    -0.111 A  
ATOM     22  CZ  PHE A   1      -8.983   7.572  69.450  1.00  0.00    -0.139 A  
ATOM     23  CE2 PHE A   1     -10.018   7.517  68.519  1.00  0.00    -0.177 A  
ATOM     24  CD2 PHE A   1     -10.296   8.624  67.710  1.00  0.00    -0.303 A  
ENDBRANCH  18  19
ENDBRANCH  14  18
ENDBRANCH  12  14
ENDBRANCH   7  10
TORSDOF 4
ENDMDL
MODEL      221
REMARK 921   NORMALIZED FREE ENERGY PREDICTED BY IDOCK:   -2.60 KCAL/MOL
REMARK 922        TOTAL FREE ENERGY PREDICTED BY IDOCK:   -4.24 KCAL/MOL
REMARK 923 INTER-LIGAND FREE ENERGY PREDICTED BY IDOCK:   -5.22 KCAL/MOL
REMARK 924 INTRA-LIGAND FREE ENERGY PREDICTED BY IDOCK:    0.98 KCAL/MOL
REMARK 927      BINDING AFFINITY PREDICTED BY RF-SCORE:    0.00 PKD
ROOT
HETATM    1  C   UNK A   0      -9.627   3.702  71.740  1.00  0.00    -0.221 C  
HETATM    2  C   UNK A   0     -10.491   4.930  72.054  1.00  0.00    -0.245 C  
HETATM    3  C   UNK A   0     -10.902   4.845  73.535  1.00  0.00    -0.370 C  
HETATM    4  C   UNK A   0      -9.771   6.275  71.732  1.00  0.00    -0.168 C  
HETATM    5  C   UNK A   0      -9.375   6.470  70.250  1.00  0.00    -0.163 C  
HETATM    6  C   UNK A   0     -10.542   6.826  69.315  1.00  0.00    -0.262 C  
HETATM    7  C   UNK A   0     -11.476   7.934  69.843  1.00  0.00     0.132 C  
HETATM    8  C   UNK A   0     -11.853   7.660  71.302  1.00  0.00    -0.316 C  
HETATM    9  C   UNK A   0     -10.596   7.502  72.155  1.00  0.00    -0.262 C  
ENDROOT
BRANCH   7  10
HETATM   10  C   UNK A   0     -10.907   9.354  69.668  1.00  0.00    -0.228 C  
HETATM   11  O   UNK A   0      -9.799   9.696  70.060  1.00  0.00    -0.216 OA 
ATOM     12  N   PHE A   1     -11.741  10.218  68.991  1.00  0.00    -0.503 N  
ATOM     13  H   PHE A   1     -12.675   9.894  68.740  1.00  0.00     0.000 HD 
BRANCH  12  14
ATOM     14  CA  PHE A   1     -11.351  11.580  68.614  1.00  0.00    -0.269 C  
ATOM     15  OXT PHE A   1     -11.963  12.122  70.911  1.00  0.00    -0.213 OA 
ATOM     16  C   PHE A   1     -11.631  12.514  69.798  1.00  0.00    -0.221 C  
ATOM     17  O   PHE A   1     -11.542  13.833  69.504  1.00  0.00    -0.269 OA 
BRANCH  14  18
ATOM     18  CB  PHE A   1      -9.911  11.720  68.084  1.00  0.00    -0.190 C  
BRANCH  18  19
ATOM     19  CG  PHE A   1      -9.419  13.115  67.765  1.00  0.00    -0.209 A  
ATOM     20  CD1 PHE A   1      -9.905  13.790  66.639  1.00  0.00    -0.286 A  
ATOM     21  CE1 PHE A   1      -9.492  15.091  66.348  1.00  0.00    -0.325 A  
ATOM     22  CZ  PHE A   1      -8.599  15.743  67.192  1.00  0.00    -0.226 A  
ATOM     23  CE2 PHE A   1      -8.114  15.090  68.324  1.00  0.00    -0.133 A  
ATOM     24  CD2 PHE A   1      -8.516  13.781  68.608  1.00  0.00    -0.056 A  
ENDBRANCH  18  19
ENDBRANCH  14  18
ENDBRANCH  12  14
ENDBRANCH   7  10
TORSDOF 4
ENDMDL
MODEL      222
REMARK 921   NORMALIZED FREE ENERGY PREDICTED BY IDOCK:   -2.59 KCAL/MOL
REMARK 922        TOTAL FREE ENERGY PREDICTED BY IDOCK:   -4.23 KCAL/MOL
REMARK 923 INTER-LIGAND FREE ENERGY PREDICTED BY IDOCK:   -3.75 KCAL/MOL
REMARK 924 INTRA-LIGAND FREE ENERGY PREDICTED BY IDOCK:   -0.47 KCAL/MOL
REMARK 927      BINDING AFFINITY PREDICTED BY RF-SCORE:    0.00 PKD
ROOT
HETATM    1  C   UNK A   0      -6.917   3.825  73.172  1.00  0.00    -0.049 C  
HETATM    2  C   UNK A   0      -8.126   4.644  72.703  1.00  0.00    -0.100 C  
HETATM    3  C   UNK A   0      -9.064   4.826  73.909  1.00  0.00    -0.112 C  
HETATM    4  C   UNK A   0      -7.723   6.013  72.073  1.00  0.00    -0.098 C  
HETATM    5  C   UNK A   0      -6.828   5.920  70.816  1.00  0.00    -0.058 C  
HETATM    6  C   UNK A   0      -7.564   5.502  69.533  1.00  0.00    -0.071 C  
HETATM    7  C   UNK A   0      -8.889   6.249  69.278  1.00  0.00    -0.123 C  
HETATM    8  C   UNK A   0      -9.738   6.274  70.553  1.00  0.00    -0.196 C  
HETATM    9  C   UNK A   0      -8.942   6.877  71.709  1.00  0.00    -0.138 C  
ENDROOT
BRANCH   7  10
HETATM   10  C   UNK A   0      -8.698   7.665  68.704  1.00  0.00    -0.128 C  
HETATM   11  O   UNK A   0      -7.842   8.448  69.095  1.00  0.00    -0.100 OA 
ATOM     12  N   PHE A   1      -9.556   7.977  67.671  1.00  0.00    -0.147 N  
ATOM     13  H   PHE A   1     -10.286   7.308  67.428  1.00  0.00     0.000 HD 
BRANCH  12  14
ATOM     14  CA  PHE A   1      -9.470   9.224  66.905  1.00  0.00    -0.161 C  
ATOM     15  OXT PHE A   1      -8.807   7.759  65.072  1.00  0.00     0.047 OA 
ATOM     16  C   PHE A   1      -8.952   8.899  65.498  1.00  0.00    -0.197 C  
ATOM     17  O   PHE A   1      -8.598   9.983  64.767  1.00  0.00    -0.154 OA 
BRANCH  14  18
ATOM     18  CB  PHE A   1     -10.767  10.057  66.873  1.00  0.00    -0.211 C  
BRANCH  18  19
ATOM     19  CG  PHE A   1     -10.665  11.518  67.254  1.00  0.00    -0.286 A  
ATOM     20  CD1 PHE A   1      -9.425  12.068  67.599  1.00  0.00    -0.185 A  
ATOM     21  CE1 PHE A   1      -9.304  13.421  67.918  1.00  0.00    -0.216 A  
ATOM     22  CZ  PHE A   1     -10.421  14.249  67.877  1.00  0.00    -0.240 A  
ATOM     23  CE2 PHE A   1     -11.661  13.720  67.524  1.00  0.00    -0.410 A  
ATOM     24  CD2 PHE A   1     -11.786  12.361  67.219  1.00  0.00    -0.419 A  
ENDBRANCH  18  19
ENDBRANCH  14  18
ENDBRANCH  12  14
ENDBRANCH   7  10
TORSDOF 4
ENDMDL
MODEL      223
REMARK 921   NORMALIZED FREE ENERGY PREDICTED BY IDOCK:   -2.55 KCAL/MOL
REMARK 922        TOTAL FREE ENERGY PREDICTED BY IDOCK:   -4.17 KCAL/MOL
REMARK 923 INTER-LIGAND FREE ENERGY PREDICTED BY IDOCK:   -3.73 KCAL/MOL
REMARK 924 INTRA-LIGAND FREE ENERGY PREDICTED BY IDOCK:   -0.45 KCAL/MOL
REMARK 927      BINDING AFFINITY PREDICTED BY RF-SCORE:    0.00 PKD
ROOT
HETATM    1  C   UNK A   0      -5.173   9.794  71.675  1.00  0.00    -0.076 C  
HETATM    2  C   UNK A   0      -6.001   8.757  70.906  1.00  0.00    -0.038 C  
HETATM    3  C   UNK A   0      -6.019   7.463  71.738  1.00  0.00    -0.036 C  
HETATM    4  C   UNK A   0      -7.444   9.254  70.581  1.00  0.00    -0.145 C  
HETATM    5  C   UNK A   0      -7.519  10.520  69.695  1.00  0.00    -0.145 C  
HETATM    6  C   UNK A   0      -7.224  10.280  68.206  1.00  0.00    -0.083 C  
HETATM    7  C   UNK A   0      -7.953   9.068  67.592  1.00  0.00    -0.101 C  
HETATM    8  C   UNK A   0      -7.809   7.844  68.503  1.00  0.00    -0.119 C  
HETATM    9  C   UNK A   0      -8.304   8.170  69.910  1.00  0.00    -0.123 C  
ENDROOT
BRANCH   7  10
HETATM   10  C   UNK A   0      -9.429   9.343  67.252  1.00  0.00    -0.133 C  
HETATM   11  O   UNK A   0     -10.062   8.718  66.411  1.00  0.00    -0.284 OA 
ATOM     12  N   PHE A   1     -10.007  10.342  68.006  1.00  0.00    -0.153 N  
ATOM     13  H   PHE A   1      -9.415  10.868  68.650  1.00  0.00     0.000 HD 
BRANCH  12  14
ATOM     14  CA  PHE A   1     -11.430  10.687  67.928  1.00  0.00    -0.181 C  
ATOM     15  OXT PHE A   1     -11.330  10.583  70.362  1.00  0.00    -0.303 OA 
ATOM     16  C   PHE A   1     -12.010  10.689  69.348  1.00  0.00    -0.226 C  
ATOM     17  O   PHE A   1     -13.362  10.755  69.400  1.00  0.00     0.394 OA 
BRANCH  14  18
ATOM     18  CB  PHE A   1     -11.741  11.990  67.165  1.00  0.00    -0.344 C  
BRANCH  18  19
ATOM     19  CG  PHE A   1     -11.201  13.280  67.743  1.00  0.00    -0.308 A  
ATOM     20  CD1 PHE A   1     -12.065  14.182  68.375  1.00  0.00    -0.308 A  
ATOM     21  CE1 PHE A   1     -11.581  15.359  68.946  1.00  0.00    -0.369 A  
ATOM     22  CZ  PHE A   1     -10.220  15.643  68.908  1.00  0.00    -0.214 A  
ATOM     23  CE2 PHE A   1      -9.344  14.751  68.293  1.00  0.00    -0.199 A  
ATOM     24  CD2 PHE A   1      -9.830  13.577  67.708  1.00  0.00    -0.233 A  
ENDBRANCH  18  19
ENDBRANCH  14  18
ENDBRANCH  12  14
ENDBRANCH   7  10
TORSDOF 4
ENDMDL
MODEL      224
REMARK 921   NORMALIZED FREE ENERGY PREDICTED BY IDOCK:   -2.51 KCAL/MOL
REMARK 922        TOTAL FREE ENERGY PREDICTED BY IDOCK:   -4.12 KCAL/MOL
REMARK 923 INTER-LIGAND FREE ENERGY PREDICTED BY IDOCK:   -5.00 KCAL/MOL
REMARK 924 INTRA-LIGAND FREE ENERGY PREDICTED BY IDOCK:    0.88 KCAL/MOL
REMARK 927      BINDING AFFINITY PREDICTED BY RF-SCORE:    0.00 PKD
ROOT
HETATM    1  C   UNK A   0     -10.774  15.580  65.801  1.00  0.00    -0.362 C  
HETATM    2  C   UNK A   0     -11.119  14.086  65.820  1.00  0.00    -0.305 C  
HETATM    3  C   UNK A   0     -11.135  13.591  64.363  1.00  0.00    -0.397 C  
HETATM    4  C   UNK A   0     -10.142  13.249  66.702  1.00  0.00    -0.266 C  
HETATM    5  C   UNK A   0     -10.107  13.641  68.198  1.00  0.00    -0.245 C  
HETATM    6  C   UNK A   0     -11.317  13.161  69.014  1.00  0.00    -0.332 C  
HETATM    7  C   UNK A   0     -11.707  11.687  68.784  1.00  0.00    -0.392 C  
HETATM    8  C   UNK A   0     -11.754  11.378  67.284  1.00  0.00    -0.125 C  
HETATM    9  C   UNK A   0     -10.424  11.739  66.626  1.00  0.00    -0.259 C  
ENDROOT
BRANCH   7  10
HETATM   10  C   UNK A   0     -10.808  10.687  69.534  1.00  0.00    -0.259 C  
HETATM   11  O   UNK A   0     -11.072  10.231  70.639  1.00  0.00    -0.315 OA 
ATOM     12  N   PHE A   1      -9.680  10.307  68.838  1.00  0.00    -0.179 N  
ATOM     13  H   PHE A   1      -9.483  10.764  67.948  1.00  0.00     0.000 HD 
BRANCH  12  14
ATOM     14  CA  PHE A   1      -8.750   9.279  69.315  1.00  0.00    -0.141 C  
ATOM     15  OXT PHE A   1      -7.287  11.175  69.777  1.00  0.00    -0.046 OA 
ATOM     16  C   PHE A   1      -7.435   9.959  69.718  1.00  0.00    -0.140 C  
ATOM     17  O   PHE A   1      -6.410   9.104  69.949  1.00  0.00    -0.040 OA 
BRANCH  14  18
ATOM     18  CB  PHE A   1      -9.304   8.369  70.429  1.00  0.00    -0.170 C  
BRANCH  18  19
ATOM     19  CG  PHE A   1      -9.523   6.910  70.090  1.00  0.00    -0.162 A  
ATOM     20  CD1 PHE A   1     -10.146   6.062  71.012  1.00  0.00    -0.241 A  
ATOM     21  CE1 PHE A   1     -10.391   4.723  70.705  1.00  0.00    -0.184 A  
ATOM     22  CZ  PHE A   1     -10.031   4.217  69.459  1.00  0.00    -0.127 A  
ATOM     23  CE2 PHE A   1      -9.421   5.051  68.524  1.00  0.00    -0.185 A  
ATOM     24  CD2 PHE A   1      -9.162   6.390  68.838  1.00  0.00    -0.128 A  
ENDBRANCH  18  19
ENDBRANCH  14  18
ENDBRANCH  12  14
ENDBRANCH   7  10
TORSDOF 4
ENDMDL
MODEL      225
REMARK 921   NORMALIZED FREE ENERGY PREDICTED BY IDOCK:   -2.49 KCAL/MOL
REMARK 922        TOTAL FREE ENERGY PREDICTED BY IDOCK:   -4.10 KCAL/MOL
REMARK 923 INTER-LIGAND FREE ENERGY PREDICTED BY IDOCK:   -3.36 KCAL/MOL
REMARK 924 INTRA-LIGAND FREE ENERGY PREDICTED BY IDOCK:   -0.74 KCAL/MOL
REMARK 927      BINDING AFFINITY PREDICTED BY RF-SCORE:    0.00 PKD
ROOT
HETATM    1  C   UNK A   0      -6.002   3.087  70.522  1.00  0.00    -0.018 C  
HETATM    2  C   UNK A   0      -7.302   2.972  69.717  1.00  0.00    -0.044 C  
HETATM    3  C   UNK A   0      -7.962   1.630  70.081  1.00  0.00    -0.051 C  
HETATM    4  C   UNK A   0      -8.270   4.173  69.953  1.00  0.00    -0.068 C  
HETATM    5  C   UNK A   0      -7.708   5.558  69.555  1.00  0.00    -0.082 C  
HETATM    6  C   UNK A   0      -7.678   5.828  68.043  1.00  0.00    -0.096 C  
HETATM    7  C   UNK A   0      -8.980   5.467  67.298  1.00  0.00    -0.111 C  
HETATM    8  C   UNK A   0      -9.460   4.074  67.715  1.00  0.00    -0.228 C  
HETATM    9  C   UNK A   0      -9.616   3.997  69.232  1.00  0.00    -0.247 C  
ENDROOT
BRANCH   7  10
HETATM   10  C   UNK A   0     -10.095   6.517  67.462  1.00  0.00    -0.155 C  
HETATM   11  O   UNK A   0     -11.256   6.335  67.118  1.00  0.00    -0.334 OA 
ATOM     12  N   PHE A   1      -9.688   7.685  68.070  1.00  0.00    -0.149 N  
ATOM     13  H   PHE A   1      -8.697   7.802  68.281  1.00  0.00     0.000 HD 
BRANCH  12  14
ATOM     14  CA  PHE A   1     -10.610   8.767  68.428  1.00  0.00    -0.137 C  
ATOM     15  OXT PHE A   1      -9.953   8.232  70.714  1.00  0.00    -0.186 OA 
ATOM     16  C   PHE A   1     -10.685   8.860  69.957  1.00  0.00    -0.228 C  
ATOM     17  O   PHE A   1     -11.678   9.655  70.422  1.00  0.00    -0.257 OA 
BRANCH  14  18
ATOM     18  CB  PHE A   1     -10.299  10.128  67.773  1.00  0.00    -0.253 C  
BRANCH  18  19
ATOM     19  CG  PHE A   1      -8.877  10.373  67.319  1.00  0.00    -0.135 A  
ATOM     20  CD1 PHE A   1      -8.511  10.122  65.992  1.00  0.00    -0.136 A  
ATOM     21  CE1 PHE A   1      -7.214  10.376  65.544  1.00  0.00    -0.138 A  
ATOM     22  CZ  PHE A   1      -6.267  10.903  66.417  1.00  0.00    -0.130 A  
ATOM     23  CE2 PHE A   1      -6.617  11.170  67.739  1.00  0.00    -0.064 A  
ATOM     24  CD2 PHE A   1      -7.914  10.902  68.191  1.00  0.00    -0.117 A  
ENDBRANCH  18  19
ENDBRANCH  14  18
ENDBRANCH  12  14
ENDBRANCH   7  10
TORSDOF 4
ENDMDL
MODEL      226
REMARK 921   NORMALIZED FREE ENERGY PREDICTED BY IDOCK:   -2.38 KCAL/MOL
REMARK 922        TOTAL FREE ENERGY PREDICTED BY IDOCK:   -3.97 KCAL/MOL
REMARK 923 INTER-LIGAND FREE ENERGY PREDICTED BY IDOCK:   -4.39 KCAL/MOL
REMARK 924 INTRA-LIGAND FREE ENERGY PREDICTED BY IDOCK:    0.43 KCAL/MOL
REMARK 927      BINDING AFFINITY PREDICTED BY RF-SCORE:    0.00 PKD
ROOT
HETATM    1  C   UNK A   0      -8.133  14.224  67.300  1.00  0.00    -0.199 C  
HETATM    2  C   UNK A   0      -9.399  13.402  67.030  1.00  0.00    -0.243 C  
HETATM    3  C   UNK A   0     -10.145  14.064  65.858  1.00  0.00    -0.336 C  
HETATM    4  C   UNK A   0      -9.097  11.899  66.745  1.00  0.00    -0.197 C  
HETATM    5  C   UNK A   0      -8.400  11.139  67.898  1.00  0.00    -0.129 C  
HETATM    6  C   UNK A   0      -9.321  10.772  69.073  1.00  0.00    -0.168 C  
HETATM    7  C   UNK A   0     -10.670  10.146  68.664  1.00  0.00    -0.253 C  
HETATM    8  C   UNK A   0     -11.317  10.966  67.544  1.00  0.00    -0.309 C  
HETATM    9  C   UNK A   0     -10.357  11.105  66.364  1.00  0.00    -0.300 C  
ENDROOT
BRANCH   7  10
HETATM   10  C   UNK A   0     -10.568   8.658  68.282  1.00  0.00    -0.128 C  
HETATM   11  O   UNK A   0     -10.870   8.216  67.181  1.00  0.00    -0.261 OA 
ATOM     12  N   PHE A   1     -10.068   7.850  69.281  1.00  0.00    -0.192 N  
ATOM     13  H   PHE A   1      -9.890   8.264  70.196  1.00  0.00     0.000 HD 
BRANCH  12  14
ATOM     14  CA  PHE A   1      -9.780   6.425  69.093  1.00  0.00    -0.136 C  
ATOM     15  OXT PHE A   1     -11.333   6.124  70.948  1.00  0.00    -0.313 OA 
ATOM     16  C   PHE A   1     -10.517   5.630  70.178  1.00  0.00    -0.296 C  
ATOM     17  O   PHE A   1     -10.148   4.330  70.268  1.00  0.00    -0.191 OA 
BRANCH  14  18
ATOM     18  CB  PHE A   1     -10.065   5.886  67.677  1.00  0.00    -0.194 C  
BRANCH  18  19
ATOM     19  CG  PHE A   1      -8.883   5.403  66.865  1.00  0.00    -0.111 A  
ATOM     20  CD1 PHE A   1      -7.935   4.552  67.445  1.00  0.00    -0.100 A  
ATOM     21  CE1 PHE A   1      -6.858   4.066  66.703  1.00  0.00    -0.058 A  
ATOM     22  CZ  PHE A   1      -6.724   4.411  65.361  1.00  0.00    -0.052 A  
ATOM     23  CE2 PHE A   1      -7.666   5.248  64.765  1.00  0.00    -0.087 A  
ATOM     24  CD2 PHE A   1      -8.737   5.747  65.513  1.00  0.00    -0.141 A  
ENDBRANCH  18  19
ENDBRANCH  14  18
ENDBRANCH  12  14
ENDBRANCH   7  10
TORSDOF 4
ENDMDL
MODEL      227
REMARK 921   NORMALIZED FREE ENERGY PREDICTED BY IDOCK:   -2.31 KCAL/MOL
REMARK 922        TOTAL FREE ENERGY PREDICTED BY IDOCK:   -3.88 KCAL/MOL
REMARK 923 INTER-LIGAND FREE ENERGY PREDICTED BY IDOCK:   -5.60 KCAL/MOL
REMARK 924 INTRA-LIGAND FREE ENERGY PREDICTED BY IDOCK:    1.72 KCAL/MOL
REMARK 927      BINDING AFFINITY PREDICTED BY RF-SCORE:    0.00 PKD
ROOT
HETATM    1  C   UNK A   0      -9.957  10.372  63.322  1.00  0.00    -0.118 C  
HETATM    2  C   UNK A   0     -10.099  10.690  64.816  1.00  0.00    -0.412 C  
HETATM    3  C   UNK A   0      -9.661   9.443  65.603  1.00  0.00    -0.336 C  
HETATM    4  C   UNK A   0      -9.293  11.955  65.245  1.00  0.00    -0.011 C  
HETATM    5  C   UNK A   0      -9.710  13.269  64.545  1.00  0.00     0.259 C  
HETATM    6  C   UNK A   0     -11.022  13.882  65.059  1.00  0.00    -0.371 C  
HETATM    7  C   UNK A   0     -11.143  13.951  66.595  1.00  0.00    -0.310 C  
HETATM    8  C   UNK A   0     -10.747  12.609  67.219  1.00  0.00    -0.259 C  
HETATM    9  C   UNK A   0      -9.348  12.203  66.762  1.00  0.00    -0.212 C  
ENDROOT
BRANCH   7  10
HETATM   10  C   UNK A   0     -10.356  15.115  67.224  1.00  0.00    -0.261 C  
HETATM   11  O   UNK A   0      -9.556  14.979  68.141  1.00  0.00    -0.201 OA 
ATOM     12  N   PHE A   1     -10.595  16.341  66.640  1.00  0.00    -0.287 N  
ATOM     13  H   PHE A   1     -11.315  16.403  65.920  1.00  0.00     0.000 HD 
BRANCH  12  14
ATOM     14  CA  PHE A   1      -9.868  17.560  67.005  1.00  0.00    -0.295 C  
ATOM     15  OXT PHE A   1     -10.882  17.209  69.195  1.00  0.00    -0.257 OA 
ATOM     16  C   PHE A   1     -10.228  17.930  68.450  1.00  0.00    -0.394 C  
ATOM     17  O   PHE A   1      -9.815  19.163  68.832  1.00  0.00    -0.409 OA 
BRANCH  14  18
ATOM     18  CB  PHE A   1      -8.344  17.500  66.778  1.00  0.00    -0.277 C  
BRANCH  18  19
ATOM     19  CG  PHE A   1      -7.452  17.887  67.937  1.00  0.00    -0.216 A  
ATOM     20  CD1 PHE A   1      -6.983  16.906  68.819  1.00  0.00    -0.204 A  
ATOM     21  CE1 PHE A   1      -6.130  17.236  69.872  1.00  0.00    -0.189 A  
ATOM     22  CZ  PHE A   1      -5.718  18.554  70.048  1.00  0.00    -0.242 A  
ATOM     23  CE2 PHE A   1      -6.167  19.541  69.173  1.00  0.00    -0.318 A  
ATOM     24  CD2 PHE A   1      -7.034  19.212  68.125  1.00  0.00    -0.280 A  
ENDBRANCH  18  19
ENDBRANCH  14  18
ENDBRANCH  12  14
ENDBRANCH   7  10
TORSDOF 4
ENDMDL
MODEL      228
REMARK 921   NORMALIZED FREE ENERGY PREDICTED BY IDOCK:   -2.31 KCAL/MOL
REMARK 922        TOTAL FREE ENERGY PREDICTED BY IDOCK:   -3.87 KCAL/MOL
REMARK 923 INTER-LIGAND FREE ENERGY PREDICTED BY IDOCK:   -6.06 KCAL/MOL
REMARK 924 INTRA-LIGAND FREE ENERGY PREDICTED BY IDOCK:    2.19 KCAL/MOL
REMARK 927      BINDING AFFINITY PREDICTED BY RF-SCORE:    0.00 PKD
ROOT
HETATM    1  C   UNK A   0      -8.023  19.637  68.791  1.00  0.00    -0.314 C  
HETATM    2  C   UNK A   0      -9.334  18.913  68.461  1.00  0.00    -0.412 C  
HETATM    3  C   UNK A   0     -10.316  19.957  67.902  1.00  0.00    -0.545 C  
HETATM    4  C   UNK A   0      -9.136  17.721  67.474  1.00  0.00    -0.244 C  
HETATM    5  C   UNK A   0      -8.208  16.593  67.983  1.00  0.00    -0.185 C  
HETATM    6  C   UNK A   0      -8.839  15.669  69.036  1.00  0.00    -0.243 C  
HETATM    7  C   UNK A   0     -10.259  15.174  68.691  1.00  0.00    -0.227 C  
HETATM    8  C   UNK A   0     -11.131  16.345  68.227  1.00  0.00    -0.337 C  
HETATM    9  C   UNK A   0     -10.467  17.072  67.059  1.00  0.00    -0.279 C  
ENDROOT
BRANCH   7  10
HETATM   10  C   UNK A   0     -10.279  14.022  67.670  1.00  0.00    -0.241 C  
HETATM   11  O   UNK A   0      -9.270  13.505  67.207  1.00  0.00    -0.213 OA 
ATOM     12  N   PHE A   1     -11.543  13.582  67.337  1.00  0.00    -0.335 N  
ATOM     13  H   PHE A   1     -12.346  14.089  67.709  1.00  0.00     0.000 HD 
BRANCH  12  14
ATOM     14  CA  PHE A   1     -11.789  12.422  66.476  1.00  0.00    -0.339 C  
ATOM     15  OXT PHE A   1     -10.349  13.602  64.901  1.00  0.00    -0.377 OA 
ATOM     16  C   PHE A   1     -11.105  12.663  65.124  1.00  0.00    -0.294 C  
ATOM     17  O   PHE A   1     -11.452  11.782  64.155  1.00  0.00    -0.350 OA 
BRANCH  14  18
ATOM     18  CB  PHE A   1     -11.404  11.062  67.092  1.00  0.00    -0.214 C  
BRANCH  18  19
ATOM     19  CG  PHE A   1      -9.930  10.747  67.217  1.00  0.00    -0.219 A  
ATOM     20  CD1 PHE A   1      -9.297  10.832  68.463  1.00  0.00    -0.174 A  
ATOM     21  CE1 PHE A   1      -7.947  10.510  68.606  1.00  0.00    -0.124 A  
ATOM     22  CZ  PHE A   1      -7.213  10.080  67.505  1.00  0.00    -0.089 A  
ATOM     23  CE2 PHE A   1      -7.830   9.978  66.259  1.00  0.00    -0.111 A  
ATOM     24  CD2 PHE A   1      -9.180  10.315  66.113  1.00  0.00    -0.192 A  
ENDBRANCH  18  19
ENDBRANCH  14  18
ENDBRANCH  12  14
ENDBRANCH   7  10
TORSDOF 4
ENDMDL
MODEL      229
REMARK 921   NORMALIZED FREE ENERGY PREDICTED BY IDOCK:   -2.20 KCAL/MOL
REMARK 922        TOTAL FREE ENERGY PREDICTED BY IDOCK:   -3.74 KCAL/MOL
REMARK 923 INTER-LIGAND FREE ENERGY PREDICTED BY IDOCK:   -3.74 KCAL/MOL
REMARK 924 INTRA-LIGAND FREE ENERGY PREDICTED BY IDOCK:    0.00 KCAL/MOL
REMARK 927      BINDING AFFINITY PREDICTED BY RF-SCORE:    0.00 PKD
ROOT
HETATM    1  C   UNK A   0     -10.427  18.255  67.621  1.00  0.00    -0.431 C  
HETATM    2  C   UNK A   0     -10.051  17.059  68.505  1.00  0.00    -0.303 C  
HETATM    3  C   UNK A   0     -10.954  17.097  69.751  1.00  0.00     0.344 C  
HETATM    4  C   UNK A   0     -10.158  15.695  67.756  1.00  0.00    -0.226 C  
HETATM    5  C   UNK A   0      -9.237  15.548  66.523  1.00  0.00    -0.324 C  
HETATM    6  C   UNK A   0      -7.757  15.296  66.853  1.00  0.00    -0.108 C  
HETATM    7  C   UNK A   0      -7.511  14.214  67.924  1.00  0.00    -0.158 C  
HETATM    8  C   UNK A   0      -8.431  14.439  69.127  1.00  0.00     0.080 C  
HETATM    9  C   UNK A   0      -9.890  14.493  68.678  1.00  0.00    -0.232 C  
ENDROOT
BRANCH   7  10
HETATM   10  C   UNK A   0      -7.633  12.776  67.386  1.00  0.00    -0.152 C  
HETATM   11  O   UNK A   0      -6.686  12.126  66.961  1.00  0.00    -0.140 OA 
ATOM     12  N   PHE A   1      -8.906  12.252  67.456  1.00  0.00    -0.173 N  
ATOM     13  H   PHE A   1      -9.665  12.860  67.764  1.00  0.00     0.000 HD 
BRANCH  12  14
ATOM     14  CA  PHE A   1      -9.223  10.864  67.107  1.00  0.00    -0.148 C  
ATOM     15  OXT PHE A   1     -10.677  10.970  69.062  1.00  0.00    -0.198 OA 
ATOM     16  C   PHE A   1     -10.164  10.294  68.176  1.00  0.00    -0.164 C  
ATOM     17  O   PHE A   1     -10.344   8.953  68.108  1.00  0.00    -0.201 OA 
BRANCH  14  18
ATOM     18  CB  PHE A   1      -9.767  10.660  65.680  1.00  0.00    -0.283 C  
BRANCH  18  19
ATOM     19  CG  PHE A   1      -8.830  10.055  64.658  1.00  0.00    -0.227 A  
ATOM     20  CD1 PHE A   1      -7.528   9.695  65.026  1.00  0.00    -0.116 A  
ATOM     21  CE1 PHE A   1      -6.661   9.101  64.108  1.00  0.00    -0.088 A  
ATOM     22  CZ  PHE A   1      -7.091   8.842  62.811  1.00  0.00    -0.093 A  
ATOM     23  CE2 PHE A   1      -8.387   9.183  62.430  1.00  0.00    -0.183 A  
ATOM     24  CD2 PHE A   1      -9.252   9.791  63.346  1.00  0.00    -0.217 A  
ENDBRANCH  18  19
ENDBRANCH  14  18
ENDBRANCH  12  14
ENDBRANCH   7  10
TORSDOF 4
ENDMDL
MODEL      230
REMARK 921   NORMALIZED FREE ENERGY PREDICTED BY IDOCK:   -2.04 KCAL/MOL
REMARK 922        TOTAL FREE ENERGY PREDICTED BY IDOCK:   -3.55 KCAL/MOL
REMARK 923 INTER-LIGAND FREE ENERGY PREDICTED BY IDOCK:   -3.76 KCAL/MOL
REMARK 924 INTRA-LIGAND FREE ENERGY PREDICTED BY IDOCK:    0.21 KCAL/MOL
REMARK 927      BINDING AFFINITY PREDICTED BY RF-SCORE:    0.00 PKD
ROOT
HETATM    1  C   UNK A   0     -12.205  15.126  68.487  1.00  0.00    -0.016 C  
HETATM    2  C   UNK A   0     -11.482  13.880  69.014  1.00  0.00    -0.341 C  
HETATM    3  C   UNK A   0     -11.860  13.712  70.496  1.00  0.00    -0.277 C  
HETATM    4  C   UNK A   0     -11.804  12.597  68.187  1.00  0.00    -0.366 C  
HETATM    5  C   UNK A   0     -11.400  12.657  66.696  1.00  0.00    -0.379 C  
HETATM    6  C   UNK A   0      -9.895  12.496  66.432  1.00  0.00    -0.260 C  
HETATM    7  C   UNK A   0      -9.228  11.333  67.193  1.00  0.00    -0.169 C  
HETATM    8  C   UNK A   0      -9.645  11.354  68.666  1.00  0.00    -0.179 C  
HETATM    9  C   UNK A   0     -11.167  11.332  68.787  1.00  0.00    -0.311 C  
ENDROOT
BRANCH   7  10
HETATM   10  C   UNK A   0      -9.483   9.953  66.557  1.00  0.00    -0.181 C  
HETATM   11  O   UNK A   0     -10.416   9.716  65.800  1.00  0.00    -0.105 OA 
ATOM     12  N   PHE A   1      -8.544   8.998  66.882  1.00  0.00    -0.122 N  
ATOM     13  H   PHE A   1      -7.824   9.237  67.563  1.00  0.00     0.000 HD 
BRANCH  12  14
ATOM     14  CA  PHE A   1      -8.531   7.654  66.296  1.00  0.00    -0.139 C  
ATOM     15  OXT PHE A   1      -6.957   8.633  64.712  1.00  0.00    -0.072 OA 
ATOM     16  C   PHE A   1      -7.650   7.677  65.040  1.00  0.00    -0.097 C  
ATOM     17  O   PHE A   1      -7.743   6.566  64.271  1.00  0.00    -0.094 OA 
BRANCH  14  18
ATOM     18  CB  PHE A   1      -8.134   6.526  67.269  1.00  0.00    -0.113 C  
BRANCH  18  19
ATOM     19  CG  PHE A   1      -8.170   5.108  66.741  1.00  0.00    -0.108 A  
ATOM     20  CD1 PHE A   1      -9.392   4.439  66.610  1.00  0.00    -0.169 A  
ATOM     21  CE1 PHE A   1      -9.450   3.145  66.091  1.00  0.00    -0.048 A  
ATOM     22  CZ  PHE A   1      -8.284   2.507  65.679  1.00  0.00    -0.087 A  
ATOM     23  CE2 PHE A   1      -7.060   3.163  65.792  1.00  0.00    -0.065 A  
ATOM     24  CD2 PHE A   1      -7.000   4.455  66.325  1.00  0.00    -0.066 A  
ENDBRANCH  18  19
ENDBRANCH  14  18
ENDBRANCH  12  14
ENDBRANCH   7  10
TORSDOF 4
ENDMDL
MODEL      231
REMARK 921   NORMALIZED FREE ENERGY PREDICTED BY IDOCK:   -1.97 KCAL/MOL
REMARK 922        TOTAL FREE ENERGY PREDICTED BY IDOCK:   -3.46 KCAL/MOL
REMARK 923 INTER-LIGAND FREE ENERGY PREDICTED BY IDOCK:   -2.77 KCAL/MOL
REMARK 924 INTRA-LIGAND FREE ENERGY PREDICTED BY IDOCK:   -0.69 KCAL/MOL
REMARK 927      BINDING AFFINITY PREDICTED BY RF-SCORE:    0.00 PKD
ROOT
HETATM    1  C   UNK A   0      -6.146   3.824  74.484  1.00  0.00    -0.021 C  
HETATM    2  C   UNK A   0      -7.324   4.322  73.637  1.00  0.00    -0.076 C  
HETATM    3  C   UNK A   0      -8.161   5.272  74.512  1.00  0.00    -0.101 C  
HETATM    4  C   UNK A   0      -6.870   5.008  72.311  1.00  0.00    -0.062 C  
HETATM    5  C   UNK A   0      -6.073   4.103  71.343  1.00  0.00    -0.014 C  
HETATM    6  C   UNK A   0      -6.923   3.083  70.570  1.00  0.00    -0.033 C  
HETATM    7  C   UNK A   0      -8.207   3.660  69.940  1.00  0.00    -0.070 C  
HETATM    8  C   UNK A   0      -8.962   4.516  70.962  1.00  0.00    -0.165 C  
HETATM    9  C   UNK A   0      -8.048   5.603  71.522  1.00  0.00    -0.118 C  
ENDROOT
BRANCH   7  10
HETATM   10  C   UNK A   0      -7.957   4.437  68.634  1.00  0.00    -0.077 C  
HETATM   11  O   UNK A   0      -6.859   4.539  68.102  1.00  0.00    -0.053 OA 
ATOM     12  N   PHE A   1      -9.092   4.988  68.077  1.00  0.00    -0.112 N  
ATOM     13  H   PHE A   1      -9.968   4.920  68.595  1.00  0.00     0.000 HD 
BRANCH  12  14
ATOM     14  CA  PHE A   1      -9.100   5.667  66.778  1.00  0.00    -0.120 C  
ATOM     15  OXT PHE A   1      -9.824   3.498  65.931  1.00  0.00    -0.097 OA 
ATOM     16  C   PHE A   1      -9.453   4.642  65.693  1.00  0.00    -0.174 C  
ATOM     17  O   PHE A   1      -9.261   5.080  64.425  1.00  0.00    -0.055 OA 
BRANCH  14  18
ATOM     18  CB  PHE A   1      -9.991   6.924  66.708  1.00  0.00    -0.248 C  
BRANCH  18  19
ATOM     19  CG  PHE A   1      -9.304   8.250  66.462  1.00  0.00    -0.263 A  
ATOM     20  CD1 PHE A   1      -7.911   8.345  66.550  1.00  0.00    -0.092 A  
ATOM     21  CE1 PHE A   1      -7.256   9.550  66.291  1.00  0.00    -0.093 A  
ATOM     22  CZ  PHE A   1      -7.987  10.675  65.922  1.00  0.00    -0.157 A  
ATOM     23  CE2 PHE A   1      -9.374  10.594  65.818  1.00  0.00    -0.223 A  
ATOM     24  CD2 PHE A   1     -10.032   9.391  66.092  1.00  0.00    -0.351 A  
ENDBRANCH  18  19
ENDBRANCH  14  18
ENDBRANCH  12  14
ENDBRANCH   7  10
TORSDOF 4
ENDMDL
MODEL      232
REMARK 921   NORMALIZED FREE ENERGY PREDICTED BY IDOCK:   -1.96 KCAL/MOL
REMARK 922        TOTAL FREE ENERGY PREDICTED BY IDOCK:   -3.45 KCAL/MOL
REMARK 923 INTER-LIGAND FREE ENERGY PREDICTED BY IDOCK:   -3.42 KCAL/MOL
REMARK 924 INTRA-LIGAND FREE ENERGY PREDICTED BY IDOCK:   -0.03 KCAL/MOL
REMARK 927      BINDING AFFINITY PREDICTED BY RF-SCORE:    0.00 PKD
ROOT
HETATM    1  C   UNK A   0      -6.476   2.653  74.500  1.00  0.00    -0.021 C  
HETATM    2  C   UNK A   0      -6.753   4.127  74.179  1.00  0.00    -0.058 C  
HETATM    3  C   UNK A   0      -5.426   4.893  74.320  1.00  0.00    -0.018 C  
HETATM    4  C   UNK A   0      -7.389   4.331  72.769  1.00  0.00    -0.073 C  
HETATM    5  C   UNK A   0      -8.758   3.642  72.559  1.00  0.00    -0.100 C  
HETATM    6  C   UNK A   0      -9.942   4.348  73.238  1.00  0.00    -0.183 C  
HETATM    7  C   UNK A   0      -9.992   5.874  73.022  1.00  0.00    -0.188 C  
HETATM    8  C   UNK A   0      -8.615   6.493  73.277  1.00  0.00    -0.127 C  
HETATM    9  C   UNK A   0      -7.558   5.816  72.407  1.00  0.00    -0.101 C  
ENDROOT
BRANCH   7  10
HETATM   10  C   UNK A   0     -10.543   6.283  71.643  1.00  0.00    -0.227 C  
HETATM   11  O   UNK A   0     -10.722   5.497  70.721  1.00  0.00    -0.261 OA 
ATOM     12  N   PHE A   1     -10.861   7.620  71.534  1.00  0.00    -0.226 N  
ATOM     13  H   PHE A   1     -10.636   8.237  72.314  1.00  0.00     0.000 HD 
BRANCH  12  14
ATOM     14  CA  PHE A   1     -11.507   8.198  70.352  1.00  0.00    -0.125 C  
ATOM     15  OXT PHE A   1     -11.549  10.240  71.684  1.00  0.00    -0.191 OA 
ATOM     16  C   PHE A   1     -11.893   9.649  70.666  1.00  0.00    -0.256 C  
ATOM     17  O   PHE A   1     -12.708  10.223  69.749  1.00  0.00    -0.024 OA 
BRANCH  14  18
ATOM     18  CB  PHE A   1     -10.698   8.077  69.045  1.00  0.00    -0.107 C  
BRANCH  18  19
ATOM     19  CG  PHE A   1      -9.965   9.310  68.564  1.00  0.00    -0.193 A  
ATOM     20  CD1 PHE A   1      -8.773   9.704  69.183  1.00  0.00    -0.151 A  
ATOM     21  CE1 PHE A   1      -8.063  10.817  68.730  1.00  0.00    -0.143 A  
ATOM     22  CZ  PHE A   1      -8.528  11.543  67.637  1.00  0.00    -0.135 A  
ATOM     23  CE2 PHE A   1      -9.707  11.157  67.002  1.00  0.00    -0.210 A  
ATOM     24  CD2 PHE A   1     -10.426  10.050  67.464  1.00  0.00    -0.307 A  
ENDBRANCH  18  19
ENDBRANCH  14  18
ENDBRANCH  12  14
ENDBRANCH   7  10
TORSDOF 4
ENDMDL
MODEL      233
REMARK 921   NORMALIZED FREE ENERGY PREDICTED BY IDOCK:   -1.96 KCAL/MOL
REMARK 922        TOTAL FREE ENERGY PREDICTED BY IDOCK:   -3.44 KCAL/MOL
REMARK 923 INTER-LIGAND FREE ENERGY PREDICTED BY IDOCK:   -3.20 KCAL/MOL
REMARK 924 INTRA-LIGAND FREE ENERGY PREDICTED BY IDOCK:   -0.24 KCAL/MOL
REMARK 927      BINDING AFFINITY PREDICTED BY RF-SCORE:    0.00 PKD
ROOT
HETATM    1  C   UNK A   0      -5.368   9.833  72.316  1.00  0.00     0.008 C  
HETATM    2  C   UNK A   0      -6.387   8.939  71.598  1.00  0.00    -0.074 C  
HETATM    3  C   UNK A   0      -7.100   8.091  72.666  1.00  0.00    -0.107 C  
HETATM    4  C   UNK A   0      -7.401   9.749  70.733  1.00  0.00     0.010 C  
HETATM    5  C   UNK A   0      -6.772  10.585  69.593  1.00  0.00    -0.108 C  
HETATM    6  C   UNK A   0      -6.323   9.769  68.372  1.00  0.00    -0.054 C  
HETATM    7  C   UNK A   0      -7.355   8.740  67.868  1.00  0.00    -0.088 C  
HETATM    8  C   UNK A   0      -7.911   7.927  69.042  1.00  0.00    -0.110 C  
HETATM    9  C   UNK A   0      -8.487   8.858  70.107  1.00  0.00    -0.150 C  
ENDROOT
BRANCH   7  10
HETATM   10  C   UNK A   0      -8.488   9.363  67.031  1.00  0.00    -0.127 C  
HETATM   11  O   UNK A   0      -9.284   8.708  66.369  1.00  0.00    -0.165 OA 
ATOM     12  N   PHE A   1      -8.564  10.737  67.115  1.00  0.00    -0.128 N  
ATOM     13  H   PHE A   1      -7.839  11.232  67.634  1.00  0.00     0.000 HD 
BRANCH  12  14
ATOM     14  CA  PHE A   1      -9.635  11.521  66.493  1.00  0.00    -0.205 C  
ATOM     15  OXT PHE A   1     -10.877  10.960  68.516  1.00  0.00    -0.189 OA 
ATOM     16  C   PHE A   1     -10.876  11.454  67.393  1.00  0.00    -0.254 C  
ATOM     17  O   PHE A   1     -12.008  11.933  66.824  1.00  0.00    -0.613 OA 
BRANCH  14  18
ATOM     18  CB  PHE A   1      -9.253  12.970  66.131  1.00  0.00    -0.010 C  
BRANCH  18  19
ATOM     19  CG  PHE A   1      -8.724  13.849  67.243  1.00  0.00    -0.225 A  
ATOM     20  CD1 PHE A   1      -7.506  14.522  67.086  1.00  0.00    -0.002 A  
ATOM     21  CE1 PHE A   1      -7.019  15.366  68.084  1.00  0.00    -0.131 A  
ATOM     22  CZ  PHE A   1      -7.754  15.563  69.249  1.00  0.00    -0.223 A  
ATOM     23  CE2 PHE A   1      -8.973  14.910  69.417  1.00  0.00    -0.044 A  
ATOM     24  CD2 PHE A   1      -9.455  14.053  68.422  1.00  0.00    -0.213 A  
ENDBRANCH  18  19
ENDBRANCH  14  18
ENDBRANCH  12  14
ENDBRANCH   7  10
TORSDOF 4
ENDMDL
MODEL      234
REMARK 921   NORMALIZED FREE ENERGY PREDICTED BY IDOCK:   -1.95 KCAL/MOL
REMARK 922        TOTAL FREE ENERGY PREDICTED BY IDOCK:   -3.43 KCAL/MOL
REMARK 923 INTER-LIGAND FREE ENERGY PREDICTED BY IDOCK:   -3.03 KCAL/MOL
REMARK 924 INTRA-LIGAND FREE ENERGY PREDICTED BY IDOCK:   -0.40 KCAL/MOL
REMARK 927      BINDING AFFINITY PREDICTED BY RF-SCORE:    0.00 PKD
ROOT
HETATM    1  C   UNK A   0      -9.371   5.883  74.111  1.00  0.00    -0.139 C  
HETATM    2  C   UNK A   0      -8.609   5.577  72.815  1.00  0.00    -0.120 C  
HETATM    3  C   UNK A   0      -8.592   4.050  72.632  1.00  0.00    -0.103 C  
HETATM    4  C   UNK A   0      -9.214   6.300  71.572  1.00  0.00    -0.149 C  
HETATM    5  C   UNK A   0      -9.215   7.845  71.646  1.00  0.00    -0.180 C  
HETATM    6  C   UNK A   0      -7.845   8.500  71.410  1.00  0.00    -0.153 C  
HETATM    7  C   UNK A   0      -7.070   7.953  70.193  1.00  0.00    -0.050 C  
HETATM    8  C   UNK A   0      -7.082   6.422  70.201  1.00  0.00    -0.074 C  
HETATM    9  C   UNK A   0      -8.516   5.902  70.260  1.00  0.00    -0.127 C  
ENDROOT
BRANCH   7  10
HETATM   10  C   UNK A   0      -7.566   8.511  68.846  1.00  0.00    -0.096 C  
HETATM   11  O   UNK A   0      -7.056   8.235  67.767  1.00  0.00    -0.079 OA 
ATOM     12  N   PHE A   1      -8.671   9.329  68.944  1.00  0.00    -0.130 N  
ATOM     13  H   PHE A   1      -9.015   9.570  69.873  1.00  0.00     0.000 HD 
BRANCH  12  14
ATOM     14  CA  PHE A   1      -9.374   9.872  67.778  1.00  0.00    -0.140 C  
ATOM     15  OXT PHE A   1     -11.111  10.423  69.397  1.00  0.00    -0.224 OA 
ATOM     16  C   PHE A   1     -10.758  10.359  68.225  1.00  0.00    -0.235 C  
ATOM     17  O   PHE A   1     -11.601  10.662  67.209  1.00  0.00    -0.392 OA 
BRANCH  14  18
ATOM     18  CB  PHE A   1      -8.598  10.950  66.995  1.00  0.00    -0.136 C  
BRANCH  18  19
ATOM     19  CG  PHE A   1      -8.572  12.347  67.574  1.00  0.00    -0.177 A  
ATOM     20  CD1 PHE A   1      -7.886  12.599  68.768  1.00  0.00     0.039 A  
ATOM     21  CE1 PHE A   1      -7.819  13.887  69.300  1.00  0.00     0.254 A  
ATOM     22  CZ  PHE A   1      -8.425  14.948  68.634  1.00  0.00    -0.166 A  
ATOM     23  CE2 PHE A   1      -9.102  14.717  67.438  1.00  0.00    -0.202 A  
ATOM     24  CD2 PHE A   1      -9.181  13.424  66.912  1.00  0.00    -0.251 A  
ENDBRANCH  18  19
ENDBRANCH  14  18
ENDBRANCH  12  14
ENDBRANCH   7  10
TORSDOF 4
ENDMDL
MODEL      235
REMARK 921   NORMALIZED FREE ENERGY PREDICTED BY IDOCK:   -1.94 KCAL/MOL
REMARK 922        TOTAL FREE ENERGY PREDICTED BY IDOCK:   -3.42 KCAL/MOL
REMARK 923 INTER-LIGAND FREE ENERGY PREDICTED BY IDOCK:   -4.28 KCAL/MOL
REMARK 924 INTRA-LIGAND FREE ENERGY PREDICTED BY IDOCK:    0.86 KCAL/MOL
REMARK 927      BINDING AFFINITY PREDICTED BY RF-SCORE:    0.00 PKD
ROOT
HETATM    1  C   UNK A   0     -10.446  18.320  67.639  1.00  0.00    -0.431 C  
HETATM    2  C   UNK A   0     -10.024  17.202  68.600  1.00  0.00    -0.313 C  
HETATM    3  C   UNK A   0     -10.779  17.415  69.924  1.00  0.00     0.539 C  
HETATM    4  C   UNK A   0     -10.272  15.776  68.018  1.00  0.00    -0.229 C  
HETATM    5  C   UNK A   0      -9.502  15.455  66.716  1.00  0.00    -0.260 C  
HETATM    6  C   UNK A   0      -8.006  15.159  66.911  1.00  0.00    -0.155 C  
HETATM    7  C   UNK A   0      -7.688  14.180  68.059  1.00  0.00    -0.147 C  
HETATM    8  C   UNK A   0      -8.456  14.576  69.323  1.00  0.00     0.099 C  
HETATM    9  C   UNK A   0      -9.953  14.662  69.029  1.00  0.00    -0.195 C  
ENDROOT
BRANCH   7  10
HETATM   10  C   UNK A   0      -7.930  12.703  67.694  1.00  0.00    -0.169 C  
HETATM   11  O   UNK A   0      -7.042  11.933  67.352  1.00  0.00    -0.108 OA 
ATOM     12  N   PHE A   1      -9.241  12.297  67.821  1.00  0.00    -0.184 N  
ATOM     13  H   PHE A   1      -9.946  12.997  68.053  1.00  0.00     0.000 HD 
BRANCH  12  14
ATOM     14  CA  PHE A   1      -9.672  10.908  67.638  1.00  0.00    -0.171 C  
ATOM     15  OXT PHE A   1      -9.211  11.339  65.283  1.00  0.00    -0.218 OA 
ATOM     16  C   PHE A   1      -9.667  10.588  66.138  1.00  0.00    -0.209 C  
ATOM     17  O   PHE A   1     -10.272   9.421  65.812  1.00  0.00    -0.231 OA 
BRANCH  14  18
ATOM     18  CB  PHE A   1      -8.884   9.869  68.461  1.00  0.00    -0.122 C  
BRANCH  18  19
ATOM     19  CG  PHE A   1      -9.529   9.352  69.728  1.00  0.00    -0.216 A  
ATOM     20  CD1 PHE A   1     -10.685   9.963  70.227  1.00  0.00    -0.367 A  
ATOM     21  CE1 PHE A   1     -11.315   9.479  71.374  1.00  0.00    -0.462 A  
ATOM     22  CZ  PHE A   1     -10.807   8.361  72.029  1.00  0.00    -0.390 A  
ATOM     23  CE2 PHE A   1      -9.663   7.733  71.539  1.00  0.00    -0.195 A  
ATOM     24  CD2 PHE A   1      -9.023   8.228  70.398  1.00  0.00    -0.146 A  
ENDBRANCH  18  19
ENDBRANCH  14  18
ENDBRANCH  12  14
ENDBRANCH   7  10
TORSDOF 4
ENDMDL
MODEL      236
REMARK 921   NORMALIZED FREE ENERGY PREDICTED BY IDOCK:   -1.70 KCAL/MOL
REMARK 922        TOTAL FREE ENERGY PREDICTED BY IDOCK:   -3.13 KCAL/MOL
REMARK 923 INTER-LIGAND FREE ENERGY PREDICTED BY IDOCK:   -2.92 KCAL/MOL
REMARK 924 INTRA-LIGAND FREE ENERGY PREDICTED BY IDOCK:   -0.21 KCAL/MOL
REMARK 927      BINDING AFFINITY PREDICTED BY RF-SCORE:    0.00 PKD
ROOT
HETATM    1  C   UNK A   0      -5.145  18.851  70.250  1.00  0.00    -0.204 C  
HETATM    2  C   UNK A   0      -5.367  17.351  70.483  1.00  0.00    -0.259 C  
HETATM    3  C   UNK A   0      -5.562  17.137  71.994  1.00  0.00     1.180 C  
HETATM    4  C   UNK A   0      -6.564  16.780  69.661  1.00  0.00    -0.148 C  
HETATM    5  C   UNK A   0      -6.423  16.901  68.125  1.00  0.00    -0.148 C  
HETATM    6  C   UNK A   0      -5.453  15.892  67.489  1.00  0.00    -0.109 C  
HETATM    7  C   UNK A   0      -5.631  14.437  67.968  1.00  0.00    -0.128 C  
HETATM    8  C   UNK A   0      -5.730  14.389  69.496  1.00  0.00    -0.095 C  
HETATM    9  C   UNK A   0      -6.852  15.305  69.984  1.00  0.00    -0.080 C  
ENDROOT
BRANCH   7  10
HETATM   10  C   UNK A   0      -6.817  13.710  67.307  1.00  0.00     0.148 C  
HETATM   11  O   UNK A   0      -7.744  14.287  66.751  1.00  0.00     0.184 OA 
ATOM     12  N   PHE A   1      -6.736  12.335  67.354  1.00  0.00    -0.139 N  
ATOM     13  H   PHE A   1      -5.971  11.912  67.881  1.00  0.00     0.000 HD 
BRANCH  12  14
ATOM     14  CA  PHE A   1      -7.695  11.450  66.686  1.00  0.00    -0.129 C  
ATOM     15  OXT PHE A   1      -6.444   9.674  67.793  1.00  0.00    -0.057 OA 
ATOM     16  C   PHE A   1      -7.310   9.996  66.987  1.00  0.00    -0.091 C  
ATOM     17  O   PHE A   1      -7.966   9.077  66.240  1.00  0.00    -0.101 OA 
BRANCH  14  18
ATOM     18  CB  PHE A   1      -9.176  11.742  67.001  1.00  0.00    -0.187 C  
BRANCH  18  19
ATOM     19  CG  PHE A   1     -10.107  11.958  65.828  1.00  0.00    -0.272 A  
ATOM     20  CD1 PHE A   1      -9.812  11.388  64.584  1.00  0.00    -0.302 A  
ATOM     21  CE1 PHE A   1     -10.676  11.544  63.500  1.00  0.00    -0.483 A  
ATOM     22  CZ  PHE A   1     -11.859  12.260  63.650  1.00  0.00    -0.610 A  
ATOM     23  CE2 PHE A   1     -12.174  12.825  64.884  1.00  0.00    -0.519 A  
ATOM     24  CD2 PHE A   1     -11.301  12.680  65.968  1.00  0.00    -0.369 A  
ENDBRANCH  18  19
ENDBRANCH  14  18
ENDBRANCH  12  14
ENDBRANCH   7  10
TORSDOF 4
ENDMDL
MODEL      237
REMARK 921   NORMALIZED FREE ENERGY PREDICTED BY IDOCK:   -1.57 KCAL/MOL
REMARK 922        TOTAL FREE ENERGY PREDICTED BY IDOCK:   -2.96 KCAL/MOL
REMARK 923 INTER-LIGAND FREE ENERGY PREDICTED BY IDOCK:   -3.61 KCAL/MOL
REMARK 924 INTRA-LIGAND FREE ENERGY PREDICTED BY IDOCK:    0.65 KCAL/MOL
REMARK 927      BINDING AFFINITY PREDICTED BY RF-SCORE:    0.00 PKD
ROOT
HETATM    1  C   UNK A   0     -10.292  17.633  66.408  1.00  0.00    -0.345 C  
HETATM    2  C   UNK A   0     -10.078  16.771  67.658  1.00  0.00    -0.275 C  
HETATM    3  C   UNK A   0     -11.267  17.017  68.604  1.00  0.00    -0.003 C  
HETATM    4  C   UNK A   0      -9.908  15.256  67.328  1.00  0.00    -0.220 C  
HETATM    5  C   UNK A   0      -8.698  14.912  66.428  1.00  0.00    -0.117 C  
HETATM    6  C   UNK A   0      -7.337  14.950  67.141  1.00  0.00    -0.060 C  
HETATM    7  C   UNK A   0      -7.302  14.228  68.503  1.00  0.00    -0.117 C  
HETATM    8  C   UNK A   0      -8.509  14.640  69.353  1.00  0.00     0.100 C  
HETATM    9  C   UNK A   0      -9.807  14.384  68.590  1.00  0.00    -0.231 C  
ENDROOT
BRANCH   7  10
HETATM   10  C   UNK A   0      -7.195  12.696  68.387  1.00  0.00    -0.111 C  
HETATM   11  O   UNK A   0      -6.725  11.979  69.261  1.00  0.00    -0.105 OA 
ATOM     12  N   PHE A   1      -7.714  12.180  67.219  1.00  0.00    -0.163 N  
ATOM     13  H   PHE A   1      -8.039  12.830  66.503  1.00  0.00     0.000 HD 
BRANCH  12  14
ATOM     14  CA  PHE A   1      -7.820  10.742  66.954  1.00  0.00    -0.130 C  
ATOM     15  OXT PHE A   1      -5.639  11.029  65.903  1.00  0.00    -0.138 OA 
ATOM     16  C   PHE A   1      -6.600  10.305  66.133  1.00  0.00    -0.105 C  
ATOM     17  O   PHE A   1      -6.691   9.056  65.616  1.00  0.00    -0.070 OA 
BRANCH  14  18
ATOM     18  CB  PHE A   1      -8.029   9.865  68.205  1.00  0.00    -0.100 C  
BRANCH  18  19
ATOM     19  CG  PHE A   1      -8.982   8.696  68.084  1.00  0.00    -0.141 A  
ATOM     20  CD1 PHE A   1      -9.375   7.990  69.227  1.00  0.00    -0.151 A  
ATOM     21  CE1 PHE A   1     -10.282   6.933  69.141  1.00  0.00    -0.196 A  
ATOM     22  CZ  PHE A   1     -10.824   6.579  67.910  1.00  0.00    -0.383 A  
ATOM     23  CE2 PHE A   1     -10.453   7.278  66.763  1.00  0.00    -0.311 A  
ATOM     24  CD2 PHE A   1      -9.533   8.329  66.847  1.00  0.00    -0.240 A  
ENDBRANCH  18  19
ENDBRANCH  14  18
ENDBRANCH  12  14
ENDBRANCH   7  10
TORSDOF 4
ENDMDL
MODEL      238
REMARK 921   NORMALIZED FREE ENERGY PREDICTED BY IDOCK:   -1.55 KCAL/MOL
REMARK 922        TOTAL FREE ENERGY PREDICTED BY IDOCK:   -2.94 KCAL/MOL
REMARK 923 INTER-LIGAND FREE ENERGY PREDICTED BY IDOCK:   -2.97 KCAL/MOL
REMARK 924 INTRA-LIGAND FREE ENERGY PREDICTED BY IDOCK:    0.03 KCAL/MOL
REMARK 927      BINDING AFFINITY PREDICTED BY RF-SCORE:    0.00 PKD
ROOT
HETATM    1  C   UNK A   0      -6.494   2.660  74.499  1.00  0.00    -0.021 C  
HETATM    2  C   UNK A   0      -6.783   4.142  74.228  1.00  0.00    -0.054 C  
HETATM    3  C   UNK A   0      -5.467   4.916  74.416  1.00  0.00    -0.018 C  
HETATM    4  C   UNK A   0      -7.402   4.390  72.818  1.00  0.00    -0.078 C  
HETATM    5  C   UNK A   0      -8.761   3.695  72.565  1.00  0.00    -0.100 C  
HETATM    6  C   UNK A   0      -9.961   4.363  73.253  1.00  0.00    -0.183 C  
HETATM    7  C   UNK A   0     -10.026   5.895  73.092  1.00  0.00    -0.188 C  
HETATM    8  C   UNK A   0      -8.659   6.519  73.389  1.00  0.00    -0.131 C  
HETATM    9  C   UNK A   0      -7.584   5.885  72.508  1.00  0.00    -0.100 C  
ENDROOT
BRANCH   7  10
HETATM   10  C   UNK A   0     -10.564   6.348  71.722  1.00  0.00    -0.220 C  
HETATM   11  O   UNK A   0     -10.733   5.592  70.774  1.00  0.00    -0.260 OA 
ATOM     12  N   PHE A   1     -10.881   7.688  71.653  1.00  0.00    -0.225 N  
ATOM     13  H   PHE A   1     -10.663   8.280  72.455  1.00  0.00     0.000 HD 
BRANCH  12  14
ATOM     14  CA  PHE A   1     -11.515   8.305  70.484  1.00  0.00    -0.175 C  
ATOM     15  OXT PHE A   1     -12.207  10.017  72.076  1.00  0.00    -0.295 OA 
ATOM     16  C   PHE A   1     -12.279   9.552  70.943  1.00  0.00    -0.254 C  
ATOM     17  O   PHE A   1     -13.105  10.080  70.008  1.00  0.00     0.121 OA 
BRANCH  14  18
ATOM     18  CB  PHE A   1     -10.562   8.601  69.309  1.00  0.00    -0.204 C  
BRANCH  18  19
ATOM     19  CG  PHE A   1      -9.239   7.866  69.284  1.00  0.00    -0.148 A  
ATOM     20  CD1 PHE A   1      -9.173   6.559  68.789  1.00  0.00    -0.131 A  
ATOM     21  CE1 PHE A   1      -7.957   5.877  68.723  1.00  0.00    -0.103 A  
ATOM     22  CZ  PHE A   1      -6.785   6.502  69.135  1.00  0.00    -0.049 A  
ATOM     23  CE2 PHE A   1      -6.831   7.808  69.620  1.00  0.00    -0.043 A  
ATOM     24  CD2 PHE A   1      -8.051   8.486  69.699  1.00  0.00    -0.113 A  
ENDBRANCH  18  19
ENDBRANCH  14  18
ENDBRANCH  12  14
ENDBRANCH   7  10
TORSDOF 4
ENDMDL
MODEL      239
REMARK 921   NORMALIZED FREE ENERGY PREDICTED BY IDOCK:   -1.48 KCAL/MOL
REMARK 922        TOTAL FREE ENERGY PREDICTED BY IDOCK:   -2.86 KCAL/MOL
REMARK 923 INTER-LIGAND FREE ENERGY PREDICTED BY IDOCK:   -2.16 KCAL/MOL
REMARK 924 INTRA-LIGAND FREE ENERGY PREDICTED BY IDOCK:   -0.69 KCAL/MOL
REMARK 927      BINDING AFFINITY PREDICTED BY RF-SCORE:    0.00 PKD
ROOT
HETATM    1  C   UNK A   0      -6.054   3.216  74.139  1.00  0.00    -0.015 C  
HETATM    2  C   UNK A   0      -7.107   4.091  73.448  1.00  0.00    -0.063 C  
HETATM    3  C   UNK A   0      -7.930   4.787  74.545  1.00  0.00    -0.095 C  
HETATM    4  C   UNK A   0      -6.483   5.120  72.455  1.00  0.00    -0.043 C  
HETATM    5  C   UNK A   0      -5.686   4.502  71.282  1.00  0.00    -0.016 C  
HETATM    6  C   UNK A   0      -6.552   3.893  70.168  1.00  0.00    -0.033 C  
HETATM    7  C   UNK A   0      -7.722   4.783  69.702  1.00  0.00    -0.059 C  
HETATM    8  C   UNK A   0      -8.485   5.334  70.911  1.00  0.00    -0.121 C  
HETATM    9  C   UNK A   0      -7.532   6.069  71.851  1.00  0.00    -0.095 C  
ENDROOT
BRANCH   7  10
HETATM   10  C   UNK A   0      -7.294   5.914  68.748  1.00  0.00    -0.084 C  
HETATM   11  O   UNK A   0      -6.170   6.013  68.271  1.00  0.00    -0.029 OA 
ATOM     12  N   PHE A   1      -8.301   6.802  68.434  1.00  0.00    -0.122 N  
ATOM     13  H   PHE A   1      -9.199   6.703  68.907  1.00  0.00     0.000 HD 
BRANCH  12  14
ATOM     14  CA  PHE A   1      -8.143   7.882  67.456  1.00  0.00    -0.124 C  
ATOM     15  OXT PHE A   1      -9.204   6.308  65.924  1.00  0.00    -0.127 OA 
ATOM     16  C   PHE A   1      -8.630   7.379  66.091  1.00  0.00    -0.146 C  
ATOM     17  O   PHE A   1      -8.319   8.190  65.051  1.00  0.00    -0.156 OA 
BRANCH  14  18
ATOM     18  CB  PHE A   1      -8.797   9.219  67.854  1.00  0.00    -0.124 C  
BRANCH  18  19
ATOM     19  CG  PHE A   1      -7.875  10.375  68.179  1.00  0.00    -0.108 A  
ATOM     20  CD1 PHE A   1      -7.704  11.416  67.259  1.00  0.00    -0.145 A  
ATOM     21  CE1 PHE A   1      -6.887  12.508  67.554  1.00  0.00    -0.150 A  
ATOM     22  CZ  PHE A   1      -6.243  12.583  68.785  1.00  0.00    -0.074 A  
ATOM     23  CE2 PHE A   1      -6.411  11.561  69.717  1.00  0.00    -0.125 A  
ATOM     24  CD2 PHE A   1      -7.218  10.459  69.416  1.00  0.00    -0.109 A  
ENDBRANCH  18  19
ENDBRANCH  14  18
ENDBRANCH  12  14
ENDBRANCH   7  10
TORSDOF 4
ENDMDL
MODEL      240
REMARK 921   NORMALIZED FREE ENERGY PREDICTED BY IDOCK:   -1.47 KCAL/MOL
REMARK 922        TOTAL FREE ENERGY PREDICTED BY IDOCK:   -2.84 KCAL/MOL
REMARK 923 INTER-LIGAND FREE ENERGY PREDICTED BY IDOCK:   -3.04 KCAL/MOL
REMARK 924 INTRA-LIGAND FREE ENERGY PREDICTED BY IDOCK:    0.20 KCAL/MOL
REMARK 927      BINDING AFFINITY PREDICTED BY RF-SCORE:    0.00 PKD
ROOT
HETATM    1  C   UNK A   0     -10.178   8.856  66.188  1.00  0.00    -0.092 C  
HETATM    2  C   UNK A   0      -9.681   7.548  66.816  1.00  0.00    -0.283 C  
HETATM    3  C   UNK A   0      -8.579   6.980  65.904  1.00  0.00    -0.152 C  
HETATM    4  C   UNK A   0      -9.178   7.731  68.282  1.00  0.00    -0.139 C  
HETATM    5  C   UNK A   0     -10.241   8.242  69.282  1.00  0.00    -0.207 C  
HETATM    6  C   UNK A   0     -11.266   7.186  69.724  1.00  0.00    -0.206 C  
HETATM    7  C   UNK A   0     -10.659   5.828  70.129  1.00  0.00    -0.377 C  
HETATM    8  C   UNK A   0      -9.642   5.368  69.080  1.00  0.00    -0.191 C  
HETATM    9  C   UNK A   0      -8.577   6.442  68.865  1.00  0.00    -0.123 C  
ENDROOT
BRANCH   7  10
HETATM   10  C   UNK A   0     -10.048   5.823  71.542  1.00  0.00    -0.196 C  
HETATM   11  O   UNK A   0     -10.575   5.289  72.510  1.00  0.00    -0.207 OA 
ATOM     12  N   PHE A   1      -8.820   6.444  71.631  1.00  0.00    -0.136 N  
ATOM     13  H   PHE A   1      -8.458   6.922  70.806  1.00  0.00     0.000 HD 
BRANCH  12  14
ATOM     14  CA  PHE A   1      -8.011   6.452  72.853  1.00  0.00    -0.106 C  
ATOM     15  OXT PHE A   1      -6.534   4.985  71.584  1.00  0.00    -0.029 OA 
ATOM     16  C   PHE A   1      -6.818   5.507  72.656  1.00  0.00    -0.077 C  
ATOM     17  O   PHE A   1      -6.125   5.237  73.787  1.00  0.00    -0.044 OA 
BRANCH  14  18
ATOM     18  CB  PHE A   1      -7.576   7.851  73.334  1.00  0.00    -0.184 C  
BRANCH  18  19
ATOM     19  CG  PHE A   1      -6.916   8.761  72.322  1.00  0.00     0.007 A  
ATOM     20  CD1 PHE A   1      -7.503   8.957  71.067  1.00  0.00    -0.124 A  
ATOM     21  CE1 PHE A   1      -6.930   9.821  70.132  1.00  0.00    -0.118 A  
ATOM     22  CZ  PHE A   1      -5.767  10.517  70.449  1.00  0.00    -0.087 A  
ATOM     23  CE2 PHE A   1      -5.176  10.342  71.699  1.00  0.00    -0.036 A  
ATOM     24  CD2 PHE A   1      -5.742   9.466  72.630  1.00  0.00     0.071 A  
ENDBRANCH  18  19
ENDBRANCH  14  18
ENDBRANCH  12  14
ENDBRANCH   7  10
TORSDOF 4
ENDMDL
MODEL      241
REMARK 921   NORMALIZED FREE ENERGY PREDICTED BY IDOCK:   -1.43 KCAL/MOL
REMARK 922        TOTAL FREE ENERGY PREDICTED BY IDOCK:   -2.80 KCAL/MOL
REMARK 923 INTER-LIGAND FREE ENERGY PREDICTED BY IDOCK:   -2.49 KCAL/MOL
REMARK 924 INTRA-LIGAND FREE ENERGY PREDICTED BY IDOCK:   -0.30 KCAL/MOL
REMARK 927      BINDING AFFINITY PREDICTED BY RF-SCORE:    0.00 PKD
ROOT
HETATM    1  C   UNK A   0      -6.054   3.216  74.139  1.00  0.00    -0.015 C  
HETATM    2  C   UNK A   0      -7.107   4.091  73.448  1.00  0.00    -0.063 C  
HETATM    3  C   UNK A   0      -7.930   4.787  74.545  1.00  0.00    -0.095 C  
HETATM    4  C   UNK A   0      -6.483   5.120  72.455  1.00  0.00    -0.043 C  
HETATM    5  C   UNK A   0      -5.686   4.502  71.282  1.00  0.00    -0.016 C  
HETATM    6  C   UNK A   0      -6.552   3.893  70.168  1.00  0.00    -0.033 C  
HETATM    7  C   UNK A   0      -7.722   4.783  69.702  1.00  0.00    -0.059 C  
HETATM    8  C   UNK A   0      -8.485   5.334  70.911  1.00  0.00    -0.121 C  
HETATM    9  C   UNK A   0      -7.532   6.069  71.851  1.00  0.00    -0.095 C  
ENDROOT
BRANCH   7  10
HETATM   10  C   UNK A   0      -7.294   5.914  68.748  1.00  0.00    -0.084 C  
HETATM   11  O   UNK A   0      -6.583   6.853  69.081  1.00  0.00    -0.045 OA 
ATOM     12  N   PHE A   1      -7.749   5.766  67.455  1.00  0.00    -0.096 N  
ATOM     13  H   PHE A   1      -8.385   4.995  67.250  1.00  0.00     0.000 HD 
BRANCH  12  14
ATOM     14  CA  PHE A   1      -7.364   6.662  66.360  1.00  0.00    -0.073 C  
ATOM     15  OXT PHE A   1      -5.717   4.935  65.861  1.00  0.00    -0.017 OA 
ATOM     16  C   PHE A   1      -6.153   6.059  65.638  1.00  0.00    -0.029 C  
ATOM     17  O   PHE A   1      -5.548   6.897  64.762  1.00  0.00    -0.030 OA 
BRANCH  14  18
ATOM     18  CB  PHE A   1      -8.504   7.026  65.388  1.00  0.00    -0.093 C  
BRANCH  18  19
ATOM     19  CG  PHE A   1      -8.999   8.456  65.402  1.00  0.00    -0.103 A  
ATOM     20  CD1 PHE A   1      -8.642   9.332  64.371  1.00  0.00    -0.216 A  
ATOM     21  CE1 PHE A   1      -9.118  10.644  64.346  1.00  0.00    -0.240 A  
ATOM     22  CZ  PHE A   1      -9.976  11.092  65.346  1.00  0.00    -0.309 A  
ATOM     23  CE2 PHE A   1     -10.351  10.229  66.374  1.00  0.00    -0.262 A  
ATOM     24  CD2 PHE A   1      -9.863   8.919  66.407  1.00  0.00    -0.353 A  
ENDBRANCH  18  19
ENDBRANCH  14  18
ENDBRANCH  12  14
ENDBRANCH   7  10
TORSDOF 4
ENDMDL
MODEL      242
REMARK 921   NORMALIZED FREE ENERGY PREDICTED BY IDOCK:   -1.40 KCAL/MOL
REMARK 922        TOTAL FREE ENERGY PREDICTED BY IDOCK:   -2.75 KCAL/MOL
REMARK 923 INTER-LIGAND FREE ENERGY PREDICTED BY IDOCK:   -3.50 KCAL/MOL
REMARK 924 INTRA-LIGAND FREE ENERGY PREDICTED BY IDOCK:    0.75 KCAL/MOL
REMARK 927      BINDING AFFINITY PREDICTED BY RF-SCORE:    0.00 PKD
ROOT
HETATM    1  C   UNK A   0      -7.957   5.788  65.680  1.00  0.00    -0.116 C  
HETATM    2  C   UNK A   0      -7.735   6.559  66.987  1.00  0.00    -0.100 C  
HETATM    3  C   UNK A   0      -6.384   6.110  67.571  1.00  0.00    -0.037 C  
HETATM    4  C   UNK A   0      -7.796   8.106  66.797  1.00  0.00    -0.095 C  
HETATM    5  C   UNK A   0      -9.144   8.651  66.270  1.00  0.00    -0.233 C  
HETATM    6  C   UNK A   0     -10.271   8.695  67.314  1.00  0.00    -0.337 C  
HETATM    7  C   UNK A   0      -9.865   9.298  68.675  1.00  0.00    -0.173 C  
HETATM    8  C   UNK A   0      -8.542   8.691  69.151  1.00  0.00    -0.129 C  
HETATM    9  C   UNK A   0      -7.461   8.872  68.088  1.00  0.00    -0.092 C  
ENDROOT
BRANCH   7  10
HETATM   10  C   UNK A   0      -9.808  10.837  68.675  1.00  0.00    -0.184 C  
HETATM   11  O   UNK A   0     -10.522  11.544  69.374  1.00  0.00    -0.108 OA 
ATOM     12  N   PHE A   1      -8.848  11.368  67.840  1.00  0.00    -0.144 N  
ATOM     13  H   PHE A   1      -8.323  10.732  67.239  1.00  0.00     0.000 HD 
BRANCH  12  14
ATOM     14  CA  PHE A   1      -8.545  12.800  67.774  1.00  0.00    -0.184 C  
ATOM     15  OXT PHE A   1      -6.305  12.100  68.437  1.00  0.00    -0.050 OA 
ATOM     16  C   PHE A   1      -7.095  13.014  68.227  1.00  0.00    -0.103 C  
ATOM     17  O   PHE A   1      -6.761  14.309  68.443  1.00  0.00    -0.088 OA 
BRANCH  14  18
ATOM     18  CB  PHE A   1      -8.837  13.464  66.414  1.00  0.00     0.105 C  
BRANCH  18  19
ATOM     19  CG  PHE A   1      -9.227  14.926  66.422  1.00  0.00    -0.317 A  
ATOM     20  CD1 PHE A   1     -10.564  15.297  66.238  1.00  0.00    -0.312 A  
ATOM     21  CE1 PHE A   1     -10.949  16.637  66.279  1.00  0.00     0.123 A  
ATOM     22  CZ  PHE A   1     -10.002  17.627  66.524  1.00  0.00    -0.332 A  
ATOM     23  CE2 PHE A   1      -8.668  17.274  66.722  1.00  0.00    -0.275 A  
ATOM     24  CD2 PHE A   1      -8.280  15.932  66.666  1.00  0.00    -0.317 A  
ENDBRANCH  18  19
ENDBRANCH  14  18
ENDBRANCH  12  14
ENDBRANCH   7  10
TORSDOF 4
ENDMDL
MODEL      243
REMARK 921   NORMALIZED FREE ENERGY PREDICTED BY IDOCK:   -0.53 KCAL/MOL
REMARK 922        TOTAL FREE ENERGY PREDICTED BY IDOCK:   -1.68 KCAL/MOL
REMARK 923 INTER-LIGAND FREE ENERGY PREDICTED BY IDOCK:   -1.30 KCAL/MOL
REMARK 924 INTRA-LIGAND FREE ENERGY PREDICTED BY IDOCK:   -0.37 KCAL/MOL
REMARK 927      BINDING AFFINITY PREDICTED BY RF-SCORE:    0.00 PKD
ROOT
HETATM    1  C   UNK A   0     -10.339   8.316  66.674  1.00  0.00    -0.293 C  
HETATM    2  C   UNK A   0      -9.913   6.849  66.806  1.00  0.00    -0.248 C  
HETATM    3  C   UNK A   0      -9.009   6.514  65.607  1.00  0.00    -0.007 C  
HETATM    4  C   UNK A   0      -9.206   6.543  68.163  1.00  0.00    -0.112 C  
HETATM    5  C   UNK A   0     -10.067   6.795  69.423  1.00  0.00    -0.183 C  
HETATM    6  C   UNK A   0     -11.136   5.725  69.694  1.00  0.00    -0.306 C  
HETATM    7  C   UNK A   0     -10.635   4.270  69.584  1.00  0.00     1.143 C  
HETATM    8  C   UNK A   0      -9.821   4.085  68.300  1.00  0.00    -0.056 C  
HETATM    9  C   UNK A   0      -8.681   5.100  68.243  1.00  0.00    -0.104 C  
ENDROOT
BRANCH   7  10
HETATM   10  C   UNK A   0      -9.849   3.794  70.820  1.00  0.00    -0.103 C  
HETATM   11  O   UNK A   0     -10.319   3.066  71.686  1.00  0.00     0.021 OA 
ATOM     12  N   PHE A   1      -8.541   4.225  70.860  1.00  0.00    -0.082 N  
ATOM     13  H   PHE A   1      -8.223   4.877  70.142  1.00  0.00     0.000 HD 
BRANCH  12  14
ATOM     14  CA  PHE A   1      -7.584   3.795  71.884  1.00  0.00    -0.058 C  
ATOM     15  OXT PHE A   1      -5.911   4.559  70.283  1.00  0.00    -0.016 OA 
ATOM     16  C   PHE A   1      -6.164   3.984  71.336  1.00  0.00    -0.014 C  
ATOM     17  O   PHE A   1      -5.194   3.404  72.082  1.00  0.00     0.000 OA 
BRANCH  14  18
ATOM     18  CB  PHE A   1      -7.771   4.453  73.265  1.00  0.00    -0.086 C  
BRANCH  18  19
ATOM     19  CG  PHE A   1      -8.230   5.895  73.292  1.00  0.00    -0.116 A  
ATOM     20  CD1 PHE A   1      -9.529   6.209  73.708  1.00  0.00    -0.152 A  
ATOM     21  CE1 PHE A   1      -9.961   7.535  73.775  1.00  0.00    -0.275 A  
ATOM     22  CZ  PHE A   1      -9.090   8.568  73.444  1.00  0.00     0.007 A  
ATOM     23  CE2 PHE A   1      -7.789   8.273  73.039  1.00  0.00    -0.188 A  
ATOM     24  CD2 PHE A   1      -7.361   6.944  72.958  1.00  0.00    -0.074 A  
ENDBRANCH  18  19
ENDBRANCH  14  18
ENDBRANCH  12  14
ENDBRANCH   7  10
TORSDOF 4
ENDMDL
MODEL      244
REMARK 921   NORMALIZED FREE ENERGY PREDICTED BY IDOCK:    0.37 KCAL/MOL
REMARK 922        TOTAL FREE ENERGY PREDICTED BY IDOCK:   -0.57 KCAL/MOL
REMARK 923 INTER-LIGAND FREE ENERGY PREDICTED BY IDOCK:    0.25 KCAL/MOL
REMARK 924 INTRA-LIGAND FREE ENERGY PREDICTED BY IDOCK:   -0.83 KCAL/MOL
REMARK 927      BINDING AFFINITY PREDICTED BY RF-SCORE:    0.00 PKD
ROOT
HETATM    1  C   UNK A   0      -5.170  18.858  70.309  1.00  0.00    -0.215 C  
HETATM    2  C   UNK A   0      -5.378  17.391  70.703  1.00  0.00    -0.243 C  
HETATM    3  C   UNK A   0      -5.712  17.353  72.205  1.00  0.00     1.564 C  
HETATM    4  C   UNK A   0      -6.475  16.683  69.850  1.00  0.00    -0.026 C  
HETATM    5  C   UNK A   0      -6.189  16.622  68.331  1.00  0.00    -0.133 C  
HETATM    6  C   UNK A   0      -5.139  15.579  67.917  1.00  0.00    -0.127 C  
HETATM    7  C   UNK A   0      -5.327  14.187  68.554  1.00  0.00    -0.098 C  
HETATM    8  C   UNK A   0      -5.573  14.320  70.060  1.00  0.00    -0.113 C  
HETATM    9  C   UNK A   0      -6.757  15.247  70.325  1.00  0.00     0.044 C  
ENDROOT
BRANCH   7  10
HETATM   10  C   UNK A   0      -6.426  13.344  67.880  1.00  0.00    -0.151 C  
HETATM   11  O   UNK A   0      -6.279  12.766  66.810  1.00  0.00    -0.037 OA 
ATOM     12  N   PHE A   1      -7.596  13.257  68.602  1.00  0.00    -0.199 N  
ATOM     13  H   PHE A   1      -7.681  13.808  69.457  1.00  0.00     0.000 HD 
BRANCH  12  14
ATOM     14  CA  PHE A   1      -8.726  12.414  68.202  1.00  0.00    -0.190 C  
ATOM     15  OXT PHE A   1      -7.812  10.851  69.836  1.00  0.00     0.098 OA 
ATOM     16  C   PHE A   1      -8.622  11.074  68.942  1.00  0.00    -0.119 C  
ATOM     17  O   PHE A   1      -9.464  10.115  68.487  1.00  0.00    -0.150 OA 
BRANCH  14  18
ATOM     18  CB  PHE A   1     -10.113  13.066  68.365  1.00  0.00    -0.225 C  
BRANCH  18  19
ATOM     19  CG  PHE A   1     -10.159  14.478  68.908  1.00  0.00    -0.224 A  
ATOM     20  CD1 PHE A   1     -10.320  15.560  68.035  1.00  0.00    -0.247 A  
ATOM     21  CE1 PHE A   1     -10.401  16.866  68.518  1.00  0.00    -0.336 A  
ATOM     22  CZ  PHE A   1     -10.340  17.107  69.888  1.00  0.00     0.221 A  
ATOM     23  CE2 PHE A   1     -10.192  16.040  70.772  1.00  0.00     0.769 A  
ATOM     24  CD2 PHE A   1     -10.096  14.732  70.286  1.00  0.00     0.387 A  
ENDBRANCH  18  19
ENDBRANCH  14  18
ENDBRANCH  12  14
ENDBRANCH   7  10
TORSDOF 4
ENDMDL
MODEL      245
REMARK 921   NORMALIZED FREE ENERGY PREDICTED BY IDOCK:    0.53 KCAL/MOL
REMARK 922        TOTAL FREE ENERGY PREDICTED BY IDOCK:   -0.37 KCAL/MOL
REMARK 923 INTER-LIGAND FREE ENERGY PREDICTED BY IDOCK:    0.22 KCAL/MOL
REMARK 924 INTRA-LIGAND FREE ENERGY PREDICTED BY IDOCK:   -0.58 KCAL/MOL
REMARK 927      BINDING AFFINITY PREDICTED BY RF-SCORE:    0.00 PKD
ROOT
HETATM    1  C   UNK A   0     -11.725  11.292  62.751  1.00  0.00     0.973 C  
HETATM    2  C   UNK A   0     -12.470  12.285  63.653  1.00  0.00    -0.647 C  
HETATM    3  C   UNK A   0     -13.915  11.780  63.809  1.00  0.00     2.185 C  
HETATM    4  C   UNK A   0     -11.777  12.486  65.035  1.00  0.00    -0.407 C  
HETATM    5  C   UNK A   0     -10.338  13.050  64.973  1.00  0.00    -0.336 C  
HETATM    6  C   UNK A   0     -10.250  14.553  64.666  1.00  0.00    -0.048 C  
HETATM    7  C   UNK A   0     -11.211  15.436  65.488  1.00  0.00    -0.234 C  
HETATM    8  C   UNK A   0     -12.621  14.838  65.479  1.00  0.00     0.032 C  
HETATM    9  C   UNK A   0     -12.588  13.394  65.975  1.00  0.00    -0.361 C  
ENDROOT
BRANCH   7  10
HETATM   10  C   UNK A   0     -10.725  15.704  66.925  1.00  0.00    -0.307 C  
HETATM   11  O   UNK A   0     -10.662  16.820  67.424  1.00  0.00    -0.314 OA 
ATOM     12  N   PHE A   1     -10.395  14.568  67.632  1.00  0.00    -0.237 N  
ATOM     13  H   PHE A   1     -10.411  13.672  67.145  1.00  0.00     0.000 HD 
BRANCH  12  14
ATOM     14  CA  PHE A   1     -10.021  14.585  69.049  1.00  0.00    -0.159 C  
ATOM     15  OXT PHE A   1     -12.386  14.118  69.419  1.00  0.00    -0.326 OA 
ATOM     16  C   PHE A   1     -11.290  14.400  69.891  1.00  0.00    -0.222 C  
ATOM     17  O   PHE A   1     -11.123  14.635  71.215  1.00  0.00    -0.040 OA 
BRANCH  14  18
ATOM     18  CB  PHE A   1      -8.909  13.591  69.439  1.00  0.00     0.975 C  
BRANCH  18  19
ATOM     19  CG  PHE A   1      -8.491  12.572  68.401  1.00  0.00    -0.125 A  
ATOM     20  CD1 PHE A   1      -9.005  11.271  68.449  1.00  0.00    -0.167 A  
ATOM     21  CE1 PHE A   1      -8.661  10.327  67.481  1.00  0.00    -0.118 A  
ATOM     22  CZ  PHE A   1      -7.810  10.679  66.437  1.00  0.00    -0.144 A  
ATOM     23  CE2 PHE A   1      -7.299  11.973  66.368  1.00  0.00     0.392 A  
ATOM     24  CD2 PHE A   1      -7.632  12.915  67.347  1.00  0.00    -0.150 A  
ENDBRANCH  18  19
ENDBRANCH  14  18
ENDBRANCH  12  14
ENDBRANCH   7  10
TORSDOF 4
ENDMDL
MODEL      246
REMARK 921   NORMALIZED FREE ENERGY PREDICTED BY IDOCK:    1.26 KCAL/MOL
REMARK 922        TOTAL FREE ENERGY PREDICTED BY IDOCK:    0.53 KCAL/MOL
REMARK 923 INTER-LIGAND FREE ENERGY PREDICTED BY IDOCK:    0.05 KCAL/MOL
REMARK 924 INTRA-LIGAND FREE ENERGY PREDICTED BY IDOCK:    0.47 KCAL/MOL
REMARK 927      BINDING AFFINITY PREDICTED BY RF-SCORE:    0.00 PKD
ROOT
HETATM    1  C   UNK A   0     -12.097   8.625  69.314  1.00  0.00     1.892 C  
HETATM    2  C   UNK A   0     -11.036   9.696  69.597  1.00  0.00    -0.223 C  
HETATM    3  C   UNK A   0      -9.666   8.997  69.638  1.00  0.00    -0.177 C  
HETATM    4  C   UNK A   0     -11.058  10.860  68.560  1.00  0.00    -0.311 C  
HETATM    5  C   UNK A   0     -12.382  11.658  68.495  1.00  0.00     0.329 C  
HETATM    6  C   UNK A   0     -12.598  12.638  69.659  1.00  0.00     0.325 C  
HETATM    7  C   UNK A   0     -11.377  13.518  69.995  1.00  0.00    -0.028 C  
HETATM    8  C   UNK A   0     -10.110  12.661  70.075  1.00  0.00     2.327 C  
HETATM    9  C   UNK A   0      -9.921  11.871  68.782  1.00  0.00    -0.105 C  
ENDROOT
BRANCH   7  10
HETATM   10  C   UNK A   0     -11.189  14.706  69.033  1.00  0.00    -0.269 C  
HETATM   11  O   UNK A   0     -12.055  15.542  68.807  1.00  0.00    -0.291 OA 
ATOM     12  N   PHE A   1      -9.937  14.781  68.463  1.00  0.00    -0.221 N  
ATOM     13  H   PHE A   1      -9.276  14.024  68.642  1.00  0.00     0.000 HD 
BRANCH  12  14
ATOM     14  CA  PHE A   1      -9.507  15.893  67.610  1.00  0.00    -0.219 C  
ATOM     15  OXT PHE A   1     -10.684  14.674  65.857  1.00  0.00    -0.289 OA 
ATOM     16  C   PHE A   1      -9.950  15.605  66.170  1.00  0.00    -0.312 C  
ATOM     17  O   PHE A   1      -9.411  16.431  65.242  1.00  0.00    -0.237 OA 
BRANCH  14  18
ATOM     18  CB  PHE A   1      -9.951  17.289  68.091  1.00  0.00    -0.303 C  
BRANCH  18  19
ATOM     19  CG  PHE A   1      -9.029  18.452  67.796  1.00  0.00    -0.292 A  
ATOM     20  CD1 PHE A   1      -7.712  18.440  68.269  1.00  0.00    -0.308 A  
ATOM     21  CE1 PHE A   1      -6.835  19.486  67.977  1.00  0.00    -0.287 A  
ATOM     22  CZ  PHE A   1      -7.259  20.552  67.189  1.00  0.00    -0.364 A  
ATOM     23  CE2 PHE A   1      -8.564  20.573  66.700  1.00  0.00    -0.156 A  
ATOM     24  CD2 PHE A   1      -9.448  19.532  67.005  1.00  0.00    -0.426 A  
ENDBRANCH  18  19
ENDBRANCH  14  18
ENDBRANCH  12  14
ENDBRANCH   7  10
TORSDOF 4
ENDMDL
MODEL      247
REMARK 921   NORMALIZED FREE ENERGY PREDICTED BY IDOCK:    2.95 KCAL/MOL
REMARK 922        TOTAL FREE ENERGY PREDICTED BY IDOCK:    2.62 KCAL/MOL
REMARK 923 INTER-LIGAND FREE ENERGY PREDICTED BY IDOCK:   -0.77 KCAL/MOL
REMARK 924 INTRA-LIGAND FREE ENERGY PREDICTED BY IDOCK:    3.38 KCAL/MOL
REMARK 927      BINDING AFFINITY PREDICTED BY RF-SCORE:    0.00 PKD
ROOT
HETATM    1  C   UNK A   0      -6.273  15.773  66.823  1.00  0.00     0.659 C  
HETATM    2  C   UNK A   0      -5.998  14.924  68.071  1.00  0.00    -0.158 C  
HETATM    3  C   UNK A   0      -5.854  15.883  69.266  1.00  0.00    -0.120 C  
HETATM    4  C   UNK A   0      -7.096  13.846  68.325  1.00  0.00    -0.108 C  
HETATM    5  C   UNK A   0      -7.267  12.803  67.196  1.00  0.00    -0.014 C  
HETATM    6  C   UNK A   0      -6.169  11.728  67.145  1.00  0.00    -0.147 C  
HETATM    7  C   UNK A   0      -5.823  11.095  68.507  1.00  0.00    -0.042 C  
HETATM    8  C   UNK A   0      -5.636  12.185  69.567  1.00  0.00    -0.079 C  
HETATM    9  C   UNK A   0      -6.875  13.075  69.637  1.00  0.00     0.174 C  
ENDROOT
BRANCH   7  10
HETATM   10  C   UNK A   0      -6.837  10.032  68.968  1.00  0.00    -0.055 C  
HETATM   11  O   UNK A   0      -8.048  10.136  68.817  1.00  0.00    -0.099 OA 
ATOM     12  N   PHE A   1      -6.266   8.916  69.543  1.00  0.00    -0.042 N  
ATOM     13  H   PHE A   1      -5.258   8.912  69.696  1.00  0.00     0.000 HD 
BRANCH  12  14
ATOM     14  CA  PHE A   1      -7.038   7.736  69.945  1.00  0.00    -0.062 C  
ATOM     15  OXT PHE A   1      -6.466   6.916  67.720  1.00  0.00    -0.046 OA 
ATOM     16  C   PHE A   1      -7.105   6.768  68.756  1.00  0.00    -0.086 C  
ATOM     17  O   PHE A   1      -7.986   5.751  68.912  1.00  0.00    -0.095 OA 
BRANCH  14  18
ATOM     18  CB  PHE A   1      -6.547   7.048  71.233  1.00  0.00    -0.045 C  
BRANCH  18  19
ATOM     19  CG  PHE A   1      -7.093   5.670  71.538  1.00  0.00    -0.073 A  
ATOM     20  CD1 PHE A   1      -7.172   4.707  70.525  1.00  0.00    -0.049 A  
ATOM     21  CE1 PHE A   1      -7.639   3.420  70.793  1.00  0.00    -0.040 A  
ATOM     22  CZ  PHE A   1      -8.017   3.071  72.086  1.00  0.00    -0.055 A  
ATOM     23  CE2 PHE A   1      -7.934   4.014  73.109  1.00  0.00    -0.088 A  
ATOM     24  CD2 PHE A   1      -7.480   5.309  72.837  1.00  0.00    -0.096 A  
ENDBRANCH  18  19
ENDBRANCH  14  18
ENDBRANCH  12  14
ENDBRANCH   7  10
TORSDOF 4
ENDMDL
MODEL      248
REMARK 921   NORMALIZED FREE ENERGY PREDICTED BY IDOCK:    6.77 KCAL/MOL
REMARK 922        TOTAL FREE ENERGY PREDICTED BY IDOCK:    7.32 KCAL/MOL
REMARK 923 INTER-LIGAND FREE ENERGY PREDICTED BY IDOCK:    6.35 KCAL/MOL
REMARK 924 INTRA-LIGAND FREE ENERGY PREDICTED BY IDOCK:    0.97 KCAL/MOL
REMARK 927      BINDING AFFINITY PREDICTED BY RF-SCORE:    0.00 PKD
ROOT
HETATM    1  C   UNK A   0     -11.060   8.399  65.925  1.00  0.00     3.426 C  
HETATM    2  C   UNK A   0     -10.955   6.968  66.467  1.00  0.00     0.361 C  
HETATM    3  C   UNK A   0     -10.523   6.058  65.304  1.00  0.00     1.845 C  
HETATM    4  C   UNK A   0      -9.985   6.850  67.683  1.00  0.00    -0.180 C  
HETATM    5  C   UNK A   0     -10.378   7.689  68.922  1.00  0.00    -0.222 C  
HETATM    6  C   UNK A   0     -11.541   7.112  69.744  1.00  0.00    -0.038 C  
HETATM    7  C   UNK A   0     -11.432   5.603  70.044  1.00  0.00     0.462 C  
HETATM    8  C   UNK A   0     -11.073   4.833  68.770  1.00  0.00     2.000 C  
HETATM    9  C   UNK A   0      -9.797   5.397  68.149  1.00  0.00    -0.188 C  
ENDROOT
BRANCH   7  10
HETATM   10  C   UNK A   0     -10.460   5.271  71.192  1.00  0.00    -0.205 C  
HETATM   11  O   UNK A   0     -10.720   5.446  72.375  1.00  0.00    -0.215 OA 
ATOM     12  N   PHE A   1      -9.267   4.718  70.781  1.00  0.00    -0.132 N  
ATOM     13  H   PHE A   1      -9.082   4.650  69.780  1.00  0.00     0.000 HD 
BRANCH  12  14
ATOM     14  CA  PHE A   1      -8.249   4.221  71.711  1.00  0.00    -0.096 C  
ATOM     15  OXT PHE A   1      -7.081   3.547  69.680  1.00  0.00    -0.041 OA 
ATOM     16  C   PHE A   1      -7.147   3.523  70.904  1.00  0.00    -0.033 C  
ATOM     17  O   PHE A   1      -6.270   2.812  71.652  1.00  0.00    -0.014 OA 
BRANCH  14  18
ATOM     18  CB  PHE A   1      -7.684   5.279  72.680  1.00  0.00    -0.098 C  
BRANCH  18  19
ATOM     19  CG  PHE A   1      -6.820   6.372  72.091  1.00  0.00    -0.072 A  
ATOM     20  CD1 PHE A   1      -6.538   7.522  72.836  1.00  0.00    -0.065 A  
ATOM     21  CE1 PHE A   1      -5.714   8.525  72.325  1.00  0.00    -0.054 A  
ATOM     22  CZ  PHE A   1      -5.143   8.382  71.064  1.00  0.00    -0.025 A  
ATOM     23  CE2 PHE A   1      -5.404   7.238  70.313  1.00  0.00    -0.023 A  
ATOM     24  CD2 PHE A   1      -6.242   6.239  70.819  1.00  0.00    -0.039 A  
ENDBRANCH  18  19
ENDBRANCH  14  18
ENDBRANCH  12  14
ENDBRANCH   7  10
TORSDOF 4
ENDMDL
MODEL      249
REMARK 921   NORMALIZED FREE ENERGY PREDICTED BY IDOCK:   13.96 KCAL/MOL
REMARK 922        TOTAL FREE ENERGY PREDICTED BY IDOCK:   16.19 KCAL/MOL
REMARK 923 INTER-LIGAND FREE ENERGY PREDICTED BY IDOCK:   14.70 KCAL/MOL
REMARK 924 INTRA-LIGAND FREE ENERGY PREDICTED BY IDOCK:    1.49 KCAL/MOL
REMARK 927      BINDING AFFINITY PREDICTED BY RF-SCORE:    0.00 PKD
ROOT
HETATM    1  C   UNK A   0     -11.887  19.065  64.845  1.00  0.00     4.590 C  
HETATM    2  C   UNK A   0     -12.000  17.539  64.946  1.00  0.00     3.580 C  
HETATM    3  C   UNK A   0     -11.936  16.971  63.517  1.00  0.00     5.374 C  
HETATM    4  C   UNK A   0     -10.909  16.910  65.866  1.00  0.00    -0.037 C  
HETATM    5  C   UNK A   0     -10.939  17.382  67.338  1.00  0.00    -0.056 C  
HETATM    6  C   UNK A   0     -12.064  16.768  68.186  1.00  0.00     1.213 C  
HETATM    7  C   UNK A   0     -12.223  15.242  68.037  1.00  0.00     0.275 C  
HETATM    8  C   UNK A   0     -12.218  14.849  66.556  1.00  0.00     0.119 C  
HETATM    9  C   UNK A   0     -10.957  15.373  65.873  1.00  0.00    -0.293 C  
ENDROOT
BRANCH   7  10
HETATM   10  C   UNK A   0     -11.184  14.432  68.835  1.00  0.00    -0.262 C  
HETATM   11  O   UNK A   0     -10.328  14.940  69.548  1.00  0.00    -0.211 OA 
ATOM     12  N   PHE A   1     -11.315  13.066  68.713  1.00  0.00    -0.270 N  
ATOM     13  H   PHE A   1     -12.008  12.702  68.059  1.00  0.00     0.000 HD 
BRANCH  12  14
ATOM     14  CA  PHE A   1     -10.507  12.109  69.476  1.00  0.00     0.457 C  
ATOM     15  OXT PHE A   1     -11.379  10.484  67.880  1.00  0.00    -0.330 OA 
ATOM     16  C   PHE A   1     -10.746  10.705  68.907  1.00  0.00    -0.219 C  
ATOM     17  O   PHE A   1     -10.250   9.701  69.668  1.00  0.00    -0.193 OA 
BRANCH  14  18
ATOM     18  CB  PHE A   1      -9.008  12.456  69.571  1.00  0.00     1.573 C  
BRANCH  18  19
ATOM     19  CG  PHE A   1      -8.069  11.750  68.618  1.00  0.00    -0.104 A  
ATOM     20  CD1 PHE A   1      -7.254  12.493  67.756  1.00  0.00    -0.125 A  
ATOM     21  CE1 PHE A   1      -6.355  11.862  66.896  1.00  0.00    -0.107 A  
ATOM     22  CZ  PHE A   1      -6.245  10.475  66.898  1.00  0.00    -0.066 A  
ATOM     23  CE2 PHE A   1      -7.040   9.720  67.758  1.00  0.00    -0.087 A  
ATOM     24  CD2 PHE A   1      -7.952  10.352  68.610  1.00  0.00    -0.115 A  
ENDBRANCH  18  19
ENDBRANCH  14  18
ENDBRANCH  12  14
ENDBRANCH   7  10
TORSDOF 4
ENDMDL
MODEL      250
REMARK 921   NORMALIZED FREE ENERGY PREDICTED BY IDOCK:   14.28 KCAL/MOL
REMARK 922        TOTAL FREE ENERGY PREDICTED BY IDOCK:   16.59 KCAL/MOL
REMARK 923 INTER-LIGAND FREE ENERGY PREDICTED BY IDOCK:   14.45 KCAL/MOL
REMARK 924 INTRA-LIGAND FREE ENERGY PREDICTED BY IDOCK:    2.14 KCAL/MOL
REMARK 927      BINDING AFFINITY PREDICTED BY RF-SCORE:    0.00 PKD
ROOT
HETATM    1  C   UNK A   0     -11.518   8.755  63.958  1.00  0.00    14.105 C  
HETATM    2  C   UNK A   0     -10.869   9.832  64.836  1.00  0.00     2.172 C  
HETATM    3  C   UNK A   0     -11.865  10.999  64.958  1.00  0.00     1.062 C  
HETATM    4  C   UNK A   0     -10.437   9.294  66.235  1.00  0.00    -0.084 C  
HETATM    5  C   UNK A   0      -9.389   8.157  66.207  1.00  0.00    -0.259 C  
HETATM    6  C   UNK A   0      -7.955   8.613  65.896  1.00  0.00    -0.105 C  
HETATM    7  C   UNK A   0      -7.486   9.849  66.690  1.00  0.00    -0.099 C  
HETATM    8  C   UNK A   0      -8.555  10.945  66.648  1.00  0.00    -0.148 C  
HETATM    9  C   UNK A   0      -9.891  10.402  67.151  1.00  0.00    -0.221 C  
ENDROOT
BRANCH   7  10
HETATM   10  C   UNK A   0      -7.067   9.530  68.137  1.00  0.00    -0.079 C  
HETATM   11  O   UNK A   0      -6.096  10.029  68.690  1.00  0.00    -0.045 OA 
ATOM     12  N   PHE A   1      -7.906   8.650  68.788  1.00  0.00    -0.104 N  
ATOM     13  H   PHE A   1      -8.664   8.221  68.258  1.00  0.00     0.000 HD 
BRANCH  12  14
ATOM     14  CA  PHE A   1      -7.760   8.300  70.204  1.00  0.00    -0.084 C  
ATOM     15  OXT PHE A   1      -9.942   9.364  70.432  1.00  0.00    -0.216 OA 
ATOM     16  C   PHE A   1      -8.962   8.862  70.973  1.00  0.00    -0.241 C  
ATOM     17  O   PHE A   1      -8.836   8.819  72.321  1.00  0.00    -0.367 OA 
BRANCH  14  18
ATOM     18  CB  PHE A   1      -7.535   6.801  70.482  1.00  0.00    -0.086 C  
BRANCH  18  19
ATOM     19  CG  PHE A   1      -8.069   6.247  71.785  1.00  0.00    -0.103 A  
ATOM     20  CD1 PHE A   1      -9.440   6.305  72.063  1.00  0.00    -0.158 A  
ATOM     21  CE1 PHE A   1      -9.957   5.768  73.242  1.00  0.00    -0.190 A  
ATOM     22  CZ  PHE A   1      -9.110   5.147  74.155  1.00  0.00    -0.114 A  
ATOM     23  CE2 PHE A   1      -7.744   5.071  73.889  1.00  0.00    -0.098 A  
ATOM     24  CD2 PHE A   1      -7.224   5.622  72.714  1.00  0.00    -0.090 A  
ENDBRANCH  18  19
ENDBRANCH  14  18
ENDBRANCH  12  14
ENDBRANCH   7  10
TORSDOF 4
ENDMDL
MODEL      251
REMARK 921   NORMALIZED FREE ENERGY PREDICTED BY IDOCK:   15.84 KCAL/MOL
REMARK 922        TOTAL FREE ENERGY PREDICTED BY IDOCK:   18.51 KCAL/MOL
REMARK 923 INTER-LIGAND FREE ENERGY PREDICTED BY IDOCK:   17.50 KCAL/MOL
REMARK 924 INTRA-LIGAND FREE ENERGY PREDICTED BY IDOCK:    1.02 KCAL/MOL
REMARK 927      BINDING AFFINITY PREDICTED BY RF-SCORE:    0.00 PKD
ROOT
HETATM    1  C   UNK A   0      -9.756  12.212  62.767  1.00  0.00     0.773 C  
HETATM    2  C   UNK A   0     -10.307  13.431  63.517  1.00  0.00     1.282 C  
HETATM    3  C   UNK A   0     -11.780  13.605  63.108  1.00  0.00     0.434 C  
HETATM    4  C   UNK A   0     -10.148  13.314  65.064  1.00  0.00    -0.247 C  
HETATM    5  C   UNK A   0      -8.691  13.195  65.568  1.00  0.00     1.470 C  
HETATM    6  C   UNK A   0      -7.896  14.510  65.547  1.00  0.00     5.379 C  
HETATM    7  C   UNK A   0      -8.643  15.724  66.135  1.00  0.00    -0.212 C  
HETATM    8  C   UNK A   0     -10.064  15.799  65.569  1.00  0.00    -0.383 C  
HETATM    9  C   UNK A   0     -10.803  14.485  65.815  1.00  0.00    -0.317 C  
ENDROOT
BRANCH   7  10
HETATM   10  C   UNK A   0      -8.650  15.757  67.675  1.00  0.00    -0.163 C  
HETATM   11  O   UNK A   0      -7.707  16.146  68.351  1.00  0.00    -0.143 OA 
ATOM     12  N   PHE A   1      -9.835  15.342  68.244  1.00  0.00    -0.211 N  
ATOM     13  H   PHE A   1     -10.564  14.974  67.633  1.00  0.00     0.000 HD 
BRANCH  12  14
ATOM     14  CA  PHE A   1     -10.098  15.404  69.685  1.00  0.00    -0.269 C  
ATOM     15  OXT PHE A   1     -12.154  16.526  69.006  1.00  0.00     0.103 OA 
ATOM     16  C   PHE A   1     -11.402  16.180  69.911  1.00  0.00    -0.317 C  
ATOM     17  O   PHE A   1     -11.637  16.517  71.201  1.00  0.00    -0.330 OA 
BRANCH  14  18
ATOM     18  CB  PHE A   1     -10.096  14.040  70.404  1.00  0.00     1.906 C  
BRANCH  18  19
ATOM     19  CG  PHE A   1     -11.381  13.606  71.076  1.00  0.00     1.082 A  
ATOM     20  CD1 PHE A   1     -12.570  13.543  70.341  1.00  0.00    -0.267 A  
ATOM     21  CE1 PHE A   1     -13.758  13.111  70.933  1.00  0.00     0.827 A  
ATOM     22  CZ  PHE A   1     -13.768  12.717  72.268  1.00  0.00    -0.429 A  
ATOM     23  CE2 PHE A   1     -12.590  12.762  73.011  1.00  0.00     2.403 A  
ATOM     24  CD2 PHE A   1     -11.403  13.210  72.422  1.00  0.00     5.126 A  
ENDBRANCH  18  19
ENDBRANCH  14  18
ENDBRANCH  12  14
ENDBRANCH   7  10
TORSDOF 4
ENDMDL
MODEL      252
REMARK 921   NORMALIZED FREE ENERGY PREDICTED BY IDOCK:   17.17 KCAL/MOL
REMARK 922        TOTAL FREE ENERGY PREDICTED BY IDOCK:   20.16 KCAL/MOL
REMARK 923 INTER-LIGAND FREE ENERGY PREDICTED BY IDOCK:   19.06 KCAL/MOL
REMARK 924 INTRA-LIGAND FREE ENERGY PREDICTED BY IDOCK:    1.10 KCAL/MOL
REMARK 927      BINDING AFFINITY PREDICTED BY RF-SCORE:    0.00 PKD
ROOT
HETATM    1  C   UNK A   0     -10.888   7.505  64.052  1.00  0.00    13.194 C  
HETATM    2  C   UNK A   0     -10.332   8.492  65.085  1.00  0.00     2.856 C  
HETATM    3  C   UNK A   0     -11.437   9.516  65.396  1.00  0.00     4.706 C  
HETATM    4  C   UNK A   0      -9.816   7.790  66.379  1.00  0.00    -0.198 C  
HETATM    5  C   UNK A   0      -8.660   6.785  66.165  1.00  0.00    -0.146 C  
HETATM    6  C   UNK A   0      -7.286   7.430  65.921  1.00  0.00    -0.075 C  
HETATM    7  C   UNK A   0      -6.926   8.569  66.897  1.00  0.00    -0.074 C  
HETATM    8  C   UNK A   0      -8.102   9.541  67.035  1.00  0.00    -0.113 C  
HETATM    9  C   UNK A   0      -9.364   8.792  67.454  1.00  0.00    -0.166 C  
ENDROOT
BRANCH   7  10
HETATM   10  C   UNK A   0      -6.445   8.072  68.272  1.00  0.00    -0.055 C  
HETATM   11  O   UNK A   0      -5.521   8.581  68.894  1.00  0.00    -0.037 OA 
ATOM     12  N   PHE A   1      -7.170   7.014  68.778  1.00  0.00    -0.088 N  
ATOM     13  H   PHE A   1      -7.890   6.594  68.189  1.00  0.00     0.000 HD 
BRANCH  12  14
ATOM     14  CA  PHE A   1      -6.957   6.462  70.119  1.00  0.00    -0.063 C  
ATOM     15  OXT PHE A   1      -9.244   7.209  70.515  1.00  0.00    -0.158 OA 
ATOM     16  C   PHE A   1      -8.203   6.747  70.968  1.00  0.00    -0.119 C  
ATOM     17  O   PHE A   1      -8.046   6.505  72.291  1.00  0.00    -0.106 OA 
BRANCH  14  18
ATOM     18  CB  PHE A   1      -6.553   4.975  70.153  1.00  0.00    -0.036 C  
BRANCH  18  19
ATOM     19  CG  PHE A   1      -6.918   4.183  71.389  1.00  0.00    -0.035 A  
ATOM     20  CD1 PHE A   1      -6.149   4.304  72.552  1.00  0.00    -0.016 A  
ATOM     21  CE1 PHE A   1      -6.490   3.610  73.714  1.00  0.00    -0.033 A  
ATOM     22  CZ  PHE A   1      -7.619   2.797  73.734  1.00  0.00    -0.051 A  
ATOM     23  CE2 PHE A   1      -8.403   2.675  72.588  1.00  0.00    -0.070 A  
ATOM     24  CD2 PHE A   1      -8.053   3.359  71.419  1.00  0.00    -0.061 A  
ENDBRANCH  18  19
ENDBRANCH  14  18
ENDBRANCH  12  14
ENDBRANCH   7  10
TORSDOF 4
ENDMDL
MODEL      253
REMARK 921   NORMALIZED FREE ENERGY PREDICTED BY IDOCK:   21.77 KCAL/MOL
REMARK 922        TOTAL FREE ENERGY PREDICTED BY IDOCK:   25.83 KCAL/MOL
REMARK 923 INTER-LIGAND FREE ENERGY PREDICTED BY IDOCK:   23.52 KCAL/MOL
REMARK 924 INTRA-LIGAND FREE ENERGY PREDICTED BY IDOCK:    2.31 KCAL/MOL
REMARK 927      BINDING AFFINITY PREDICTED BY RF-SCORE:    0.00 PKD
ROOT
HETATM    1  C   UNK A   0      -6.860  19.366  71.696  1.00  0.00     1.623 C  
HETATM    2  C   UNK A   0      -6.605  17.857  71.783  1.00  0.00     3.957 C  
HETATM    3  C   UNK A   0      -7.057  17.386  73.177  1.00  0.00    10.017 C  
HETATM    4  C   UNK A   0      -7.311  17.055  70.646  1.00  0.00     3.167 C  
HETATM    5  C   UNK A   0      -6.869  17.424  69.211  1.00  0.00    -0.200 C  
HETATM    6  C   UNK A   0      -5.495  16.871  68.801  1.00  0.00    -0.132 C  
HETATM    7  C   UNK A   0      -5.271  15.383  69.140  1.00  0.00    -0.095 C  
HETATM    8  C   UNK A   0      -5.698  15.097  70.583  1.00  0.00    -0.102 C  
HETATM    9  C   UNK A   0      -7.144  15.535  70.805  1.00  0.00     1.168 C  
ENDROOT
BRANCH   7  10
HETATM   10  C   UNK A   0      -5.951  14.417  68.152  1.00  0.00    -0.133 C  
HETATM   11  O   UNK A   0      -5.547  13.285  67.920  1.00  0.00    -0.108 OA 
ATOM     12  N   PHE A   1      -7.093  14.919  67.565  1.00  0.00    -0.187 N  
ATOM     13  H   PHE A   1      -7.349  15.889  67.751  1.00  0.00     0.000 HD 
BRANCH  12  14
ATOM     14  CA  PHE A   1      -7.958  14.127  66.685  1.00  0.00     0.607 C  
ATOM     15  OXT PHE A   1      -7.832  12.470  68.469  1.00  0.00    -0.137 OA 
ATOM     16  C   PHE A   1      -8.188  12.755  67.331  1.00  0.00    -0.186 C  
ATOM     17  O   PHE A   1      -8.770  11.843  66.517  1.00  0.00    -0.194 OA 
BRANCH  14  18
ATOM     18  CB  PHE A   1      -9.278  14.814  66.283  1.00  0.00    -0.278 C  
BRANCH  18  19
ATOM     19  CG  PHE A   1     -10.050  14.216  65.127  1.00  0.00    -0.348 A  
ATOM     20  CD1 PHE A   1     -11.436  14.391  65.044  1.00  0.00    -0.372 A  
ATOM     21  CE1 PHE A   1     -12.161  13.878  63.967  1.00  0.00    -0.413 A  
ATOM     22  CZ  PHE A   1     -11.505  13.198  62.946  1.00  0.00     0.995 A  
ATOM     23  CE2 PHE A   1     -10.123  13.026  63.007  1.00  0.00     2.398 A  
ATOM     24  CD2 PHE A   1      -9.398  13.527  64.094  1.00  0.00     2.474 A  
ENDBRANCH  18  19
ENDBRANCH  14  18
ENDBRANCH  12  14
ENDBRANCH   7  10
TORSDOF 4
ENDMDL
MODEL      254
REMARK 921   NORMALIZED FREE ENERGY PREDICTED BY IDOCK:   36.44 KCAL/MOL
REMARK 922        TOTAL FREE ENERGY PREDICTED BY IDOCK:   43.94 KCAL/MOL
REMARK 923 INTER-LIGAND FREE ENERGY PREDICTED BY IDOCK:   40.87 KCAL/MOL
REMARK 924 INTRA-LIGAND FREE ENERGY PREDICTED BY IDOCK:    3.07 KCAL/MOL
REMARK 927      BINDING AFFINITY PREDICTED BY RF-SCORE:    0.00 PKD
ROOT
HETATM    1  C   UNK A   0     -12.288   8.602  65.029  1.00  0.00    16.780 C  
HETATM    2  C   UNK A   0     -12.545   7.533  66.097  1.00  0.00    11.169 C  
HETATM    3  C   UNK A   0     -13.275   6.360  65.418  1.00  0.00    10.344 C  
HETATM    4  C   UNK A   0     -11.241   7.063  66.812  1.00  0.00     0.243 C  
HETATM    5  C   UNK A   0     -10.473   8.170  67.573  1.00  0.00    -0.326 C  
HETATM    6  C   UNK A   0     -11.104   8.584  68.911  1.00  0.00     0.236 C  
HETATM    7  C   UNK A   0     -11.526   7.409  69.816  1.00  0.00     0.038 C  
HETATM    8  C   UNK A   0     -12.308   6.369  69.007  1.00  0.00     2.692 C  
HETATM    9  C   UNK A   0     -11.491   5.912  67.800  1.00  0.00     0.805 C  
ENDROOT
BRANCH   7  10
HETATM   10  C   UNK A   0     -10.351   6.762  70.573  1.00  0.00    -0.201 C  
HETATM   11  O   UNK A   0      -9.175   7.024  70.357  1.00  0.00    -0.156 OA 
ATOM     12  N   PHE A   1     -10.732   5.876  71.558  1.00  0.00    -0.248 N  
ATOM     13  H   PHE A   1     -11.723   5.653  71.654  1.00  0.00     0.000 HD 
BRANCH  12  14
ATOM     14  CA  PHE A   1      -9.783   5.237  72.475  1.00  0.00    -0.150 C  
ATOM     15  OXT PHE A   1     -11.231   3.292  72.219  1.00  0.00     0.570 OA 
ATOM     16  C   PHE A   1     -10.285   3.822  72.790  1.00  0.00    -0.166 C  
ATOM     17  O   PHE A   1      -9.633   3.211  73.808  1.00  0.00    -0.091 OA 
BRANCH  14  18
ATOM     18  CB  PHE A   1      -8.316   5.247  72.002  1.00  0.00    -0.122 C  
BRANCH  18  19
ATOM     19  CG  PHE A   1      -8.049   4.888  70.557  1.00  0.00    -0.084 A  
ATOM     20  CD1 PHE A   1      -6.846   5.267  69.951  1.00  0.00    -0.056 A  
ATOM     21  CE1 PHE A   1      -6.564   4.914  68.630  1.00  0.00    -0.049 A  
ATOM     22  CZ  PHE A   1      -7.478   4.158  67.902  1.00  0.00    -0.068 A  
ATOM     23  CE2 PHE A   1      -8.676   3.762  68.494  1.00  0.00    -0.134 A  
ATOM     24  CD2 PHE A   1      -8.964   4.129  69.812  1.00  0.00    -0.156 A  
ENDBRANCH  18  19
ENDBRANCH  14  18
ENDBRANCH  12  14
ENDBRANCH   7  10
TORSDOF 4
ENDMDL
